@<TRIPOS>MOLECULE
3R540
247   249    1
SMALL
USER_CHARGES


@<TRIPOS>ATOM
      1 CA          4.4703  -14.6926  -45.7014 C.3       0 UNK        -0.1800 
      2 C           3.6292  -14.1877  -46.8649 C.2       0 UNK         0.5000 
      3 O           3.9989  -13.2002  -47.4994 O.2       0 UNK        -0.5000 
      4 N           2.5033  -14.8630  -47.1401 N.am      1 UNK        -0.5000 
      5 CA          1.5753  -14.6014  -48.2543 C.3       1 UNK         0.1400 
      6 C6          2.2186  -14.8067  -49.6567 C.3       23 UNK        -0.0398 
      7 S7          3.0903  -16.4027  -49.8488 S.3       23 UNK        -0.2404 
      8 C8          2.0980  -17.2181  -51.1377 C.3       23 UNK        -0.0205 
      9 C9          2.7817  -18.4611  -51.6902 C.ar      23 UNK        -0.0193 
     10 C10         3.0729  -18.5418  -53.0540 C.ar      23 UNK        -0.1150 
     11 C11         3.7095  -19.6672  -53.5823 C.ar      23 UNK        -0.0193 
     12 C12         4.0744  -20.7129  -52.7278 C.ar      23 UNK        -0.1150 
     13 C13         3.8021  -20.6429  -51.3573 C.ar      23 UNK        -0.0193 
     14 C14         3.1368  -19.5218  -50.8493 C.ar      23 UNK        -0.1150 
     15 C15         4.2925  -21.7353  -50.4113 C.3       23 UNK        -0.0205 
     16 S16         3.7017  -23.4093  -50.8344 S.3       23 UNK        -0.2404 
     17 C17         1.9019  -23.2650  -50.5920 C.3       23 UNK        -0.0398 
     18 CA          1.4121  -23.8461  -49.2434 C.3       11 UNK         0.1400 
     19 N           1.9661  -23.1126  -48.1033 N.am      11 UNK        -0.5000 
     20 C           1.7964  -23.4224  -46.8112 C.2       10 UNK         0.5000 
     21 O           1.1831  -24.4116  -46.4146 O.2       10 UNK        -0.5000 
     22 CA          2.3601  -22.4144  -45.7909 C.3       10 UNK         0.1400 
     23 CB          3.8215  -22.7476  -45.4578 C.3       10 UNK        -0.1800 
     24 N           2.2708  -21.0181  -46.2337 N.am      10 UNK        -0.5000 
     25 C           1.1357  -20.3966  -46.5797 C.2       9 UNK         0.5000 
     26 O           0.0309  -20.9423  -46.5807 O.2       9 UNK        -0.5000 
     27 CA          1.2584  -18.9246  -47.0011 C.3       9 UNK         0.1400 
     28 CB          0.3342  -18.6088  -48.1881 C.3       9 UNK        -0.1800 
     29 N           0.9119  -18.0717  -45.8703 N.am      9 UNK        -0.5000 
     30 C           1.7285  -17.8182  -44.8390 C.2       8 UNK         0.5000 
     31 O           2.9162  -18.1417  -44.8179 O.2       8 UNK        -0.5000 
     32 CA          1.1207  -17.0930  -43.6251 C.3       8 UNK         0.1400 
     33 CB          1.1163  -15.5724  -43.8416 C.3       8 UNK        -0.1800 
     34 N          -0.2356  -17.5403  -43.3106 N.am      8 UNK        -0.5000 
     35 C          -0.5592  -18.7649  -42.8682 C.2       7 UNK         0.5000 
     36 O           0.2586  -19.6670  -42.6860 O.2       7 UNK        -0.5000 
     37 CA         -2.0446  -19.0222  -42.5680 C.3       7 UNK         0.1400 
     38 CB         -2.4077  -18.5067  -41.1663 C.3       7 UNK        -0.1800 
     39 N          -2.8991  -18.3660  -43.5544 N.am      7 UNK        -0.5000 
     40 C          -3.4478  -18.9779  -44.6118 C.2       6 UNK         0.5000 
     41 O          -3.3680  -20.1867  -44.8252 O.2       6 UNK        -0.5000 
     42 CA         -4.2458  -18.0999  -45.5956 C.3       6 UNK         0.1400 
     43 CB         -5.7420  -18.1561  -45.2470 C.3       6 UNK        -0.1800 
     44 N          -3.8333  -16.6958  -45.6328 N.am      6 UNK        -0.5000 
     45 C          -2.6213  -16.2505  -45.9907 C.2       5 UNK         0.5000 
     46 O          -1.6822  -16.9726  -46.3130 O.2       5 UNK        -0.5000 
     47 CA         -2.3975  -14.7344  -45.8961 C.3       5 UNK         0.1400 
     48 CB         -2.8924  -14.0328  -47.1696 C.3       5 UNK        -0.1800 
     49 N          -3.0038  -14.1062  -44.7188 N.am      5 UNK        -0.5000 
     50 C          -2.8270  -14.4738  -43.4406 C.2       4 UNK         0.5000 
     51 O          -2.2471  -15.5071  -43.1007 O.2       4 UNK        -0.5000 
     52 CA         -3.3497  -13.4891  -42.3728 C.3       4 UNK         0.1400 
     53 CB         -3.2007  -14.0365  -40.9419 C.3       4 UNK        -0.1800 
     54 N          -2.6316  -12.2173  -42.4706 N.am      4 UNK        -0.5000 
     55 C          -2.8546  -11.2805  -43.4006 C.2       3 UNK         0.5000 
     56 O          -3.8060  -11.3181  -44.1840 O.2       3 UNK        -0.5000 
     57 CA         -1.8074  -10.1611  -43.5557 C.3       3 UNK         0.1400 
     58 CB         -0.8365  -10.0196  -42.3610 C.3       3 UNK        -0.1800 
     59 N          -1.0780  -10.3326  -44.8184 N.am      3 UNK        -0.5000 
     60 C          -0.3179  -11.3790  -45.1768 C.2       2 UNK         0.5000 
     61 O          -0.0325  -12.3207  -44.4319 O.2       2 UNK        -0.5000 
     62 CA          0.2066  -11.3709  -46.6195 C.3       2 UNK         0.1400 
     63 CB          1.2845  -10.2899  -46.8196 C.3       2 UNK        -0.1800 
     64 N           0.7703  -12.6808  -46.9295 N.am      2 UNK        -0.5000 
     65 C           0.8604  -13.2299  -48.1461 C.2       1 UNK         0.5000 
     66 O           0.4024  -12.6966  -49.1578 O.2       1 UNK        -0.5000 
     67 C          -0.1301  -23.8647  -49.2130 C.2       11 UNK         0.5000 
     68 O          -0.7313  -24.9263  -49.3779 O.2       11 UNK        -0.5000 
     69 N          -0.7391  -22.6922  -48.9800 N.am      12 UNK        -0.5000 
     70 CA         -2.1902  -22.5204  -48.9219 C.3       12 UNK         0.1400 
     71 CB         -2.5505  -21.0325  -49.0045 C.3       12 UNK        -0.1800 
     72 C          -2.7901  -23.1353  -47.6520 C.2       12 UNK         0.5000 
     73 O          -3.8800  -23.7033  -47.7212 O.2       12 UNK        -0.5000 
     74 N          -2.0581  -23.0306  -46.5348 N.am      13 UNK        -0.5000 
     75 CA         -2.4036  -23.6288  -45.2484 C.3       13 UNK         0.1400 
     76 CB         -1.4373  -23.1177  -44.1682 C.3       13 UNK        -0.1800 
     77 C          -2.3995  -25.1670  -45.3063 C.2       13 UNK         0.5000 
     78 O          -3.3462  -25.7919  -44.8283 O.2       13 UNK        -0.5000 
     79 N          -1.3557  -25.7457  -45.9195 N.am      14 UNK        -0.5000 
     80 CA         -1.1995  -27.1880  -46.1176 C.3       14 UNK         0.1400 
     81 CB          0.2230  -27.4893  -46.6130 C.3       14 UNK        -0.1800 
     82 C          -2.2426  -27.7763  -47.0837 C.2       14 UNK         0.5000 
     83 O          -2.7717  -28.8570  -46.8206 O.2       14 UNK        -0.5000 
     84 N          -2.5330  -27.0502  -48.1721 N.am      15 UNK        -0.5000 
     85 CA         -3.5468  -27.4204  -49.1620 C.3       15 UNK         0.1400 
     86 CB         -3.3101  -26.6031  -50.4418 C.3       15 UNK        -0.1800 
     87 C          -4.9925  -27.2147  -48.6682 C.2       15 UNK         0.5000 
     88 O          -5.9100  -27.7993  -49.2451 O.2       15 UNK        -0.5000 
     89 N          -5.1676  -26.3602  -47.6477 N.am      16 UNK        -0.5000 
     90 CA         -6.4339  -25.8174  -47.1403 C.3       16 UNK         0.1400 
     91 CB         -7.3036  -26.9233  -46.5082 C.3       16 UNK        -0.1800 
     92 C          -7.1780  -24.9878  -48.2115 C.2       16 UNK         0.5000 
     93 O          -8.4092  -24.9904  -48.2633 O.2       16 UNK        -0.5000 
     94 N          -6.3997  -24.3090  -49.0640 N.am      17 UNK        -0.5000 
     95 CA         -6.8737  -23.5394  -50.2126 C.3       17 UNK         0.1400 
     96 CB         -5.7878  -23.5653  -51.3003 C.3       17 UNK        -0.1800 
     97 C          -7.2251  -22.0878  -49.8465 C.2       17 UNK         0.5000 
     98 O          -8.0816  -21.4961  -50.5051 O.2       17 UNK        -0.5000 
     99 N          -6.5555  -21.5554  -48.8117 N.am      18 UNK        -0.5000 
    100 CA        -6.5924  -20.1691  -48.3294 C.3       18 UNK         0.1400 
    101 CB        -8.0142  -19.7802  -47.8704 C.3       18 UNK        -0.1800 
    102 C         -5.9995  -19.1451  -49.3260 C.2       18 UNK         0.5000 
    103 O         -5.6508  -19.4937  -50.4565 O.2       18 UNK        -0.5000 
    104 N         -5.8610  -17.8954  -48.8557 N.am      19 UNK        -0.5000 
    105 CA        -5.1984  -16.7655  -49.5220 C.3       19 UNK         0.1400 
    106 CB        -6.0121  -16.3093  -50.7533 C.3       19 UNK        -0.1800 
    107 C         -3.7113  -17.0531  -49.8361 C.2       19 UNK         0.5000 
    108 O         -3.0933  -17.8723  -49.1560 O.2       19 UNK        -0.5000 
    109 N         -3.1489  -16.3661  -50.8376 N.am      20 UNK        -0.5000 
    110 CA        -1.8210  -16.6532  -51.3728 C.3       20 UNK         0.1400 
    111 CB        -1.2382  -15.3772  -52.0003 C.3       20 UNK        -0.1800 
    112 C         -1.9357  -17.7818  -52.4114 C.2       20 UNK         0.5000 
    113 O         -2.6815  -17.6279  -53.3812 O.2       20 UNK        -0.5000 
    114 N         -1.2033  -18.8836  -52.1958 N.am      21 UNK        -0.5000 
    115 CA        -1.2845  -20.1256  -52.9764 C.3       21 UNK         0.1400 
    116 CB        -0.2889  -21.1429  -52.4041 C.3       21 UNK        -0.1800 
    117 C         -1.0433  -19.9602  -54.4877 C.2       21 UNK         0.5000 
    118 O         -1.7356  -20.5933  -55.2856 O.2       21 UNK        -0.5000 
    119 N         -0.0801  -19.1031  -54.8409 N.am      22 UNK        -0.5000 
    120 CA         0.2590  -18.7480  -56.2280 C.3       22 UNK         0.1400 
    121 C         -0.4614  -17.4590  -56.7277 C.2       22 UNK         0.5000 
    122 N         -1.4105  -16.8877  -55.9939 N.am      22 UNK        -0.7600 
    123 O         -0.1658  -16.9685  -57.8141 O.2       22 UNK        -0.5000 
    124 C124        1.7934  -18.6817  -56.4502 C.3       23 UNK        -0.0398 
    125 S125        2.6342  -20.2644  -56.0802 S.3       23 UNK        -0.2404 
    126 C126        4.0498  -19.7322  -55.0646 C.3       23 UNK        -0.0205 
    127 H127        4.3963  -14.0057  -44.8584 H         1 UNK         0.0600 
    128 H128        4.1521  -15.6808  -45.3698 H         1 UNK         0.0600 
    129 H129        5.5174  -14.7602  -45.9968 H         1 UNK         0.0600 
    130 H130        2.2846  -15.6803  -46.5905 H         1 UNK         0.3000 
    131 H131        0.7788  -15.3379  -48.1499 H         1 UNK         0.0600 
    132 H132        1.4584  -14.7227  -50.4345 H         1 UNK         0.0800 
    133 H133        2.9387  -14.0132  -49.8621 H         1 UNK         0.0800 
    134 H134        1.9158  -16.5037  -51.9415 H         1 UNK         0.0800 
    135 H135        1.1258  -17.4907  -50.7354 H         1 UNK         0.0800 
    136 H136        2.8180  -17.7176  -53.7031 H         1 UNK         0.1150 
    137 H137        4.5928  -21.5747  -53.1243 H         1 UNK         0.1150 
    138 H138        2.9334  -19.4497  -49.7909 H         1 UNK         0.1150 
    139 H139        5.3830  -21.7422  -50.4370 H         1 UNK         0.0800 
    140 H140        4.0211  -21.5084  -49.3802 H         1 UNK         0.0800 
    141 H141        1.4256  -23.7830  -51.4268 H         1 UNK         0.0800 
    142 H142        1.6165  -22.2179  -50.6819 H         1 UNK         0.0800 
    143 H143        1.7520  -24.8813  -49.1674 H         1 UNK         0.0600 
    144 H144        2.4952  -22.2835  -48.3199 H         1 UNK         0.3000 
    145 H145        1.7710  -22.5059  -44.8765 H         1 UNK         0.0600 
    146 H146        4.2047  -22.0980  -44.6705 H         1 UNK         0.0600 
    147 H147        3.9166  -23.7752  -45.1040 H         1 UNK         0.0600 
    148 H148        4.4688  -22.6388  -46.3289 H         1 UNK         0.0600 
    149 H149        3.1259  -20.4806  -46.2025 H         1 UNK         0.3000 
    150 H150        2.2853  -18.7207  -47.3124 H         1 UNK         0.0600 
    151 H151        0.5649  -19.2397  -49.0463 H         1 UNK         0.0600 
    152 H152        0.4359  -17.5719  -48.4990 H         1 UNK         0.0600 
    153 H153       -0.7142  -18.7684  -47.9392 H         1 UNK         0.0600 
    154 H154       -0.0606  -17.7740  -45.8248 H         1 UNK         0.3000 
    155 H155        1.7492  -17.3099  -42.7589 H         1 UNK         0.0600 
    156 H156        0.5514  -15.2936  -44.7298 H         1 UNK         0.0600 
    157 H157        2.1299  -15.1907  -43.9607 H         1 UNK         0.0600 
    158 H158        0.6751  -15.0512  -42.9915 H         1 UNK         0.0600 
    159 H159       -0.9681  -16.8391  -43.3766 H         1 UNK         0.3000 
    160 H160       -2.2085  -20.1018  -42.5817 H         1 UNK         0.0600 
    161 H161       -1.7927  -18.9857  -40.4034 H         1 UNK         0.0600 
    162 H162       -3.4492  -18.7215  -40.9267 H         1 UNK         0.0600 
    163 H163       -2.2599  -17.4295  -41.0788 H         1 UNK         0.0600 
    164 H164       -2.9828  -17.3590  -43.4743 H         1 UNK         0.3000 
    165 H165       -4.0965  -18.5162  -46.5939 H         1 UNK         0.0600 
    166 H166       -6.3418  -17.5904  -45.9586 H         1 UNK         0.0600 
    167 H167       -6.1094  -19.1830  -45.2481 H         1 UNK         0.0600 
    168 H168       -5.9343  -17.7464  -44.2545 H         1 UNK         0.0600 
    169 H169       -4.5176  -16.0152  -45.3374 H         1 UNK         0.3000 
    170 H170       -1.3224  -14.5691  -45.8249 H         1 UNK         0.0600 
    171 H171       -2.4392  -14.4718  -48.0600 H         1 UNK         0.0600 
    172 H172       -3.9748  -14.1098  -47.2777 H         1 UNK         0.0600 
    173 H173       -2.6306  -12.9747  -47.1631 H         1 UNK         0.0600 
    174 H174       -3.4724  -13.2202  -44.8742 H         1 UNK         0.3000 
    175 H175       -4.4125  -13.3242  -42.5618 H         1 UNK         0.0600 
    176 H176       -2.1562  -14.2185  -40.6854 H         1 UNK         0.0600 
    177 H177       -3.6093  -13.3403  -40.2095 H         1 UNK         0.0600 
    178 H178       -3.7362  -14.9799  -40.8270 H         1 UNK         0.0600 
    179 H179       -1.7893  -12.1406  -41.9191 H         1 UNK         0.3000 
    180 H180       -2.3657   -9.2275  -43.6383 H         1 UNK         0.0600 
    181 H181       -0.2118  -10.9014  -42.2175 H         1 UNK         0.0600 
    182 H182       -1.3826   -9.8461  -41.4329 H         1 UNK         0.0600 
    183 H183       -0.1708   -9.1685  -42.5039 H         1 UNK         0.0600 
    184 H184       -1.2625   -9.6221  -45.5127 H         1 UNK         0.3000 
    185 H185       -0.6393  -11.1728  -47.2812 H         1 UNK         0.0600 
    186 H186        0.8954   -9.2946  -46.6029 H         1 UNK         0.0600 
    187 H187        2.1435  -10.4578  -46.1687 H         1 UNK         0.0600 
    188 H188        1.6449  -10.2776  -47.8484 H         1 UNK         0.0600 
    189 H189        1.1149  -13.1853  -46.1231 H         1 UNK         0.3000 
    190 H190       -0.1821  -21.8866  -48.7364 H         1 UNK         0.3000 
    191 H191       -2.6279  -23.0260  -49.7850 H         1 UNK         0.0600 
    192 H192       -2.2261  -20.4878  -48.1179 H         1 UNK         0.0600 
    193 H193       -3.6292  -20.9050  -49.0805 H         1 UNK         0.0600 
    194 H194       -2.1113  -20.5510  -49.8764 H         1 UNK         0.0600 
    195 H195       -1.2123  -22.4689  -46.5646 H         1 UNK         0.3000 
    196 H196       -3.4118  -23.2992  -44.9887 H         1 UNK         0.0600 
    197 H197       -0.4157  -23.4509  -44.3493 H         1 UNK         0.0600 
    198 H198       -1.7305  -23.4782  -43.1818 H         1 UNK         0.0600 
    199 H199       -1.4280  -22.0283  -44.1287 H         1 UNK         0.0600 
    200 H200       -0.5905  -25.1618  -46.2464 H         1 UNK         0.3000 
    201 H201       -1.3316  -27.6757  -45.1496 H         1 UNK         0.0600 
    202 H202        0.9689  -27.1653  -45.8871 H         1 UNK         0.0600 
    203 H203        0.4350  -26.9859  -47.5573 H         1 UNK         0.0600 
    204 H204        0.3657  -28.5592  -46.7698 H         1 UNK         0.0600 
    205 H205       -2.0084  -26.2008  -48.3538 H         1 UNK         0.3000 
    206 H206       -3.4273  -28.4784  -49.4048 H         1 UNK         0.0600 
    207 H207       -2.3169  -26.7899  -50.8508 H         1 UNK         0.0600 
    208 H208       -4.0336  -26.8640  -51.2152 H         1 UNK         0.0600 
    209 H209       -3.3991  -25.5321  -50.2559 H         1 UNK         0.0600 
    210 H210       -4.3389  -25.9169  -47.2728 H         1 UNK         0.3000 
    211 H211       -6.1645  -25.1172  -46.3482 H         1 UNK         0.0600 
    212 H212       -7.6773  -27.6249  -47.2543 H         1 UNK         0.0600 
    213 H213       -8.1693  -26.4958  -46.0011 H         1 UNK         0.0600 
    214 H214       -6.7407  -27.4897  -45.7662 H         1 UNK         0.0600 
    215 H215       -5.4010  -24.3130  -48.8872 H         1 UNK         0.3000 
    216 H216       -7.7719  -24.0113  -50.6169 H         1 UNK         0.0600 
    217 H217       -6.1122  -23.0210  -52.1882 H         1 UNK         0.0600 
    218 H218       -5.5634  -24.5864  -51.6092 H         1 UNK         0.0600 
    219 H219       -4.8607  -23.1059  -50.9556 H         1 UNK         0.0600 
    220 H220       -5.8798  -22.1519  -48.3552 H         1 UNK         0.3000 
    221 H221       -5.9414  -20.1584  -47.4549 H         1 UNK         0.0600 
    222 H222       -8.6997  -19.6756  -48.7115 H         1 UNK         0.0600 
    223 H223       -8.4272  -20.5280  -47.1933 H         1 UNK         0.0600 
    224 H224       -8.0161  -18.8304  -47.3362 H         1 UNK         0.0600 
    225 H225       -6.1684  -17.7077  -47.9142 H         1 UNK         0.3000 
    226 H226       -5.2007  -15.9477  -48.8002 H         1 UNK         0.0600 
    227 H227       -7.0665  -16.1902  -50.5037 H         1 UNK         0.0600 
    228 H228       -5.6652  -15.3453  -51.1265 H         1 UNK         0.0600 
    229 H229       -5.9446  -17.0263  -51.5726 H         1 UNK         0.0600 
    230 H230       -3.7238  -15.7413  -51.3836 H         1 UNK         0.3000 
    231 H231       -1.1601  -16.9649  -50.5619 H         1 UNK         0.0600 
    232 H232       -0.2609  -15.5676  -52.4437 H         1 UNK         0.0600 
    233 H233       -1.1102  -14.5946  -51.2518 H         1 UNK         0.0600 
    234 H234       -1.8812  -14.9840  -52.7888 H         1 UNK         0.0600 
    235 H235       -0.6300  -18.9259  -51.3680 H         1 UNK         0.3000 
    236 H236       -2.2932  -20.5233  -52.8459 H         1 UNK         0.0600 
    237 H237       -0.3527  -22.0950  -52.9326 H         1 UNK         0.0600 
    238 H238        0.7396  -20.7893  -52.4894 H         1 UNK         0.0600 
    239 H239       -0.4921  -21.3426  -51.3551 H         1 UNK         0.0600 
    240 H240        0.4327  -18.6260  -54.1158 H         1 UNK         0.3000 
    241 H241       -0.1089  -19.5359  -56.8877 H         1 UNK         0.0600 
    242 H242       -1.8652  -16.0595  -56.3438 H         1 UNK         0.3800 
    243 H243       -1.7243  -17.2936  -55.1193 H         1 UNK         0.3800 
    244 H244        2.0154  -18.4440  -57.4919 H         1 UNK         0.0800 
    245 H245        2.2262  -17.8720  -55.8643 H         1 UNK         0.0800 
    246 H246        4.4202  -18.7660  -55.4105 H         1 UNK         0.0800 
    247 H247        4.8678  -20.4365  -55.2233 H         1 UNK         0.0800 
@<TRIPOS>BOND
     1    1    2 1    
     2    1  127 1    
     3    1  128 1    
     4    1  129 1    
     5    2    3 2    
     6    2    4 am   BACKBONE|DICT|INTERRES
     7    4    5 1    
     8    4  130 1    
     9    5    6 1    
    10    5   65 1    
    11    5  131 1    
    12    6    7 1    
    13    6  132 1    
    14    6  133 1    
    15    7    8 1    
    16    8    9 1    
    17    8  134 1    
    18    8  135 1    
    19    9   10 ar   
    20    9   14 ar   
    21   10   11 ar   
    22   10  136 1    
    23   11   12 ar   
    24   11  126 1    
    25   12   13 ar   
    26   12  137 1    
    27   13   14 ar   
    28   13   15 1    
    29   14  138 1    
    30   15   16 1    
    31   15  139 1    
    32   15  140 1    
    33   16   17 1    
    34   17   18 1    
    35   17  141 1    
    36   17  142 1    
    37   18   19 1    
    38   18   67 1    
    39   18  143 1    
    40   19   20 am   BACKBONE|DICT|INTERRES
    41   19  144 1    
    42   20   21 2    
    43   20   22 1    
    44   22   23 1    
    45   22   24 1    
    46   22  145 1    
    47   23  146 1    
    48   23  147 1    
    49   23  148 1    
    50   24   25 am   BACKBONE|DICT|INTERRES
    51   24  149 1    
    52   25   26 2    
    53   25   27 1    
    54   27   28 1    
    55   27   29 1    
    56   27  150 1    
    57   28  151 1    
    58   28  152 1    
    59   28  153 1    
    60   29   30 am   BACKBONE|DICT|INTERRES
    61   29  154 1    
    62   30   31 2    
    63   30   32 1    
    64   32   33 1    
    65   32   34 1    
    66   32  155 1    
    67   33  156 1    
    68   33  157 1    
    69   33  158 1    
    70   34   35 am   BACKBONE|DICT|INTERRES
    71   34  159 1    
    72   35   36 2    
    73   35   37 1    
    74   37   38 1    
    75   37   39 1    
    76   37  160 1    
    77   38  161 1    
    78   38  162 1    
    79   38  163 1    
    80   39   40 am   BACKBONE|DICT|INTERRES
    81   39  164 1    
    82   40   41 2    
    83   40   42 1    
    84   42   43 1    
    85   42   44 1    
    86   42  165 1    
    87   43  166 1    
    88   43  167 1    
    89   43  168 1    
    90   44   45 am   BACKBONE|DICT|INTERRES
    91   44  169 1    
    92   45   46 2    
    93   45   47 1    
    94   47   48 1    
    95   47   49 1    
    96   47  170 1    
    97   48  171 1    
    98   48  172 1    
    99   48  173 1    
   100   49   50 am   BACKBONE|DICT|INTERRES
   101   49  174 1    
   102   50   51 2    
   103   50   52 1    
   104   52   53 1    
   105   52   54 1    
   106   52  175 1    
   107   53  176 1    
   108   53  177 1    
   109   53  178 1    
   110   54   55 am   BACKBONE|DICT|INTERRES
   111   54  179 1    
   112   55   56 2    
   113   55   57 1    
   114   57   58 1    
   115   57   59 1    
   116   57  180 1    
   117   58  181 1    
   118   58  182 1    
   119   58  183 1    
   120   59   60 am   BACKBONE|DICT|INTERRES
   121   59  184 1    
   122   60   61 2    
   123   60   62 1    
   124   62   63 1    
   125   62   64 1    
   126   62  185 1    
   127   63  186 1    
   128   63  187 1    
   129   63  188 1    
   130   64   65 am   BACKBONE|DICT|INTERRES
   131   64  189 1    
   132   65   66 2    
   133   67   68 2    
   134   67   69 am   BACKBONE|DICT|INTERRES
   135   69   70 1    
   136   69  190 1    
   137   70   71 1    
   138   70   72 1    
   139   70  191 1    
   140   71  192 1    
   141   71  193 1    
   142   71  194 1    
   143   72   73 2    
   144   72   74 am   BACKBONE|DICT|INTERRES
   145   74   75 1    
   146   74  195 1    
   147   75   76 1    
   148   75   77 1    
   149   75  196 1    
   150   76  197 1    
   151   76  198 1    
   152   76  199 1    
   153   77   78 2    
   154   77   79 am   BACKBONE|DICT|INTERRES
   155   79   80 1    
   156   79  200 1    
   157   80   81 1    
   158   80   82 1    
   159   80  201 1    
   160   81  202 1    
   161   81  203 1    
   162   81  204 1    
   163   82   83 2    
   164   82   84 am   BACKBONE|DICT|INTERRES
   165   84   85 1    
   166   84  205 1    
   167   85   86 1    
   168   85   87 1    
   169   85  206 1    
   170   86  207 1    
   171   86  208 1    
   172   86  209 1    
   173   87   88 2    
   174   87   89 am   BACKBONE|DICT|INTERRES
   175   89   90 1    
   176   89  210 1    
   177   90   91 1    
   178   90   92 1    
   179   90  211 1    
   180   91  212 1    
   181   91  213 1    
   182   91  214 1    
   183   92   93 2    
   184   92   94 am   BACKBONE|DICT|INTERRES
   185   94   95 1    
   186   94  215 1    
   187   95   96 1    
   188   95   97 1    
   189   95  216 1    
   190   96  217 1    
   191   96  218 1    
   192   96  219 1    
   193   97   98 2    
   194   97   99 am   BACKBONE|DICT|INTERRES
   195   99  100 1    
   196   99  220 1    
   197  100  101 1    
   198  100  102 1    
   199  100  221 1    
   200  101  222 1    
   201  101  223 1    
   202  101  224 1    
   203  102  103 2    
   204  102  104 am   BACKBONE|DICT|INTERRES
   205  104  105 1    
   206  104  225 1    
   207  105  106 1    
   208  105  107 1    
   209  105  226 1    
   210  106  227 1    
   211  106  228 1    
   212  106  229 1    
   213  107  108 2    
   214  107  109 am   BACKBONE|DICT|INTERRES
   215  109  110 1    
   216  109  230 1    
   217  110  111 1    
   218  110  112 1    
   219  110  231 1    
   220  111  232 1    
   221  111  233 1    
   222  111  234 1    
   223  112  113 2    
   224  112  114 am   BACKBONE|DICT|INTERRES
   225  114  115 1    
   226  114  235 1    
   227  115  116 1    
   228  115  117 1    
   229  115  236 1    
   230  116  237 1    
   231  116  238 1    
   232  116  239 1    
   233  117  118 2    
   234  117  119 am   BACKBONE|DICT|INTERRES
   235  119  120 1    
   236  119  240 1    
   237  120  121 1    
   238  120  124 1    
   239  120  241 1    
   240  121  122 am   BACKBONE|DICT|INTERRES
   241  121  123 2    
   242  122  242 1    
   243  122  243 1    
   244  124  125 1    
   245  124  244 1    
   246  124  245 1    
   247  125  126 1    
   248  126  246 1    
   249  126  247 1    
@<TRIPOS>SUBSTRUCTURE
     1 UNK         1 GROUP             0       ****    0 ROOT    
