@<TRIPOS>MOLECULE
3R540
247   249    1
SMALL
USER_CHARGES


@<TRIPOS>ATOM
      1 CA         -4.0395  -11.1176  -45.3663 C.3       0 UNK        -0.1800 
      2 C          -2.8603  -10.7689  -46.2643 C.2       0 UNK         0.5000 
      3 O          -2.7209   -9.6155  -46.6722 O.2       0 UNK        -0.5000 
      4 N          -2.0179  -11.7616  -46.5767 N.am      1 UNK        -0.5000 
      5 CA         -0.7867  -11.6025  -47.3575 C.3       1 UNK         0.1400 
      6 C6         -0.2777  -12.9756  -47.8693 C.3       23 UNK        -0.0398 
      7 S7          0.7360  -12.8234  -49.3777 S.3       23 UNK        -0.2404 
      8 C8          1.1896  -14.5582  -49.6874 C.3       23 UNK        -0.0205 
      9 C9         -0.0096  -15.4123  -50.0711 C.ar      23 UNK        -0.0193 
     10 C10        -0.6311  -15.2390  -51.3099 C.ar      23 UNK        -0.1150 
     11 C11        -1.7218  -16.0328  -51.6812 C.ar      23 UNK        -0.0193 
     12 C12        -2.1827  -17.0146  -50.7965 C.ar      23 UNK        -0.1150 
     13 C13        -1.5732  -17.1967  -49.5491 C.ar      23 UNK        -0.0193 
     14 C14        -0.4936  -16.3819  -49.1908 C.ar      23 UNK        -0.1150 
     15 C15        -2.1227  -18.2283  -48.5690 C.3       23 UNK        -0.0205 
     16 S16        -0.8285  -19.2116  -47.7408 S.3       23 UNK        -0.2404 
     17 C17        -0.4366  -20.4894  -48.9931 C.3       23 UNK        -0.0398 
     18 CA         -0.3638  -21.9277  -48.4149 C.3       11 UNK         0.1400 
     19 N           0.5999  -22.0142  -47.3176 N.am      11 UNK        -0.5000 
     20 C           0.9433  -23.1187  -46.6420 C.2       10 UNK         0.5000 
     21 O           0.5541  -24.2503  -46.9304 O.2       10 UNK        -0.5000 
     22 CA          1.8311  -22.9112  -45.3968 C.3       10 UNK         0.1400 
     23 CB          3.3056  -23.1592  -45.7464 C.3       10 UNK        -0.1800 
     24 N           1.7032  -21.5899  -44.7679 N.am      10 UNK        -0.5000 
     25 C           0.5640  -21.0291  -44.3343 C.2       9 UNK         0.5000 
     26 O          -0.5375  -21.5767  -44.4386 O.2       9 UNK        -0.5000 
     27 CA          0.6952  -19.6172  -43.7220 C.3       9 UNK         0.1400 
     28 CB          1.5720  -18.6919  -44.5858 C.3       9 UNK        -0.1800 
     29 N          -0.5961  -18.9612  -43.5393 N.am      9 UNK        -0.5000 
     30 C          -1.4883  -19.2299  -42.5779 C.2       8 UNK         0.5000 
     31 O          -1.2975  -20.0579  -41.6852 O.2       8 UNK        -0.5000 
     32 CA         -2.8064  -18.4271  -42.6100 C.3       8 UNK         0.1400 
     33 CB         -3.2628  -18.0202  -41.1977 C.3       8 UNK        -0.1800 
     34 N          -2.6901  -17.2181  -43.4311 N.am      8 UNK        -0.5000 
     35 C          -3.1253  -17.0925  -44.6930 C.2       7 UNK         0.5000 
     36 O          -3.7003  -17.9936  -45.3003 O.2       7 UNK        -0.5000 
     37 CA         -2.8901  -15.7450  -45.4092 C.3       7 UNK         0.1400 
     38 CB         -4.2247  -15.0802  -45.7829 C.3       7 UNK        -0.1800 
     39 N          -2.0968  -14.8011  -44.6212 N.am      7 UNK        -0.5000 
     40 C          -0.7592  -14.7972  -44.5636 C.2       6 UNK         0.5000 
     41 O          -0.0496  -15.5564  -45.2235 O.2       6 UNK        -0.5000 
     42 CA         -0.1001  -13.7684  -43.6230 C.3       6 UNK         0.1400 
     43 CB         -1.0977  -12.8780  -42.8477 C.3       6 UNK        -0.1800 
     44 N           0.8474  -14.3842  -42.6955 N.am      6 UNK        -0.5000 
     45 C           0.6131  -15.3821  -41.8301 C.2       5 UNK         0.5000 
     46 O          -0.4817  -15.9366  -41.7196 O.2       5 UNK        -0.5000 
     47 CA          1.7718  -15.7940  -40.8917 C.3       5 UNK         0.1400 
     48 CB          1.8704  -17.3227  -40.7071 C.3       5 UNK        -0.1800 
     49 N           3.0707  -15.1954  -41.2397 N.am      5 UNK        -0.5000 
     50 C           3.8364  -15.4689  -42.3055 C.2       4 UNK         0.5000 
     51 O           3.6154  -16.3726  -43.1121 O.2       4 UNK        -0.5000 
     52 CA          5.0398  -14.5346  -42.5375 C.3       4 UNK         0.1400 
     53 CB          6.3614  -15.2577  -42.2367 C.3       4 UNK        -0.1800 
     54 N           5.0601  -14.0398  -43.9163 N.am      4 UNK        -0.5000 
     55 C           4.0944  -13.2932  -44.4691 C.2       3 UNK         0.5000 
     56 O           3.1283  -12.8582  -43.8370 O.2       3 UNK        -0.5000 
     57 CA          4.2134  -13.0434  -45.9867 C.3       3 UNK         0.1400 
     58 CB          3.8060  -14.3075  -46.7617 C.3       3 UNK        -0.1800 
     59 N           3.3809  -11.9361  -46.4585 N.am      3 UNK        -0.5000 
     60 C           3.5200  -10.6454  -46.1250 C.2       2 UNK         0.5000 
     61 O           4.4333  -10.2185  -45.4166 O.2       2 UNK        -0.5000 
     62 CA          2.4806   -9.6556  -46.6970 C.3       2 UNK         0.1400 
     63 CB          3.1196   -8.7703  -47.7789 C.3       2 UNK        -0.1800 
     64 N           1.3001  -10.3119  -47.2689 N.am      2 UNK        -0.5000 
     65 C           0.3034  -10.8511  -46.5555 C.2       1 UNK         0.5000 
     66 O           0.2482  -10.8015  -45.3253 O.2       1 UNK        -0.5000 
     67 C          -1.7588  -22.4744  -48.0295 C.2       11 UNK         0.5000 
     68 O          -2.3614  -23.2209  -48.8029 O.2       11 UNK        -0.5000 
     69 N          -2.2301  -22.1154  -46.8276 N.am      12 UNK        -0.5000 
     70 CA         -3.4979  -22.5706  -46.2665 C.3       12 UNK         0.1400 
     71 CB         -3.9665  -21.5836  -45.1883 C.3       12 UNK        -0.1800 
     72 C          -3.3832  -23.9907  -45.6945 C.2       12 UNK         0.5000 
     73 O          -4.3107  -24.7834  -45.8594 O.2       12 UNK        -0.5000 
     74 N          -2.2415  -24.2925  -45.0566 N.am      13 UNK        -0.5000 
     75 CA         -1.9456  -25.5900  -44.4410 C.3       13 UNK         0.1400 
     76 CB         -0.6115  -25.5140  -43.6857 C.3       13 UNK        -0.1800 
     77 C          -1.9274  -26.7541  -45.4495 C.2       13 UNK         0.5000 
     78 O          -2.3696  -27.8539  -45.1145 O.2       13 UNK        -0.5000 
     79 N          -1.4738  -26.4839  -46.6811 N.am      14 UNK        -0.5000 
     80 CA         -1.4884  -27.3986  -47.8252 C.3       14 UNK         0.1400 
     81 CB         -0.4507  -26.9102  -48.8498 C.3       14 UNK        -0.1800 
     82 C          -2.8993  -27.5557  -48.4401 C.2       14 UNK         0.5000 
     83 O          -3.0780  -27.3573  -49.6440 O.2       14 UNK        -0.5000 
     84 N          -3.8864  -27.8775  -47.5896 N.am      15 UNK        -0.5000 
     85 CA         -5.3055  -28.1257  -47.8861 C.3       15 UNK         0.1400 
     86 CB         -5.4520  -29.4655  -48.6362 C.3       15 UNK        -0.1800 
     87 C          -6.0193  -26.9678  -48.6214 C.2       15 UNK         0.5000 
     88 O          -7.0027  -27.2029  -49.3250 O.2       15 UNK        -0.5000 
     89 N          -5.4816  -25.7473  -48.4797 N.am      16 UNK        -0.5000 
     90 CA         -5.8193  -24.5186  -49.2055 C.3       16 UNK         0.1400 
     91 CB         -7.2315  -24.0287  -48.8304 C.3       16 UNK        -0.1800 
     92 C          -5.6110  -24.5905  -50.7364 C.2       16 UNK         0.5000 
     93 O          -6.0185  -23.6666  -51.4413 O.2       16 UNK        -0.5000 
     94 N          -4.9515  -25.6435  -51.2408 N.am      17 UNK        -0.5000 
     95 CA         -4.6697  -25.8308  -52.6642 C.3       17 UNK         0.1400 
     96 CB         -4.2455  -27.2845  -52.9197 C.3       17 UNK        -0.1800 
     97 C          -3.5954  -24.8476  -53.1501 C.2       17 UNK         0.5000 
     98 O          -3.7544  -24.2285  -54.2024 O.2       17 UNK        -0.5000 
     99 N          -2.5496  -24.6727  -52.3322 N.am      18 UNK        -0.5000 
    100 CA        -1.4925  -23.6899  -52.5550 C.3       18 UNK         0.1400 
    101 CB        -0.2854  -24.0349  -51.6757 C.3       18 UNK        -0.1800 
    102 C         -1.9660  -22.2414  -52.3289 C.2       18 UNK         0.5000 
    103 O         -1.3871  -21.3306  -52.9177 O.2       18 UNK        -0.5000 
    104 N         -3.0164  -22.0461  -51.5176 N.am      19 UNK        -0.5000 
    105 CA        -3.6947  -20.7618  -51.3372 C.3       19 UNK         0.1400 
    106 CB        -4.5706  -20.7850  -50.0737 C.3       19 UNK        -0.1800 
    107 C         -4.5285  -20.3826  -52.5694 C.2       19 UNK         0.5000 
    108 O         -4.4499  -19.2401  -53.0195 O.2       19 UNK        -0.5000 
    109 N         -5.2758  -21.3551  -53.1118 N.am      20 UNK        -0.5000 
    110 CA        -6.0643  -21.2161  -54.3374 C.3       20 UNK         0.1400 
    111 CB        -6.9409  -22.4634  -54.5269 C.3       20 UNK        -0.1800 
    112 C         -5.1881  -20.9649  -55.5786 C.2       20 UNK         0.5000 
    113 O         -5.5343  -20.1222  -56.4073 O.2       20 UNK        -0.5000 
    114 N         -4.0529  -21.6726  -55.6640 N.am      21 UNK        -0.5000 
    115 CA        -3.0278  -21.4717  -56.6905 C.3       21 UNK         0.1400 
    116 CB        -2.0903  -22.6884  -56.7022 C.3       21 UNK        -0.1800 
    117 C         -2.2146  -20.1755  -56.4930 C.2       21 UNK         0.5000 
    118 O         -1.6602  -19.6601  -57.4643 O.2       21 UNK        -0.5000 
    119 N         -2.1552  -19.6837  -55.2484 N.am      22 UNK        -0.5000 
    120 CA        -1.3448  -18.5481  -54.7878 C.3       22 UNK         0.1400 
    121 C          0.1831  -18.8296  -54.9023 C.2       22 UNK         0.5000 
    122 N          0.6438  -19.9445  -54.3501 N.am      22 UNK        -0.7600 
    123 O          0.9474  -18.0702  -55.4924 O.2       22 UNK        -0.5000 
    124 C124       -1.8180  -17.2017  -55.3978 C.3       23 UNK        -0.0398 
    125 S125       -1.2984  -15.7437  -54.4311 S.3       23 UNK        -0.2404 
    126 C126       -2.4390  -15.7875  -53.0062 C.3       23 UNK        -0.0205 
    127 H127       -3.9647  -12.1296  -44.9697 H         1 UNK         0.0600 
    128 H128       -4.9726  -11.0366  -45.9236 H         1 UNK         0.0600 
    129 H129       -4.0841  -10.4290  -44.5225 H         1 UNK         0.0600 
    130 H130       -2.1882  -12.6845  -46.2089 H         1 UNK         0.3000 
    131 H131       -1.0430  -10.9864  -48.2226 H         1 UNK         0.0600 
    132 H132        0.2851  -13.5106  -47.1027 H         1 UNK         0.0800 
    133 H133       -1.1255  -13.6145  -48.1217 H         1 UNK         0.0800 
    134 H134        1.6881  -14.9659  -48.8073 H         1 UNK         0.0800 
    135 H135        1.9220  -14.5913  -50.4950 H         1 UNK         0.0800 
    136 H136       -0.2697  -14.4735  -51.9823 H         1 UNK         0.1150 
    137 H137       -3.0374  -17.6167  -51.0700 H         1 UNK         0.1150 
    138 H138       -0.0284  -16.5028  -48.2220 H         1 UNK         0.1150 
    139 H139       -2.6991  -17.7028  -47.8101 H         1 UNK         0.0800 
    140 H140       -2.8259  -18.8978  -49.0586 H         1 UNK         0.0800 
    141 H141        0.5249  -20.2284  -49.4371 H         1 UNK         0.0800 
    142 H142       -1.1512  -20.4449  -49.8136 H         1 UNK         0.0800 
    143 H143        0.0240  -22.5714  -49.2024 H         1 UNK         0.0600 
    144 H144        0.9596  -21.1316  -46.9857 H         1 UNK         0.3000 
    145 H145        1.5320  -23.6480  -44.6520 H         1 UNK         0.0600 
    146 H146        3.9356  -23.1161  -44.8578 H         1 UNK         0.0600 
    147 H147        3.4413  -24.1464  -46.1906 H         1 UNK         0.0600 
    148 H148        3.6788  -22.4238  -46.4604 H         1 UNK         0.0600 
    149 H149        2.5632  -21.0737  -44.6528 H         1 UNK         0.3000 
    150 H150        1.1651  -19.7303  -42.7437 H         1 UNK         0.0600 
    151 H151        2.6131  -19.0149  -44.5966 H         1 UNK         0.0600 
    152 H152        1.5634  -17.6725  -44.1995 H         1 UNK         0.0600 
    153 H153        1.2244  -18.6496  -45.6181 H         1 UNK         0.0600 
    154 H154       -0.8463  -18.2716  -44.2320 H         1 UNK         0.3000 
    155 H155       -3.5676  -19.0902  -43.0256 H         1 UNK         0.0600 
    156 H156       -2.5147  -17.4076  -40.6936 H         1 UNK         0.0600 
    157 H157       -3.4438  -18.8966  -40.5744 H         1 UNK         0.0600 
    158 H158       -4.1927  -17.4526  -41.2327 H         1 UNK         0.0600 
    159 H159       -2.1616  -16.4619  -43.0112 H         1 UNK         0.3000 
    160 H160       -2.3560  -15.9618  -46.3360 H         1 UNK         0.0600 
    161 H161       -4.7972  -14.7989  -44.8983 H         1 UNK         0.0600 
    162 H162       -4.8464  -15.7531  -46.3752 H         1 UNK         0.0600 
    163 H163       -4.0658  -14.1848  -46.3833 H         1 UNK         0.0600 
    164 H164       -2.6084  -14.1845  -44.0062 H         1 UNK         0.3000 
    165 H165        0.4940  -13.1220  -44.2667 H         1 UNK         0.0600 
    166 H166       -1.7391  -13.4577  -42.1827 H         1 UNK         0.0600 
    167 H167       -0.5661  -12.1486  -42.2363 H         1 UNK         0.0600 
    168 H168       -1.7344  -12.3095  -43.5260 H         1 UNK         0.0600 
    169 H169        1.7875  -14.0098  -42.7563 H         1 UNK         0.3000 
    170 H170        1.5115  -15.3748  -39.9189 H         1 UNK         0.0600 
    171 H171        0.9384  -17.7318  -40.3151 H         1 UNK         0.0600 
    172 H172        2.0743  -17.8333  -41.6466 H         1 UNK         0.0600 
    173 H173        2.6605  -17.5850  -40.0038 H         1 UNK         0.0600 
    174 H174        3.3498  -14.4256  -40.6466 H         1 UNK         0.3000 
    175 H175        4.9596  -13.6721  -41.8725 H         1 UNK         0.0600 
    176 H176        6.5078  -16.1181  -42.8912 H         1 UNK         0.0600 
    177 H177        7.2145  -14.5907  -42.3619 H         1 UNK         0.0600 
    178 H178        6.3812  -15.6209  -41.2084 H         1 UNK         0.0600 
    179 H179        5.8011  -14.3925  -44.5039 H         1 UNK         0.3000 
    180 H180        5.2541  -12.8051  -46.2154 H         1 UNK         0.0600 
    181 H181        2.7716  -14.5873  -46.5551 H         1 UNK         0.0600 
    182 H182        4.4325  -15.1580  -46.4900 H         1 UNK         0.0600 
    183 H183        3.9093  -14.1627  -47.8373 H         1 UNK         0.0600 
    184 H184        2.6001  -12.1836  -47.0455 H         1 UNK         0.3000 
    185 H185        2.1584   -9.0115  -45.8761 H         1 UNK         0.0600 
    186 H186        2.4143   -8.0244  -48.1459 H         1 UNK         0.0600 
    187 H187        3.9830   -8.2321  -47.3856 H         1 UNK         0.0600 
    188 H188        3.4605   -9.3595  -48.6312 H         1 UNK         0.0600 
    189 H189        1.2840  -10.4037  -48.2755 H         1 UNK         0.3000 
    190 H190       -1.6456  -21.5522  -46.2200 H         1 UNK         0.3000 
    191 H191       -4.2506  -22.5814  -47.0560 H         1 UNK         0.0600 
    192 H192       -4.9181  -21.8976  -44.7577 H         1 UNK         0.0600 
    193 H193       -4.1138  -20.5900  -45.6098 H         1 UNK         0.0600 
    194 H194       -3.2480  -21.4988  -44.3725 H         1 UNK         0.0600 
    195 H195       -1.5430  -23.5665  -44.9596 H         1 UNK         0.3000 
    196 H196       -2.7363  -25.7906  -43.7152 H         1 UNK         0.0600 
    197 H197        0.2327  -25.4676  -44.3725 H         1 UNK         0.0600 
    198 H198       -0.5688  -24.6438  -43.0302 H         1 UNK         0.0600 
    199 H199       -0.4708  -26.3988  -43.0639 H         1 UNK         0.0600 
    200 H200       -1.0895  -25.5613  -46.8541 H         1 UNK         0.3000 
    201 H201       -1.1779  -28.3882  -47.4844 H         1 UNK         0.0600 
    202 H202       -0.6950  -25.9115  -49.2092 H         1 UNK         0.0600 
    203 H203       -0.4016  -27.5736  -49.7141 H         1 UNK         0.0600 
    204 H204        0.5471  -26.8710  -48.4124 H         1 UNK         0.0600 
    205 H205       -3.6201  -27.9818  -46.6148 H         1 UNK         0.3000 
    206 H206       -5.8062  -28.2252  -46.9221 H         1 UNK         0.0600 
    207 H207       -4.9596  -30.2750  -48.0975 H         1 UNK         0.0600 
    208 H208       -6.5006  -29.7443  -48.7463 H         1 UNK         0.0600 
    209 H209       -5.0188  -29.4157  -49.6359 H         1 UNK         0.0600 
    210 H210       -4.7133  -25.6597  -47.8250 H         1 UNK         0.3000 
    211 H211       -5.1105  -23.7690  -48.8561 H         1 UNK         0.0600 
    212 H212       -7.4297  -23.0421  -49.2509 H         1 UNK         0.0600 
    213 H213       -7.3446  -23.9470  -47.7493 H         1 UNK         0.0600 
    214 H214       -8.0055  -24.7015  -49.2003 H         1 UNK         0.0600 
    215 H215       -4.5762  -26.3403  -50.6056 H         1 UNK         0.3000 
    216 H216       -5.5851  -25.6379  -53.2279 H         1 UNK         0.0600 
    217 H217       -3.3290  -27.5398  -52.3864 H         1 UNK         0.0600 
    218 H218       -4.0665  -27.4568  -53.9817 H         1 UNK         0.0600 
    219 H219       -5.0211  -27.9817  -52.6022 H         1 UNK         0.0600 
    220 H220       -2.5061  -25.2125  -51.4790 H         1 UNK         0.3000 
    221 H221       -1.1721  -23.7615  -53.5960 H         1 UNK         0.0600 
    222 H222        0.1680  -24.9762  -51.9868 H         1 UNK         0.0600 
    223 H223       -0.5754  -24.1396  -50.6333 H         1 UNK         0.0600 
    224 H224        0.4858  -23.2657  -51.7366 H         1 UNK         0.0600 
    225 H225       -3.4017  -22.8423  -51.0314 H         1 UNK         0.3000 
    226 H226       -2.9336  -19.9912  -51.2109 H         1 UNK         0.0600 
    227 H227       -5.3742  -21.5158  -50.1434 H         1 UNK         0.0600 
    228 H228       -3.9874  -21.0152  -49.1842 H         1 UNK         0.0600 
    229 H229       -5.0364  -19.8126  -49.9097 H         1 UNK         0.0600 
    230 H230       -5.3325  -22.2521  -52.6391 H         1 UNK         0.3000 
    231 H231       -6.7223  -20.3534  -54.2148 H         1 UNK         0.0600 
    232 H232       -6.3404  -23.3680  -54.6268 H         1 UNK         0.0600 
    233 H233       -7.5566  -22.3761  -55.4228 H         1 UNK         0.0600 
    234 H234       -7.6142  -22.6030  -53.6809 H         1 UNK         0.0600 
    235 H235       -3.8834  -22.4091  -54.9853 H         1 UNK         0.3000 
    236 H236       -3.5207  -21.4109  -57.6631 H         1 UNK         0.0600 
    237 H237       -2.6426  -23.6123  -56.8748 H         1 UNK         0.0600 
    238 H238       -1.3456  -22.6005  -57.4942 H         1 UNK         0.0600 
    239 H239       -1.5544  -22.7887  -55.7582 H         1 UNK         0.0600 
    240 H240       -2.6145  -20.2035  -54.5142 H         1 UNK         0.3000 
    241 H241       -1.5402  -18.4937  -53.7161 H         1 UNK         0.0600 
    242 H242        1.6237  -20.1695  -54.4076 H         1 UNK         0.3800 
    243 H243        0.0038  -20.5542  -53.8454 H         1 UNK         0.3800 
    244 H244       -2.9065  -17.1847  -55.4699 H         1 UNK         0.0800 
    245 H245       -1.4523  -17.0934  -56.4199 H         1 UNK         0.0800 
    246 H246       -2.9544  -14.8283  -52.9456 H         1 UNK         0.0800 
    247 H247       -3.2140  -16.5383  -53.1694 H         1 UNK         0.0800 
@<TRIPOS>BOND
     1    1    2 1    
     2    1  127 1    
     3    1  128 1    
     4    1  129 1    
     5    2    3 2    
     6    2    4 am   BACKBONE|DICT|INTERRES
     7    4    5 1    
     8    4  130 1    
     9    5    6 1    
    10    5   65 1    
    11    5  131 1    
    12    6    7 1    
    13    6  132 1    
    14    6  133 1    
    15    7    8 1    
    16    8    9 1    
    17    8  134 1    
    18    8  135 1    
    19    9   10 ar   
    20    9   14 ar   
    21   10   11 ar   
    22   10  136 1    
    23   11   12 ar   
    24   11  126 1    
    25   12   13 ar   
    26   12  137 1    
    27   13   14 ar   
    28   13   15 1    
    29   14  138 1    
    30   15   16 1    
    31   15  139 1    
    32   15  140 1    
    33   16   17 1    
    34   17   18 1    
    35   17  141 1    
    36   17  142 1    
    37   18   19 1    
    38   18   67 1    
    39   18  143 1    
    40   19   20 am   BACKBONE|DICT|INTERRES
    41   19  144 1    
    42   20   21 2    
    43   20   22 1    
    44   22   23 1    
    45   22   24 1    
    46   22  145 1    
    47   23  146 1    
    48   23  147 1    
    49   23  148 1    
    50   24   25 am   BACKBONE|DICT|INTERRES
    51   24  149 1    
    52   25   26 2    
    53   25   27 1    
    54   27   28 1    
    55   27   29 1    
    56   27  150 1    
    57   28  151 1    
    58   28  152 1    
    59   28  153 1    
    60   29   30 am   BACKBONE|DICT|INTERRES
    61   29  154 1    
    62   30   31 2    
    63   30   32 1    
    64   32   33 1    
    65   32   34 1    
    66   32  155 1    
    67   33  156 1    
    68   33  157 1    
    69   33  158 1    
    70   34   35 am   BACKBONE|DICT|INTERRES
    71   34  159 1    
    72   35   36 2    
    73   35   37 1    
    74   37   38 1    
    75   37   39 1    
    76   37  160 1    
    77   38  161 1    
    78   38  162 1    
    79   38  163 1    
    80   39   40 am   BACKBONE|DICT|INTERRES
    81   39  164 1    
    82   40   41 2    
    83   40   42 1    
    84   42   43 1    
    85   42   44 1    
    86   42  165 1    
    87   43  166 1    
    88   43  167 1    
    89   43  168 1    
    90   44   45 am   BACKBONE|DICT|INTERRES
    91   44  169 1    
    92   45   46 2    
    93   45   47 1    
    94   47   48 1    
    95   47   49 1    
    96   47  170 1    
    97   48  171 1    
    98   48  172 1    
    99   48  173 1    
   100   49   50 am   BACKBONE|DICT|INTERRES
   101   49  174 1    
   102   50   51 2    
   103   50   52 1    
   104   52   53 1    
   105   52   54 1    
   106   52  175 1    
   107   53  176 1    
   108   53  177 1    
   109   53  178 1    
   110   54   55 am   BACKBONE|DICT|INTERRES
   111   54  179 1    
   112   55   56 2    
   113   55   57 1    
   114   57   58 1    
   115   57   59 1    
   116   57  180 1    
   117   58  181 1    
   118   58  182 1    
   119   58  183 1    
   120   59   60 am   BACKBONE|DICT|INTERRES
   121   59  184 1    
   122   60   61 2    
   123   60   62 1    
   124   62   63 1    
   125   62   64 1    
   126   62  185 1    
   127   63  186 1    
   128   63  187 1    
   129   63  188 1    
   130   64   65 am   BACKBONE|DICT|INTERRES
   131   64  189 1    
   132   65   66 2    
   133   67   68 2    
   134   67   69 am   BACKBONE|DICT|INTERRES
   135   69   70 1    
   136   69  190 1    
   137   70   71 1    
   138   70   72 1    
   139   70  191 1    
   140   71  192 1    
   141   71  193 1    
   142   71  194 1    
   143   72   73 2    
   144   72   74 am   BACKBONE|DICT|INTERRES
   145   74   75 1    
   146   74  195 1    
   147   75   76 1    
   148   75   77 1    
   149   75  196 1    
   150   76  197 1    
   151   76  198 1    
   152   76  199 1    
   153   77   78 2    
   154   77   79 am   BACKBONE|DICT|INTERRES
   155   79   80 1    
   156   79  200 1    
   157   80   81 1    
   158   80   82 1    
   159   80  201 1    
   160   81  202 1    
   161   81  203 1    
   162   81  204 1    
   163   82   83 2    
   164   82   84 am   BACKBONE|DICT|INTERRES
   165   84   85 1    
   166   84  205 1    
   167   85   86 1    
   168   85   87 1    
   169   85  206 1    
   170   86  207 1    
   171   86  208 1    
   172   86  209 1    
   173   87   88 2    
   174   87   89 am   BACKBONE|DICT|INTERRES
   175   89   90 1    
   176   89  210 1    
   177   90   91 1    
   178   90   92 1    
   179   90  211 1    
   180   91  212 1    
   181   91  213 1    
   182   91  214 1    
   183   92   93 2    
   184   92   94 am   BACKBONE|DICT|INTERRES
   185   94   95 1    
   186   94  215 1    
   187   95   96 1    
   188   95   97 1    
   189   95  216 1    
   190   96  217 1    
   191   96  218 1    
   192   96  219 1    
   193   97   98 2    
   194   97   99 am   BACKBONE|DICT|INTERRES
   195   99  100 1    
   196   99  220 1    
   197  100  101 1    
   198  100  102 1    
   199  100  221 1    
   200  101  222 1    
   201  101  223 1    
   202  101  224 1    
   203  102  103 2    
   204  102  104 am   BACKBONE|DICT|INTERRES
   205  104  105 1    
   206  104  225 1    
   207  105  106 1    
   208  105  107 1    
   209  105  226 1    
   210  106  227 1    
   211  106  228 1    
   212  106  229 1    
   213  107  108 2    
   214  107  109 am   BACKBONE|DICT|INTERRES
   215  109  110 1    
   216  109  230 1    
   217  110  111 1    
   218  110  112 1    
   219  110  231 1    
   220  111  232 1    
   221  111  233 1    
   222  111  234 1    
   223  112  113 2    
   224  112  114 am   BACKBONE|DICT|INTERRES
   225  114  115 1    
   226  114  235 1    
   227  115  116 1    
   228  115  117 1    
   229  115  236 1    
   230  116  237 1    
   231  116  238 1    
   232  116  239 1    
   233  117  118 2    
   234  117  119 am   BACKBONE|DICT|INTERRES
   235  119  120 1    
   236  119  240 1    
   237  120  121 1    
   238  120  124 1    
   239  120  241 1    
   240  121  122 am   BACKBONE|DICT|INTERRES
   241  121  123 2    
   242  122  242 1    
   243  122  243 1    
   244  124  125 1    
   245  124  244 1    
   246  124  245 1    
   247  125  126 1    
   248  126  246 1    
   249  126  247 1    
@<TRIPOS>SUBSTRUCTURE
     1 UNK         1 GROUP             0       ****    0 ROOT    
