@<TRIPOS>MOLECULE
3R540
247   249    1
SMALL
USER_CHARGES


@<TRIPOS>ATOM
      1 CA          5.5464  -13.7559  -46.4355 C.3       0 UNK        -0.1800 
      2 C           4.1794  -13.4068  -45.8679 C.2       0 UNK         0.5000 
      3 O           3.6800  -14.1190  -44.9993 O.2       0 UNK        -0.5000 
      4 N           3.5741  -12.3188  -46.3514 N.am      1 UNK        -0.5000 
      5 CA          2.2642  -11.8250  -45.9192 C.3       1 UNK         0.1400 
      6 C6          1.1433  -12.1180  -46.9497 C.3       23 UNK        -0.0398 
      7 S7          0.8570  -13.8995  -47.2294 S.3       23 UNK        -0.2404 
      8 C8          1.4628  -14.0835  -48.9357 C.3       23 UNK        -0.0205 
      9 C9          1.0063  -15.3922  -49.5635 C.ar      23 UNK        -0.0193 
     10 C10        -0.2691  -15.4877  -50.1289 C.ar      23 UNK        -0.1150 
     11 C11        -0.7023  -16.6707  -50.7370 C.ar      23 UNK        -0.0193 
     12 C12         0.1743  -17.7606  -50.7898 C.ar      23 UNK        -0.1150 
     13 C13         1.4493  -17.6846  -50.2196 C.ar      23 UNK        -0.0193 
     14 C14         1.8591  -16.4981  -49.6046 C.ar      23 UNK        -0.1150 
     15 C15         2.3868  -18.8826  -50.2802 C.3       23 UNK        -0.0205 
     16 S16         2.1599  -20.0040  -48.8632 S.3       23 UNK        -0.2404 
     17 C17         0.4804  -20.6313  -49.1915 C.3       23 UNK        -0.0398 
     18 CA          0.1515  -21.9395  -48.4432 C.3       11 UNK         0.1400 
     19 N           0.1486  -21.7671  -46.9903 N.am      11 UNK        -0.5000 
     20 C          -0.0006  -22.7545  -46.0975 C.2       10 UNK         0.5000 
     21 O          -0.1003  -23.9449  -46.3965 O.2       10 UNK        -0.5000 
     22 CA         -0.1088  -22.3296  -44.6244 C.3       10 UNK         0.1400 
     23 CB          1.2809  -22.0778  -44.0198 C.3       10 UNK        -0.1800 
     24 N          -0.9385  -21.1352  -44.4665 N.am      10 UNK        -0.5000 
     25 C          -2.2680  -21.1114  -44.6307 C.2       9 UNK         0.5000 
     26 O          -2.9408  -22.1044  -44.9092 O.2       9 UNK        -0.5000 
     27 CA         -2.9540  -19.7397  -44.4935 C.3       9 UNK         0.1400 
     28 CB         -3.1407  -19.3684  -43.0148 C.3       9 UNK        -0.1800 
     29 N          -2.2236  -18.6685  -45.1719 N.am      9 UNK        -0.5000 
     30 C          -2.0667  -18.5877  -46.5006 C.2       8 UNK         0.5000 
     31 O          -2.5221  -19.4062  -47.2957 O.2       8 UNK        -0.5000 
     32 CA         -1.2335  -17.4133  -47.0384 C.3       8 UNK         0.1400 
     33 CB         -2.1253  -16.1675  -47.1567 C.3       8 UNK        -0.1800 
     34 N          -0.0414  -17.0905  -46.2506 N.am      8 UNK        -0.5000 
     35 C           0.8825  -17.9544  -45.8024 C.2       7 UNK         0.5000 
     36 O           0.8180  -19.1733  -45.9546 O.2       7 UNK        -0.5000 
     37 CA          2.0695  -17.3715  -45.0153 C.3       7 UNK         0.1400 
     38 CB          3.2790  -17.1962  -45.9458 C.3       7 UNK        -0.1800 
     39 N           1.7944  -16.1011  -44.3372 N.am      7 UNK        -0.5000 
     40 C           0.8406  -15.8890  -43.4203 C.2       6 UNK         0.5000 
     41 O           0.0470  -16.7541  -43.0438 O.2       6 UNK        -0.5000 
     42 CA          0.8115  -14.4832  -42.8031 C.3       6 UNK         0.1400 
     43 CB         -0.3580  -14.2704  -41.8216 C.3       6 UNK        -0.1800 
     44 N           2.0848  -14.2475  -42.1293 N.am      6 UNK        -0.5000 
     45 C           2.6393  -13.0505  -41.9177 C.2       5 UNK         0.5000 
     46 O           2.1329  -11.9839  -42.2748 O.2       5 UNK        -0.5000 
     47 CA          4.0038  -13.0583  -41.2059 C.3       5 UNK         0.1400 
     48 CB          5.1592  -13.0825  -42.2183 C.3       5 UNK        -0.1800 
     49 N           4.1511  -11.8934  -40.3346 N.am      5 UNK        -0.5000 
     50 C           3.6494  -11.8211  -39.0933 C.2       4 UNK         0.5000 
     51 O           3.0143  -12.7370  -38.5676 O.2       4 UNK        -0.5000 
     52 CA          3.9182  -10.5413  -38.2752 C.3       4 UNK         0.1400 
     53 CB          4.9747  -10.8115  -37.1916 C.3       4 UNK        -0.1800 
     54 N           4.3665   -9.4114  -39.0883 N.am      4 UNK        -0.5000 
     55 C           3.5563   -8.6082  -39.7873 C.2       3 UNK         0.5000 
     56 O           2.3287   -8.7180  -39.7959 O.2       3 UNK        -0.5000 
     57 CA          4.2147   -7.4935  -40.6293 C.3       3 UNK         0.1400 
     58 CB          5.7419   -7.3545  -40.4293 C.3       3 UNK        -0.1800 
     59 N           3.8933   -7.6449  -42.0511 N.am      3 UNK        -0.5000 
     60 C           4.1497   -8.7136  -42.8175 C.2       2 UNK         0.5000 
     61 O           4.7677   -9.7111  -42.4343 O.2       2 UNK        -0.5000 
     62 CA          3.6448   -8.6421  -44.2632 C.3       2 UNK         0.1400 
     63 CB          4.6908   -7.9909  -45.1838 C.3       2 UNK        -0.1800 
     64 N           3.3566   -9.9936  -44.7263 N.am      2 UNK        -0.5000 
     65 C           2.4015  -10.3246  -45.6009 C.2       1 UNK         0.5000 
     66 O           1.6828   -9.4979  -46.1662 O.2       1 UNK        -0.5000 
     67 C          -1.1850  -22.5246  -48.9406 C.2       11 UNK         0.5000 
     68 O          -1.1716  -23.5097  -49.6758 O.2       11 UNK        -0.5000 
     69 N          -2.3125  -21.9532  -48.4885 N.am      12 UNK        -0.5000 
     70 CA         -3.6606  -22.4370  -48.7822 C.3       12 UNK         0.1400 
     71 CB         -4.7114  -21.4800  -48.2022 C.3       12 UNK        -0.1800 
     72 C          -3.9028  -23.8682  -48.2813 C.2       12 UNK         0.5000 
     73 O          -4.4613  -24.6687  -49.0286 O.2       12 UNK        -0.5000 
     74 N          -3.4531  -24.1800  -47.0572 N.am      13 UNK        -0.5000 
     75 CA         -3.5261  -25.5205  -46.4718 C.3       13 UNK         0.1400 
     76 CB         -3.0567  -25.4803  -45.0100 C.3       13 UNK        -0.1800 
     77 C          -2.7355  -26.5665  -47.2801 C.2       13 UNK         0.5000 
     78 O          -3.2672  -27.6418  -47.5606 O.2       13 UNK        -0.5000 
     79 N          -1.5080  -26.2127  -47.6890 N.am      14 UNK        -0.5000 
     80 CA         -0.6576  -27.0229  -48.5661 C.3       14 UNK         0.1400 
     81 CB          0.7405  -26.3919  -48.6468 C.3       14 UNK        -0.1800 
     82 C          -1.2562  -27.2136  -49.9746 C.2       14 UNK         0.5000 
     83 O          -1.1271  -28.2932  -50.5518 O.2       14 UNK        -0.5000 
     84 N          -1.9415  -26.1796  -50.4774 N.am      15 UNK        -0.5000 
     85 CA         -2.6716  -26.1574  -51.7451 C.3       15 UNK         0.1400 
     86 CB         -2.6804  -24.7152  -52.2810 C.3       15 UNK        -0.1800 
     87 C          -4.0996  -26.7418  -51.6496 C.2       15 UNK         0.5000 
     88 O          -4.9172  -26.4595  -52.5253 O.2       15 UNK        -0.5000 
     89 N          -4.3852  -27.5379  -50.6070 N.am      16 UNK        -0.5000 
     90 CA         -5.6321  -28.2743  -50.3663 C.3       16 UNK         0.1400 
     91 CB         -5.8191  -29.3803  -51.4266 C.3       16 UNK        -0.1800 
     92 C          -6.8607  -27.3507  -50.2334 C.2       16 UNK         0.5000 
     93 O          -7.8613  -27.5375  -50.9279 O.2       16 UNK        -0.5000 
     94 N          -6.7365  -26.3590  -49.3411 N.am      17 UNK        -0.5000 
     95 CA         -7.6778  -25.2638  -49.0815 C.3       17 UNK         0.1400 
     96 CB         -9.0474  -25.7859  -48.5975 C.3       17 UNK        -0.1800 
     97 C          -7.7684  -24.2920  -50.2758 C.2       17 UNK         0.5000 
     98 O          -8.8588  -23.8391  -50.6279 O.2       17 UNK        -0.5000 
     99 N          -6.5981  -23.9951  -50.8612 N.am      18 UNK        -0.5000 
    100 CA        -6.3631  -23.1337  -52.0224 C.3       18 UNK         0.1400 
    101 CB        -6.5817  -21.6516  -51.6534 C.3       18 UNK        -0.1800 
    102 C         -7.1679  -23.5756  -53.2606 C.2       18 UNK         0.5000 
    103 O         -7.9551  -22.7957  -53.8017 O.2       18 UNK        -0.5000 
    104 N         -6.9675  -24.8344  -53.6742 N.am      19 UNK        -0.5000 
    105 CA        -7.5577  -25.4277  -54.8722 C.3       19 UNK         0.1400 
    106 CB        -7.2371  -26.9307  -54.9048 C.3       19 UNK        -0.1800 
    107 C         -7.0462  -24.7099  -56.1351 C.2       19 UNK         0.5000 
    108 O         -5.8640  -24.8200  -56.4642 O.2       19 UNK        -0.5000 
    109 N         -7.9356  -23.9356  -56.7703 N.am      20 UNK        -0.5000 
    110 CA        -7.7210  -23.0062  -57.8887 C.3       20 UNK         0.1400 
    111 CB        -7.1060  -23.7046  -59.1173 C.3       20 UNK        -0.1800 
    112 C         -6.9360  -21.7320  -57.5099 C.2       20 UNK         0.5000 
    113 O         -7.3048  -20.6484  -57.9654 O.2       20 UNK        -0.5000 
    114 N         -5.8983  -21.8620  -56.6776 N.am      21 UNK        -0.5000 
    115 CA        -5.0781  -20.7780  -56.1471 C.3       21 UNK         0.1400 
    116 CB        -4.0793  -20.3003  -57.2189 C.3       21 UNK        -0.1800 
    117 C         -4.3417  -21.2679  -54.8913 C.2       21 UNK         0.5000 
    118 O         -4.2653  -22.4747  -54.6538 O.2       21 UNK        -0.5000 
    119 N         -3.7906  -20.3233  -54.1210 N.am      22 UNK        -0.5000 
    120 CA        -2.9325  -20.5849  -52.9512 C.3       22 UNK         0.1400 
    121 C         -1.4936  -21.0812  -53.2894 C.2       22 UNK         0.5000 
    122 N         -1.0655  -21.0999  -54.5459 N.am      22 UNK        -0.7600 
    123 O         -0.7522  -21.4648  -52.3927 O.2       22 UNK        -0.5000 
    124 C124       -2.9156  -19.3789  -51.9728 C.3       23 UNK        -0.0398 
    125 S125       -2.3546  -17.8156  -52.7429 S.3       23 UNK        -0.2404 
    126 C126       -2.1301  -16.7423  -51.2818 C.3       23 UNK        -0.0205 
    127 H127        6.2903  -13.7634  -45.6390 H         1 UNK         0.0600 
    128 H128        5.8655  -13.0418  -47.1950 H         1 UNK         0.0600 
    129 H129        5.5195  -14.7470  -46.8883 H         1 UNK         0.0600 
    130 H130        4.0425  -11.7513  -47.0440 H         1 UNK         0.3000 
    131 H131        1.9767  -12.2954  -44.9784 H         1 UNK         0.0600 
    132 H132        1.3603  -11.6226  -47.8971 H         1 UNK         0.0800 
    133 H133        0.1978  -11.6979  -46.6028 H         1 UNK         0.0800 
    134 H134        2.5517  -14.0155  -48.9378 H         1 UNK         0.0800 
    135 H135        1.1007  -13.2556  -49.5470 H         1 UNK         0.0800 
    136 H136       -0.9321  -14.6350  -50.0825 H         1 UNK         0.1150 
    137 H137       -0.1338  -18.6801  -51.2640 H         1 UNK         0.1150 
    138 H138        2.8452  -16.4334  -49.1670 H         1 UNK         0.1150 
    139 H139        2.2379  -19.4323  -51.2110 H         1 UNK         0.0800 
    140 H140        3.4229  -18.5413  -50.2937 H         1 UNK         0.0800 
    141 H141        0.4001  -20.7914  -50.2655 H         1 UNK         0.0800 
    142 H142       -0.2401  -19.8543  -48.9344 H         1 UNK         0.0800 
    143 H143        0.9292  -22.6685  -48.6811 H         1 UNK         0.0600 
    144 H144        0.2773  -20.8173  -46.6476 H         1 UNK         0.3000 
    145 H145       -0.5760  -23.1479  -44.0723 H         1 UNK         0.0600 
    146 H146        1.2102  -21.8241  -42.9620 H         1 UNK         0.0600 
    147 H147        1.9060  -22.9679  -44.0999 H         1 UNK         0.0600 
    148 H148        1.8029  -21.2648  -44.5256 H         1 UNK         0.0600 
    149 H149       -0.4511  -20.2596  -44.3350 H         1 UNK         0.3000 
    150 H150       -3.9422  -19.8171  -44.9521 H         1 UNK         0.0600 
    151 H151       -3.6864  -20.1483  -42.4819 H         1 UNK         0.0600 
    152 H152       -3.7099  -18.4446  -42.9099 H         1 UNK         0.0600 
    153 H153       -2.1839  -19.2311  -42.5091 H         1 UNK         0.0600 
    154 H154       -1.7810  -17.9710  -44.5891 H         1 UNK         0.3000 
    155 H155       -0.8893  -17.6876  -48.0357 H         1 UNK         0.0600 
    156 H156       -2.4443  -15.8068  -46.1781 H         1 UNK         0.0600 
    157 H157       -3.0233  -16.3829  -47.7375 H         1 UNK         0.0600 
    158 H158       -1.6112  -15.3518  -47.6602 H         1 UNK         0.0600 
    159 H159        0.1307  -16.1081  -46.0910 H         1 UNK         0.3000 
    160 H160        2.3331  -18.1005  -44.2467 H         1 UNK         0.0600 
    161 H161        4.1691  -16.9081  -45.3864 H         1 UNK         0.0600 
    162 H162        3.5104  -18.1239  -46.4712 H         1 UNK         0.0600 
    163 H163        3.0934  -16.4292  -46.6984 H         1 UNK         0.0600 
    164 H164        2.4252  -15.3330  -44.5688 H         1 UNK         0.3000 
    165 H165        0.6997  -13.7791  -43.6296 H         1 UNK         0.0600 
    166 H166       -0.3828  -13.2452  -41.4521 H         1 UNK         0.0600 
    167 H167       -1.3155  -14.4625  -42.3071 H         1 UNK         0.0600 
    168 H168       -0.2845  -14.9347  -40.9598 H         1 UNK         0.0600 
    169 H169        2.5832  -15.0799  -41.8456 H         1 UNK         0.3000 
    170 H170        4.0788  -13.9612  -40.5958 H         1 UNK         0.0600 
    171 H171        5.0799  -12.2757  -42.9466 H         1 UNK         0.0600 
    172 H172        6.1253  -12.9936  -41.7216 H         1 UNK         0.0600 
    173 H173        5.1672  -14.0219  -42.7716 H         1 UNK         0.0600 
    174 H174        4.5693  -11.0708  -40.7529 H         1 UNK         0.3000 
    175 H175        2.9851  -10.2714  -37.7759 H         1 UNK         0.0600 
    176 H176        5.9358  -11.0886  -37.6267 H         1 UNK         0.0600 
    177 H177        5.1299   -9.9337  -36.5640 H         1 UNK         0.0600 
    178 H178        4.6643  -11.6262  -36.5360 H         1 UNK         0.0600 
    179 H179        5.3637   -9.2648  -39.1505 H         1 UNK         0.3000 
    180 H180        3.7556   -6.5586  -40.3047 H         1 UNK         0.0600 
    181 H181        6.2858   -8.2479  -40.7378 H         1 UNK         0.0600 
    182 H182        5.9864   -7.1572  -39.3847 H         1 UNK         0.0600 
    183 H183        6.1327   -6.5185  -41.0094 H         1 UNK         0.0600 
    184 H184        3.3641   -6.8843  -42.4540 H         1 UNK         0.3000 
    185 H185        2.7290   -8.0470  -44.2760 H         1 UNK         0.0600 
    186 H186        4.9311   -6.9805  -44.8509 H         1 UNK         0.0600 
    187 H187        5.6200   -8.5619  -45.2007 H         1 UNK         0.0600 
    188 H188        4.3244   -7.9168  -46.2078 H         1 UNK         0.0600 
    189 H189        3.8761  -10.7201  -44.2498 H         1 UNK         0.3000 
    190 H190       -2.2556  -21.1203  -47.9062 H         1 UNK         0.3000 
    191 H191       -3.7763  -22.4437  -49.8674 H         1 UNK         0.0600 
    192 H192       -4.5989  -21.3642  -47.1237 H         1 UNK         0.0600 
    193 H193       -5.7220  -21.8455  -48.3894 H         1 UNK         0.0600 
    194 H194       -4.6352  -20.4915  -48.6553 H         1 UNK         0.0600 
    195 H195       -3.0392  -23.4532  -46.4831 H         1 UNK         0.3000 
    196 H196       -4.5749  -25.8244  -46.4784 H         1 UNK         0.0600 
    197 H197       -3.1235  -26.4675  -44.5513 H         1 UNK         0.0600 
    198 H198       -3.6732  -24.8043  -44.4175 H         1 UNK         0.0600 
    199 H199       -2.0220  -25.1485  -44.9255 H         1 UNK         0.0600 
    200 H200       -1.1316  -25.3171  -47.3908 H         1 UNK         0.3000 
    201 H201       -0.5583  -28.0113  -48.1130 H         1 UNK         0.0600 
    202 H202        1.1973  -26.3196  -47.6596 H         1 UNK         0.0600 
    203 H203        0.7061  -25.3885  -49.0719 H         1 UNK         0.0600 
    204 H204        1.4047  -26.9912  -49.2707 H         1 UNK         0.0600 
    205 H205       -1.9392  -25.3082  -49.9555 H         1 UNK         0.3000 
    206 H206       -2.1333  -26.7730  -52.4681 H         1 UNK         0.0600 
    207 H207       -1.6660  -24.3363  -52.4074 H         1 UNK         0.0600 
    208 H208       -3.1698  -24.6501  -53.2536 H         1 UNK         0.0600 
    209 H209       -3.2007  -24.0419  -51.6014 H         1 UNK         0.0600 
    210 H210       -3.6676  -27.6617  -49.9050 H         1 UNK         0.3000 
    211 H211       -5.5138  -28.7657  -49.3994 H         1 UNK         0.0600 
    212 H212       -5.9742  -28.9665  -52.4236 H         1 UNK         0.0600 
    213 H213       -6.6843  -30.0018  -51.1932 H         1 UNK         0.0600 
    214 H214       -4.9501  -30.0369  -51.4679 H         1 UNK         0.0600 
    215 H215       -5.8267  -26.2385  -48.9107 H         1 UNK         0.3000 
    216 H216       -7.2464  -24.6882  -48.2612 H         1 UNK         0.0600 
    217 H217       -9.6763  -24.9633  -48.2556 H         1 UNK         0.0600 
    218 H218       -8.9336  -26.4759  -47.7615 H         1 UNK         0.0600 
    219 H219       -9.5923  -26.3018  -49.3882 H         1 UNK         0.0600 
    220 H220       -5.7721  -24.4294  -50.4614 H         1 UNK         0.3000 
    221 H221       -5.3127  -23.2519  -52.2861 H         1 UNK         0.0600 
    222 H222       -7.6095  -21.4572  -51.3460 H         1 UNK         0.0600 
    223 H223       -5.9244  -21.3451  -50.8416 H         1 UNK         0.0600 
    224 H224       -6.3663  -21.0019  -52.5021 H         1 UNK         0.0600 
    225 H225       -6.2768  -25.4065  -53.1913 H         1 UNK         0.3000 
    226 H226       -8.6418  -25.3157  -54.8069 H         1 UNK         0.0600 
    227 H227       -7.6213  -27.4339  -54.0169 H         1 UNK         0.0600 
    228 H228       -7.6902  -27.4076  -55.7745 H         1 UNK         0.0600 
    229 H229       -6.1627  -27.1134  -54.9508 H         1 UNK         0.0600 
    230 H230       -8.8601  -23.8810  -56.3650 H         1 UNK         0.3000 
    231 H231       -8.7197  -22.6751  -58.1777 H         1 UNK         0.0600 
    232 H232       -7.6805  -24.5869  -59.3993 H         1 UNK         0.0600 
    233 H233       -6.0759  -24.0147  -58.9414 H         1 UNK         0.0600 
    234 H234       -7.0968  -23.0337  -59.9770 H         1 UNK         0.0600 
    235 H235       -5.6552  -22.7874  -56.3323 H         1 UNK         0.3000 
    236 H236       -5.7291  -19.9511  -55.8558 H         1 UNK         0.0600 
    237 H237       -3.4521  -19.4909  -56.8439 H         1 UNK         0.0600 
    238 H238       -3.4200  -21.1084  -57.5384 H         1 UNK         0.0600 
    239 H239       -4.5933  -19.9214  -58.1022 H         1 UNK         0.0600 
    240 H240       -3.8786  -19.3519  -54.3841 H         1 UNK         0.3000 
    241 H241       -3.3875  -21.4140  -52.4056 H         1 UNK         0.0600 
    242 H242       -0.1340  -21.4293  -54.7427 H         1 UNK         0.3800 
    243 H243       -1.6569  -20.7871  -55.2972 H         1 UNK         0.3800 
    244 H244       -3.9228  -19.2173  -51.5863 H         1 UNK         0.0800 
    245 H245       -2.3017  -19.6003  -51.0979 H         1 UNK         0.0800 
    246 H246       -2.7978  -17.0631  -50.4811 H         1 UNK         0.0800 
    247 H247       -2.4574  -15.7409  -51.5655 H         1 UNK         0.0800 
@<TRIPOS>BOND
     1    1    2 1    
     2    1  127 1    
     3    1  128 1    
     4    1  129 1    
     5    2    3 2    
     6    2    4 am   BACKBONE|DICT|INTERRES
     7    4    5 1    
     8    4  130 1    
     9    5    6 1    
    10    5   65 1    
    11    5  131 1    
    12    6    7 1    
    13    6  132 1    
    14    6  133 1    
    15    7    8 1    
    16    8    9 1    
    17    8  134 1    
    18    8  135 1    
    19    9   10 ar   
    20    9   14 ar   
    21   10   11 ar   
    22   10  136 1    
    23   11   12 ar   
    24   11  126 1    
    25   12   13 ar   
    26   12  137 1    
    27   13   14 ar   
    28   13   15 1    
    29   14  138 1    
    30   15   16 1    
    31   15  139 1    
    32   15  140 1    
    33   16   17 1    
    34   17   18 1    
    35   17  141 1    
    36   17  142 1    
    37   18   19 1    
    38   18   67 1    
    39   18  143 1    
    40   19   20 am   BACKBONE|DICT|INTERRES
    41   19  144 1    
    42   20   21 2    
    43   20   22 1    
    44   22   23 1    
    45   22   24 1    
    46   22  145 1    
    47   23  146 1    
    48   23  147 1    
    49   23  148 1    
    50   24   25 am   BACKBONE|DICT|INTERRES
    51   24  149 1    
    52   25   26 2    
    53   25   27 1    
    54   27   28 1    
    55   27   29 1    
    56   27  150 1    
    57   28  151 1    
    58   28  152 1    
    59   28  153 1    
    60   29   30 am   BACKBONE|DICT|INTERRES
    61   29  154 1    
    62   30   31 2    
    63   30   32 1    
    64   32   33 1    
    65   32   34 1    
    66   32  155 1    
    67   33  156 1    
    68   33  157 1    
    69   33  158 1    
    70   34   35 am   BACKBONE|DICT|INTERRES
    71   34  159 1    
    72   35   36 2    
    73   35   37 1    
    74   37   38 1    
    75   37   39 1    
    76   37  160 1    
    77   38  161 1    
    78   38  162 1    
    79   38  163 1    
    80   39   40 am   BACKBONE|DICT|INTERRES
    81   39  164 1    
    82   40   41 2    
    83   40   42 1    
    84   42   43 1    
    85   42   44 1    
    86   42  165 1    
    87   43  166 1    
    88   43  167 1    
    89   43  168 1    
    90   44   45 am   BACKBONE|DICT|INTERRES
    91   44  169 1    
    92   45   46 2    
    93   45   47 1    
    94   47   48 1    
    95   47   49 1    
    96   47  170 1    
    97   48  171 1    
    98   48  172 1    
    99   48  173 1    
   100   49   50 am   BACKBONE|DICT|INTERRES
   101   49  174 1    
   102   50   51 2    
   103   50   52 1    
   104   52   53 1    
   105   52   54 1    
   106   52  175 1    
   107   53  176 1    
   108   53  177 1    
   109   53  178 1    
   110   54   55 am   BACKBONE|DICT|INTERRES
   111   54  179 1    
   112   55   56 2    
   113   55   57 1    
   114   57   58 1    
   115   57   59 1    
   116   57  180 1    
   117   58  181 1    
   118   58  182 1    
   119   58  183 1    
   120   59   60 am   BACKBONE|DICT|INTERRES
   121   59  184 1    
   122   60   61 2    
   123   60   62 1    
   124   62   63 1    
   125   62   64 1    
   126   62  185 1    
   127   63  186 1    
   128   63  187 1    
   129   63  188 1    
   130   64   65 am   BACKBONE|DICT|INTERRES
   131   64  189 1    
   132   65   66 2    
   133   67   68 2    
   134   67   69 am   BACKBONE|DICT|INTERRES
   135   69   70 1    
   136   69  190 1    
   137   70   71 1    
   138   70   72 1    
   139   70  191 1    
   140   71  192 1    
   141   71  193 1    
   142   71  194 1    
   143   72   73 2    
   144   72   74 am   BACKBONE|DICT|INTERRES
   145   74   75 1    
   146   74  195 1    
   147   75   76 1    
   148   75   77 1    
   149   75  196 1    
   150   76  197 1    
   151   76  198 1    
   152   76  199 1    
   153   77   78 2    
   154   77   79 am   BACKBONE|DICT|INTERRES
   155   79   80 1    
   156   79  200 1    
   157   80   81 1    
   158   80   82 1    
   159   80  201 1    
   160   81  202 1    
   161   81  203 1    
   162   81  204 1    
   163   82   83 2    
   164   82   84 am   BACKBONE|DICT|INTERRES
   165   84   85 1    
   166   84  205 1    
   167   85   86 1    
   168   85   87 1    
   169   85  206 1    
   170   86  207 1    
   171   86  208 1    
   172   86  209 1    
   173   87   88 2    
   174   87   89 am   BACKBONE|DICT|INTERRES
   175   89   90 1    
   176   89  210 1    
   177   90   91 1    
   178   90   92 1    
   179   90  211 1    
   180   91  212 1    
   181   91  213 1    
   182   91  214 1    
   183   92   93 2    
   184   92   94 am   BACKBONE|DICT|INTERRES
   185   94   95 1    
   186   94  215 1    
   187   95   96 1    
   188   95   97 1    
   189   95  216 1    
   190   96  217 1    
   191   96  218 1    
   192   96  219 1    
   193   97   98 2    
   194   97   99 am   BACKBONE|DICT|INTERRES
   195   99  100 1    
   196   99  220 1    
   197  100  101 1    
   198  100  102 1    
   199  100  221 1    
   200  101  222 1    
   201  101  223 1    
   202  101  224 1    
   203  102  103 2    
   204  102  104 am   BACKBONE|DICT|INTERRES
   205  104  105 1    
   206  104  225 1    
   207  105  106 1    
   208  105  107 1    
   209  105  226 1    
   210  106  227 1    
   211  106  228 1    
   212  106  229 1    
   213  107  108 2    
   214  107  109 am   BACKBONE|DICT|INTERRES
   215  109  110 1    
   216  109  230 1    
   217  110  111 1    
   218  110  112 1    
   219  110  231 1    
   220  111  232 1    
   221  111  233 1    
   222  111  234 1    
   223  112  113 2    
   224  112  114 am   BACKBONE|DICT|INTERRES
   225  114  115 1    
   226  114  235 1    
   227  115  116 1    
   228  115  117 1    
   229  115  236 1    
   230  116  237 1    
   231  116  238 1    
   232  116  239 1    
   233  117  118 2    
   234  117  119 am   BACKBONE|DICT|INTERRES
   235  119  120 1    
   236  119  240 1    
   237  120  121 1    
   238  120  124 1    
   239  120  241 1    
   240  121  122 am   BACKBONE|DICT|INTERRES
   241  121  123 2    
   242  122  242 1    
   243  122  243 1    
   244  124  125 1    
   245  124  244 1    
   246  124  245 1    
   247  125  126 1    
   248  126  246 1    
   249  126  247 1    
@<TRIPOS>SUBSTRUCTURE
     1 UNK         1 GROUP             0       ****    0 ROOT    
