@<TRIPOS>MOLECULE
3R540
247   249    1
SMALL
USER_CHARGES


@<TRIPOS>ATOM
      1 CA         -1.9702  -10.8410  -49.8349 C.3       0 UNK        -0.1800 
      2 C          -0.6105  -10.8627  -49.1520 C.2       0 UNK         0.5000 
      3 O          -0.1307   -9.8229  -48.6986 O.2       0 UNK        -0.5000 
      4 N           0.0089  -12.0452  -49.0606 N.am      1 UNK        -0.5000 
      5 CA          1.3061  -12.2951  -48.4234 C.3       1 UNK         0.1400 
      6 C6          2.0337  -13.5083  -49.0709 C.3       23 UNK        -0.0398 
      7 S7          1.1531  -15.1081  -48.9529 S.3       23 UNK        -0.2404 
      8 C8          0.2608  -15.1866  -50.5345 C.3       23 UNK        -0.0205 
      9 C9         -0.7817  -16.2902  -50.4862 C.ar      23 UNK        -0.0193 
     10 C10        -0.5978  -17.4754  -51.2012 C.ar      23 UNK        -0.1150 
     11 C11        -1.5381  -18.5067  -51.1203 C.ar      23 UNK        -0.0193 
     12 C12        -2.6675  -18.3450  -50.3090 C.ar      23 UNK        -0.1150 
     13 C13        -2.8619  -17.1624  -49.5896 C.ar      23 UNK        -0.0193 
     14 C14        -1.9211  -16.1355  -49.6927 C.ar      23 UNK        -0.1150 
     15 C15        -4.0736  -16.9796  -48.6894 C.3       23 UNK        -0.0205 
     16 S16        -3.6620  -17.3245  -46.9498 S.3       23 UNK        -0.2404 
     17 C17        -4.2600  -19.0351  -46.7179 C.3       23 UNK        -0.0398 
     18 CA         -3.2319  -20.1332  -47.0876 C.3       11 UNK         0.1400 
     19 N          -1.8963  -19.8864  -46.5369 N.am      11 UNK        -0.5000 
     20 C          -0.7910  -20.5250  -46.9427 C.2       10 UNK         0.5000 
     21 O          -0.7883  -21.4027  -47.8053 O.2       10 UNK        -0.5000 
     22 CA          0.5292  -20.1508  -46.2433 C.3       10 UNK         0.1400 
     23 CB          1.1556  -18.9182  -46.9142 C.3       10 UNK        -0.1800 
     24 N           0.4307  -19.9238  -44.7960 N.am      10 UNK        -0.5000 
     25 C          -0.1167  -20.7644  -43.9023 C.2       9 UNK         0.5000 
     26 O          -0.7334  -21.7853  -44.2098 O.2       9 UNK        -0.5000 
     27 CA          0.0814  -20.4050  -42.4157 C.3       9 UNK         0.1400 
     28 CB         -0.3066  -21.5472  -41.4542 C.3       9 UNK        -0.1800 
     29 N           1.4402  -19.9328  -42.1426 N.am      9 UNK        -0.5000 
     30 C           2.5921  -20.6005  -42.3133 C.2       8 UNK         0.5000 
     31 O           2.6638  -21.7763  -42.6723 O.2       8 UNK        -0.5000 
     32 CA          3.8922  -19.8189  -42.0461 C.3       8 UNK         0.1400 
     33 CB          4.6676  -19.5727  -43.3518 C.3       8 UNK        -0.1800 
     34 N           3.6441  -18.5365  -41.3795 N.am      8 UNK        -0.5000 
     35 C           3.6130  -18.3829  -40.0496 C.2       7 UNK         0.5000 
     36 O           3.7947  -19.3016  -39.2495 O.2       7 UNK        -0.5000 
     37 CA          3.3440  -16.9670  -39.5195 C.3       7 UNK         0.1400 
     38 CB          4.6286  -16.1248  -39.5655 C.3       7 UNK        -0.1800 
     39 N           2.2711  -16.2660  -40.2289 N.am      7 UNK        -0.5000 
     40 C           0.9664  -16.4819  -40.0061 C.2       6 UNK         0.5000 
     41 O           0.5365  -17.4243  -39.3405 O.2       6 UNK        -0.5000 
     42 CA         -0.0215  -15.4482  -40.5760 C.3       6 UNK         0.1400 
     43 CB          0.2508  -14.0466  -40.0043 C.3       6 UNK        -0.1800 
     44 N           0.0177  -15.3943  -42.0325 N.am      6 UNK        -0.5000 
     45 C          -0.6339  -16.2370  -42.8449 C.2       5 UNK         0.5000 
     46 O          -1.3903  -17.1243  -42.4516 O.2       5 UNK        -0.5000 
     47 CA         -0.3708  -16.0865  -44.3561 C.3       5 UNK         0.1400 
     48 CB         -1.3401  -15.0781  -44.9875 C.3       5 UNK        -0.1800 
     49 N           1.0042  -15.6860  -44.6518 N.am      5 UNK        -0.5000 
     50 C           2.0891  -16.4041  -44.3390 C.2       4 UNK         0.5000 
     51 O           2.0363  -17.5212  -43.8255 O.2       4 UNK        -0.5000 
     52 CA          3.4553  -15.7509  -44.6002 C.3       4 UNK         0.1400 
     53 CB          3.9111  -15.9996  -46.0445 C.3       4 UNK        -0.1800 
     54 N           3.4355  -14.3123  -44.3322 N.am      4 UNK        -0.5000 
     55 C           3.4244  -13.7698  -43.1077 C.2       3 UNK         0.5000 
     56 O           3.4278  -14.4301  -42.0698 O.2       3 UNK        -0.5000 
     57 CA          3.3626  -12.2333  -43.0283 C.3       3 UNK         0.1400 
     58 CB          4.7382  -11.6162  -43.3224 C.3       3 UNK        -0.1800 
     59 N           2.3653  -11.6581  -43.9313 N.am      3 UNK        -0.5000 
     60 C           1.0443  -11.8440  -43.8076 C.2       2 UNK         0.5000 
     61 O           0.5292  -12.5012  -42.9035 O.2       2 UNK        -0.5000 
     62 CA          0.1441  -11.2243  -44.8938 C.3       2 UNK         0.1400 
     63 CB         -0.1577   -9.7547  -44.5644 C.3       2 UNK        -0.1800 
     64 N           0.6397  -11.3130  -46.2731 N.am      2 UNK        -0.5000 
     65 C           1.1437  -12.3930  -46.8877 C.2       1 UNK         0.5000 
     66 O           1.4346  -13.4321  -46.2983 O.2       1 UNK        -0.5000 
     67 C          -3.7666  -21.5224  -46.6828 C.2       11 UNK         0.5000 
     68 O          -4.3495  -22.2193  -47.5147 O.2       11 UNK        -0.5000 
     69 N          -3.5414  -21.9075  -45.4185 N.am      12 UNK        -0.5000 
     70 CA         -3.9425  -23.1979  -44.8577 C.3       12 UNK         0.1400 
     71 CB         -3.8841  -23.1373  -43.3247 C.3       12 UNK        -0.1800 
     72 C          -3.0767  -24.3483  -45.3946 C.2       12 UNK         0.5000 
     73 O          -3.6114  -25.4103  -45.7134 O.2       12 UNK        -0.5000 
     74 N          -1.7686  -24.0955  -45.5457 N.am      13 UNK        -0.5000 
     75 CA         -0.7982  -25.0015  -46.1669 C.3       13 UNK         0.1400 
     76 CB          0.6093  -24.4023  -46.0297 C.3       13 UNK        -0.1800 
     77 C          -1.1211  -25.3042  -47.6443 C.2       13 UNK         0.5000 
     78 O          -0.8580  -26.4111  -48.1138 O.2       13 UNK        -0.5000 
     79 N          -1.7368  -24.3313  -48.3274 N.am      14 UNK        -0.5000 
     80 CA         -2.2705  -24.4350  -49.6840 C.3       14 UNK         0.1400 
     81 CB         -2.1900  -23.0497  -50.3381 C.3       14 UNK        -0.1800 
     82 C          -3.7047  -25.0052  -49.7400 C.2       14 UNK         0.5000 
     83 O          -4.3596  -24.8653  -50.7736 O.2       14 UNK        -0.5000 
     84 N          -4.1737  -25.6253  -48.6459 N.am      15 UNK        -0.5000 
     85 CA         -5.4703  -26.2910  -48.4833 C.3       15 UNK         0.1400 
     86 CB         -5.5642  -27.5344  -49.3923 C.3       15 UNK        -0.1800 
     87 C          -6.6569  -25.3215  -48.6464 C.2       15 UNK         0.5000 
     88 O          -7.5802  -25.5917  -49.4151 O.2       15 UNK        -0.5000 
     89 N          -6.5856  -24.1985  -47.9173 N.am      16 UNK        -0.5000 
     90 CA         -7.5091  -23.0587  -47.9499 C.3       16 UNK         0.1400 
     91 CB         -8.9378  -23.4653  -47.5302 C.3       16 UNK        -0.1800 
     92 C          -7.4434  -22.3200  -49.3012 C.2       16 UNK         0.5000 
     93 O          -8.4754  -22.0111  -49.8996 O.2       16 UNK        -0.5000 
     94 N          -6.2039  -22.0570  -49.7392 N.am      17 UNK        -0.5000 
     95 CA         -5.8144  -21.3606  -50.9679 C.3       17 UNK         0.1400 
     96 CB         -6.1969  -19.8701  -50.8808 C.3       17 UNK        -0.1800 
     97 C          -6.3280  -22.0399  -52.2560 C.2       17 UNK         0.5000 
     98 O          -6.7584  -21.3583  -53.1883 O.2       17 UNK        -0.5000 
     99 N          -6.2807  -23.3773  -52.2820 N.am      18 UNK        -0.5000 
    100 CA        -6.6965  -24.1995  -53.4175 C.3       18 UNK         0.1400 
    101 CB        -7.1612  -25.5668  -52.8946 C.3       18 UNK        -0.1800 
    102 C         -5.5775  -24.3763  -54.4606 C.2       18 UNK         0.5000 
    103 O         -5.8746  -24.7204  -55.6060 O.2       18 UNK        -0.5000 
    104 N         -4.3182  -24.1637  -54.0529 N.am      19 UNK        -0.5000 
    105 CA        -3.1333  -24.2693  -54.9038 C.3       19 UNK         0.1400 
    106 CB        -1.8742  -24.1774  -54.0273 C.3       19 UNK        -0.1800 
    107 C         -3.0978  -23.1913  -56.0041 C.2       19 UNK         0.5000 
    108 O         -3.5199  -22.0559  -55.7766 O.2       19 UNK        -0.5000 
    109 N         -2.5390  -23.5537  -57.1658 N.am      20 UNK        -0.5000 
    110 CA        -2.3880  -22.6752  -58.3316 C.3       20 UNK         0.1400 
    111 CB        -2.0073  -23.5314  -59.5497 C.3       20 UNK        -0.1800 
    112 C         -1.3648  -21.5375  -58.1306 C.2       20 UNK         0.5000 
    113 O         -1.3892  -20.5618  -58.8813 O.2       20 UNK        -0.5000 
    114 N         -0.4856  -21.6820  -57.1298 N.am      21 UNK        -0.5000 
    115 CA         0.5217  -20.6947  -56.7416 C.3       21 UNK         0.1400 
    116 CB         1.5569  -21.3834  -55.8380 C.3       21 UNK        -0.1800 
    117 C         -0.0636  -19.4556  -56.0337 C.2       21 UNK         0.5000 
    118 O          0.6085  -18.4244  -55.9835 O.2       21 UNK        -0.5000 
    119 N         -1.2759  -19.5766  -55.4776 N.am      22 UNK        -0.5000 
    120 CA        -1.9757  -18.5029  -54.7592 C.3       22 UNK         0.1400 
    121 C         -2.4582  -17.3596  -55.6943 C.2       22 UNK         0.5000 
    122 N         -2.4785  -16.1245  -55.2113 N.am      22 UNK        -0.7600 
    123 O         -2.8553  -17.5831  -56.8358 O.2       22 UNK        -0.5000 
    124 C124       -3.1597  -19.0499  -53.9222 C.3       23 UNK        -0.0398 
    125 S125       -2.7410  -20.4223  -52.7914 S.3       23 UNK        -0.2404 
    126 C126       -1.2897  -19.8068  -51.8741 C.3       23 UNK        -0.0205 
    127 H127       -2.7313  -10.4798  -49.1433 H         1 UNK         0.0600 
    128 H128       -1.9463  -10.1739  -50.6965 H         1 UNK         0.0600 
    129 H129       -2.2666  -11.8320  -50.1799 H         1 UNK         0.0600 
    130 H130       -0.4598  -12.8716  -49.4001 H         1 UNK         0.3000 
    131 H131        1.9437  -11.4266  -48.6021 H         1 UNK         0.0600 
    132 H132        3.0153  -13.6356  -48.6117 H         1 UNK         0.0800 
    133 H133        2.2340  -13.2954  -50.1218 H         1 UNK         0.0800 
    134 H134        0.9739  -15.3562  -51.3427 H         1 UNK         0.0800 
    135 H135       -0.2308  -14.2377  -50.7474 H         1 UNK         0.0800 
    136 H136        0.2889  -17.6017  -51.8066 H         1 UNK         0.1150 
    137 H137       -3.3896  -19.1442  -50.2350 H         1 UNK         0.1150 
    138 H138       -2.0595  -15.2251  -49.1267 H         1 UNK         0.1150 
    139 H139       -4.9056  -17.5981  -49.0214 H         1 UNK         0.0800 
    140 H140       -4.4225  -15.9486  -48.7637 H         1 UNK         0.0800 
    141 H141       -4.5426  -19.1222  -45.6671 H         1 UNK         0.0800 
    142 H142       -5.1830  -19.1726  -47.2838 H         1 UNK         0.0800 
    143 H143       -3.1355  -20.1412  -48.1736 H         1 UNK         0.0600 
    144 H144       -1.8184  -19.1685  -45.8328 H         1 UNK         0.3000 
    145 H145        1.2127  -20.9905  -46.3815 H         1 UNK         0.0600 
    146 H146        2.1488  -18.7156  -46.5147 H         1 UNK         0.0600 
    147 H147        1.2646  -19.0697  -47.9891 H         1 UNK         0.0600 
    148 H148        0.5464  -18.0248  -46.7738 H         1 UNK         0.0600 
    149 H149        0.9448  -19.1261  -44.4355 H         1 UNK         0.3000 
    150 H150       -0.5838  -19.5680  -42.2091 H         1 UNK         0.0600 
    151 H151       -1.3673  -21.7826  -41.5389 H         1 UNK         0.0600 
    152 H152       -0.1204  -21.2688  -40.4169 H         1 UNK         0.0600 
    153 H153        0.2495  -22.4618  -41.6621 H         1 UNK         0.0600 
    154 H154        1.5180  -18.9581  -41.8884 H         1 UNK         0.3000 
    155 H155        4.5194  -20.4456  -41.4085 H         1 UNK         0.0600 
    156 H156        4.9546  -20.5176  -43.8145 H         1 UNK         0.0600 
    157 H157        5.5840  -19.0119  -43.1673 H         1 UNK         0.0600 
    158 H158        4.0794  -19.0226  -44.0847 H         1 UNK         0.0600 
    159 H159        3.4379  -17.7461  -41.9753 H         1 UNK         0.3000 
    160 H160        3.0522  -17.0591  -38.4708 H         1 UNK         0.0600 
    161 H161        5.0047  -16.0148  -40.5832 H         1 UNK         0.0600 
    162 H162        4.4615  -15.1266  -39.1606 H         1 UNK         0.0600 
    163 H163        5.4192  -16.5880  -38.9740 H         1 UNK         0.0600 
    164 H164        2.5606  -15.4993  -40.8328 H         1 UNK         0.3000 
    165 H165       -1.0256  -15.7397  -40.2601 H         1 UNK         0.0600 
    166 H166       -0.5174  -13.3404  -40.3199 H         1 UNK         0.0600 
    167 H167        0.2507  -14.0610  -38.9137 H         1 UNK         0.0600 
    168 H168        1.2144  -13.6524  -40.3293 H         1 UNK         0.0600 
    169 H169        0.5797  -14.6595  -42.4446 H         1 UNK         0.3000 
    170 H170       -0.5441  -17.0589  -44.8199 H         1 UNK         0.0600 
    171 H171       -2.3760  -15.3743  -44.8188 H         1 UNK         0.0600 
    172 H172       -1.2109  -14.0822  -44.5657 H         1 UNK         0.0600 
    173 H173       -1.1913  -15.0101  -46.0658 H         1 UNK         0.0600 
    174 H174        1.1350  -14.7979  -45.1328 H         1 UNK         0.3000 
    175 H175        4.1815  -16.2178  -43.9313 H         1 UNK         0.0600 
    176 H176        3.2162  -15.5691  -46.7656 H         1 UNK         0.0600 
    177 H177        4.8950  -15.5677  -46.2277 H         1 UNK         0.0600 
    178 H178        3.9816  -17.0676  -46.2529 H         1 UNK         0.0600 
    179 H179        3.3041  -13.7076  -45.1319 H         1 UNK         0.3000 
    180 H180        3.0845  -11.9671  -42.0061 H         1 UNK         0.0600 
    181 H181        5.4982  -12.0211  -42.6526 H         1 UNK         0.0600 
    182 H182        5.0613  -11.8157  -44.3448 H         1 UNK         0.0600 
    183 H183        4.7235  -10.5355  -43.1798 H         1 UNK         0.0600 
    184 H184        2.7054  -11.1186  -44.7135 H         1 UNK         0.3000 
    185 H185       -0.8014  -11.7680  -44.8707 H         1 UNK         0.0600 
    186 H186       -0.5544   -9.6524  -43.5533 H         1 UNK         0.0600 
    187 H187        0.7383   -9.1364  -44.6307 H         1 UNK         0.0600 
    188 H188       -0.9012   -9.3419  -45.2467 H         1 UNK         0.0600 
    189 H189        0.4239  -10.5210  -46.8697 H         1 UNK         0.3000 
    190 H190       -2.9739  -21.3183  -44.8256 H         1 UNK         0.3000 
    191 H191       -4.9772  -23.3913  -45.1486 H         1 UNK         0.0600 
    192 H192       -4.2354  -24.0718  -42.8854 H         1 UNK         0.0600 
    193 H193       -4.5147  -22.3377  -42.9359 H         1 UNK         0.0600 
    194 H194       -2.8687  -22.9701  -42.9663 H         1 UNK         0.0600 
    195 H195       -1.4077  -23.2060  -45.2064 H         1 UNK         0.3000 
    196 H196       -0.8262  -25.9458  -45.6196 H         1 UNK         0.0600 
    197 H197        1.3629  -25.0766  -46.4381 H         1 UNK         0.0600 
    198 H198        0.8629  -24.2232  -44.9844 H         1 UNK         0.0600 
    199 H199        0.6942  -23.4538  -46.5604 H         1 UNK         0.0600 
    200 H200       -1.8674  -23.4382  -47.8690 H         1 UNK         0.3000 
    201 H201       -1.6425  -25.1138  -50.2642 H         1 UNK         0.0600 
    202 H202       -1.1545  -22.7158  -50.3923 H         1 UNK         0.0600 
    203 H203       -2.7539  -22.3033  -49.7788 H         1 UNK         0.0600 
    204 H204       -2.5792  -23.0636  -51.3550 H         1 UNK         0.0600 
    205 H205       -3.5858  -25.6386  -47.8211 H         1 UNK         0.3000 
    206 H206       -5.5065  -26.6419  -47.4510 H         1 UNK         0.0600 
    207 H207       -4.7345  -28.2173  -49.2102 H         1 UNK         0.0600 
    208 H208       -6.4856  -28.0866  -49.2043 H         1 UNK         0.0600 
    209 H209       -5.5527  -27.2695  -50.4492 H         1 UNK         0.0600 
    210 H210       -5.7410  -24.0452  -47.3823 H         1 UNK         0.3000 
    211 H211       -7.1447  -22.3529  -47.2020 H         1 UNK         0.0600 
    212 H212       -9.4142  -24.1127  -48.2665 H         1 UNK         0.0600 
    213 H213       -9.5720  -22.5855  -47.4159 H         1 UNK         0.0600 
    214 H214       -8.9340  -23.9889  -46.5743 H         1 UNK         0.0600 
    215 H215       -5.4389  -22.3361  -49.1321 H         1 UNK         0.3000 
    216 H216       -4.7281  -21.4222  -51.0015 H         1 UNK         0.0600 
    217 H217       -5.8633  -19.4379  -49.9397 H         1 UNK         0.0600 
    218 H218       -5.7346  -19.3001  -51.6877 H         1 UNK         0.0600 
    219 H219       -7.2754  -19.7249  -50.9493 H         1 UNK         0.0600 
    220 H220       -5.8589  -23.8738  -51.5020 H         1 UNK         0.3000 
    221 H221       -7.5435  -23.7243  -53.9166 H         1 UNK         0.0600 
    222 H222       -6.3548  -26.0958  -52.3863 H         1 UNK         0.0600 
    223 H223       -7.9869  -25.4593  -52.1910 H         1 UNK         0.0600 
    224 H224       -7.5090  -26.2018  -53.7102 H         1 UNK         0.0600 
    225 H225       -4.1709  -23.8904  -53.0922 H         1 UNK         0.3000 
    226 H226       -3.1542  -25.2535  -55.3765 H         1 UNK         0.0600 
    227 H227       -1.8970  -24.9098  -53.2200 H         1 UNK         0.0600 
    228 H228       -0.9754  -24.3698  -54.6140 H         1 UNK         0.0600 
    229 H229       -1.7648  -23.1882  -53.5824 H         1 UNK         0.0600 
    230 H230       -2.2037  -24.5003  -57.2748 H         1 UNK         0.3000 
    231 H231       -3.3551  -22.2087  -58.5310 H         1 UNK         0.0600 
    232 H232       -1.0523  -24.0375  -59.4031 H         1 UNK         0.0600 
    233 H233       -2.7635  -24.2904  -59.7511 H         1 UNK         0.0600 
    234 H234       -1.9190  -22.9179  -60.4474 H         1 UNK         0.0600 
    235 H235       -0.5331  -22.5228  -56.5747 H         1 UNK         0.3000 
    236 H236        1.0301  -20.3484  -57.6439 H         1 UNK         0.0600 
    237 H237        1.1019  -21.7612  -54.9212 H         1 UNK         0.0600 
    238 H238        2.0322  -22.2213  -56.3484 H         1 UNK         0.0600 
    239 H239        2.3479  -20.6898  -55.5497 H         1 UNK         0.0600 
    240 H240       -1.7863  -20.4432  -55.5831 H         1 UNK         0.3000 
    241 H241       -1.2547  -18.0596  -54.0711 H         1 UNK         0.0600 
    242 H242       -2.8040  -15.3749  -55.8021 H         1 UNK         0.3800 
    243 H243       -2.1689  -15.9153  -54.2749 H         1 UNK         0.3800 
    244 H244       -3.9527  -19.4077  -54.5818 H         1 UNK         0.0800 
    245 H245       -3.6019  -18.2508  -53.3249 H         1 UNK         0.0800 
    246 H246       -0.9873  -20.5592  -51.1476 H         1 UNK         0.0800 
    247 H247       -0.4518  -19.7076  -52.5653 H         1 UNK         0.0800 
@<TRIPOS>BOND
     1    1    2 1    
     2    1  127 1    
     3    1  128 1    
     4    1  129 1    
     5    2    3 2    
     6    2    4 am   BACKBONE|DICT|INTERRES
     7    4    5 1    
     8    4  130 1    
     9    5    6 1    
    10    5   65 1    
    11    5  131 1    
    12    6    7 1    
    13    6  132 1    
    14    6  133 1    
    15    7    8 1    
    16    8    9 1    
    17    8  134 1    
    18    8  135 1    
    19    9   10 ar   
    20    9   14 ar   
    21   10   11 ar   
    22   10  136 1    
    23   11   12 ar   
    24   11  126 1    
    25   12   13 ar   
    26   12  137 1    
    27   13   14 ar   
    28   13   15 1    
    29   14  138 1    
    30   15   16 1    
    31   15  139 1    
    32   15  140 1    
    33   16   17 1    
    34   17   18 1    
    35   17  141 1    
    36   17  142 1    
    37   18   19 1    
    38   18   67 1    
    39   18  143 1    
    40   19   20 am   BACKBONE|DICT|INTERRES
    41   19  144 1    
    42   20   21 2    
    43   20   22 1    
    44   22   23 1    
    45   22   24 1    
    46   22  145 1    
    47   23  146 1    
    48   23  147 1    
    49   23  148 1    
    50   24   25 am   BACKBONE|DICT|INTERRES
    51   24  149 1    
    52   25   26 2    
    53   25   27 1    
    54   27   28 1    
    55   27   29 1    
    56   27  150 1    
    57   28  151 1    
    58   28  152 1    
    59   28  153 1    
    60   29   30 am   BACKBONE|DICT|INTERRES
    61   29  154 1    
    62   30   31 2    
    63   30   32 1    
    64   32   33 1    
    65   32   34 1    
    66   32  155 1    
    67   33  156 1    
    68   33  157 1    
    69   33  158 1    
    70   34   35 am   BACKBONE|DICT|INTERRES
    71   34  159 1    
    72   35   36 2    
    73   35   37 1    
    74   37   38 1    
    75   37   39 1    
    76   37  160 1    
    77   38  161 1    
    78   38  162 1    
    79   38  163 1    
    80   39   40 am   BACKBONE|DICT|INTERRES
    81   39  164 1    
    82   40   41 2    
    83   40   42 1    
    84   42   43 1    
    85   42   44 1    
    86   42  165 1    
    87   43  166 1    
    88   43  167 1    
    89   43  168 1    
    90   44   45 am   BACKBONE|DICT|INTERRES
    91   44  169 1    
    92   45   46 2    
    93   45   47 1    
    94   47   48 1    
    95   47   49 1    
    96   47  170 1    
    97   48  171 1    
    98   48  172 1    
    99   48  173 1    
   100   49   50 am   BACKBONE|DICT|INTERRES
   101   49  174 1    
   102   50   51 2    
   103   50   52 1    
   104   52   53 1    
   105   52   54 1    
   106   52  175 1    
   107   53  176 1    
   108   53  177 1    
   109   53  178 1    
   110   54   55 am   BACKBONE|DICT|INTERRES
   111   54  179 1    
   112   55   56 2    
   113   55   57 1    
   114   57   58 1    
   115   57   59 1    
   116   57  180 1    
   117   58  181 1    
   118   58  182 1    
   119   58  183 1    
   120   59   60 am   BACKBONE|DICT|INTERRES
   121   59  184 1    
   122   60   61 2    
   123   60   62 1    
   124   62   63 1    
   125   62   64 1    
   126   62  185 1    
   127   63  186 1    
   128   63  187 1    
   129   63  188 1    
   130   64   65 am   BACKBONE|DICT|INTERRES
   131   64  189 1    
   132   65   66 2    
   133   67   68 2    
   134   67   69 am   BACKBONE|DICT|INTERRES
   135   69   70 1    
   136   69  190 1    
   137   70   71 1    
   138   70   72 1    
   139   70  191 1    
   140   71  192 1    
   141   71  193 1    
   142   71  194 1    
   143   72   73 2    
   144   72   74 am   BACKBONE|DICT|INTERRES
   145   74   75 1    
   146   74  195 1    
   147   75   76 1    
   148   75   77 1    
   149   75  196 1    
   150   76  197 1    
   151   76  198 1    
   152   76  199 1    
   153   77   78 2    
   154   77   79 am   BACKBONE|DICT|INTERRES
   155   79   80 1    
   156   79  200 1    
   157   80   81 1    
   158   80   82 1    
   159   80  201 1    
   160   81  202 1    
   161   81  203 1    
   162   81  204 1    
   163   82   83 2    
   164   82   84 am   BACKBONE|DICT|INTERRES
   165   84   85 1    
   166   84  205 1    
   167   85   86 1    
   168   85   87 1    
   169   85  206 1    
   170   86  207 1    
   171   86  208 1    
   172   86  209 1    
   173   87   88 2    
   174   87   89 am   BACKBONE|DICT|INTERRES
   175   89   90 1    
   176   89  210 1    
   177   90   91 1    
   178   90   92 1    
   179   90  211 1    
   180   91  212 1    
   181   91  213 1    
   182   91  214 1    
   183   92   93 2    
   184   92   94 am   BACKBONE|DICT|INTERRES
   185   94   95 1    
   186   94  215 1    
   187   95   96 1    
   188   95   97 1    
   189   95  216 1    
   190   96  217 1    
   191   96  218 1    
   192   96  219 1    
   193   97   98 2    
   194   97   99 am   BACKBONE|DICT|INTERRES
   195   99  100 1    
   196   99  220 1    
   197  100  101 1    
   198  100  102 1    
   199  100  221 1    
   200  101  222 1    
   201  101  223 1    
   202  101  224 1    
   203  102  103 2    
   204  102  104 am   BACKBONE|DICT|INTERRES
   205  104  105 1    
   206  104  225 1    
   207  105  106 1    
   208  105  107 1    
   209  105  226 1    
   210  106  227 1    
   211  106  228 1    
   212  106  229 1    
   213  107  108 2    
   214  107  109 am   BACKBONE|DICT|INTERRES
   215  109  110 1    
   216  109  230 1    
   217  110  111 1    
   218  110  112 1    
   219  110  231 1    
   220  111  232 1    
   221  111  233 1    
   222  111  234 1    
   223  112  113 2    
   224  112  114 am   BACKBONE|DICT|INTERRES
   225  114  115 1    
   226  114  235 1    
   227  115  116 1    
   228  115  117 1    
   229  115  236 1    
   230  116  237 1    
   231  116  238 1    
   232  116  239 1    
   233  117  118 2    
   234  117  119 am   BACKBONE|DICT|INTERRES
   235  119  120 1    
   236  119  240 1    
   237  120  121 1    
   238  120  124 1    
   239  120  241 1    
   240  121  122 am   BACKBONE|DICT|INTERRES
   241  121  123 2    
   242  122  242 1    
   243  122  243 1    
   244  124  125 1    
   245  124  244 1    
   246  124  245 1    
   247  125  126 1    
   248  126  246 1    
   249  126  247 1    
@<TRIPOS>SUBSTRUCTURE
     1 UNK         1 GROUP             0       ****    0 ROOT    
