@<TRIPOS>MOLECULE
3R540
247   249    1
SMALL
USER_CHARGES


@<TRIPOS>ATOM
      1 CA          3.9206   -9.6439  -48.2948 C.3       0 UNK        -0.1800 
      2 C           3.1622  -10.8882  -47.8562 C.2       0 UNK         0.5000 
      3 O           3.4073  -11.4045  -46.7653 O.2       0 UNK        -0.5000 
      4 N           2.2315  -11.3670  -48.6918 N.am      1 UNK        -0.5000 
      5 CA          1.3910  -12.5478  -48.4557 C.3       1 UNK         0.1400 
      6 C6          0.9507  -13.1955  -49.7971 C.3       23 UNK        -0.0398 
      7 S7          0.5833  -14.9771  -49.6300 S.3       23 UNK        -0.2404 
      8 C8          1.5834  -15.6810  -50.9791 C.3       23 UNK        -0.0205 
      9 C9          1.4107  -17.1896  -51.0516 C.ar      23 UNK        -0.0193 
     10 C10         0.3286  -17.7415  -51.7452 C.ar      23 UNK        -0.1150 
     11 C11         0.1357  -19.1257  -51.7751 C.ar      23 UNK        -0.0193 
     12 C12         1.0378  -19.9573  -51.1066 C.ar      23 UNK        -0.1150 
     13 C13         2.1320  -19.4198  -50.4235 C.ar      23 UNK        -0.0193 
     14 C14         2.3183  -18.0345  -50.4056 C.ar      23 UNK        -0.1150 
     15 C15         3.0755  -20.3417  -49.6614 C.3       23 UNK        -0.0205 
     16 S16         3.0311  -20.0750  -47.8559 S.3       23 UNK        -0.2404 
     17 C17         1.2441  -20.0825  -47.4839 C.3       23 UNK        -0.0398 
     18 CA          0.7269  -21.4231  -46.9180 C.3       11 UNK         0.1400 
     19 N           1.3245  -21.7234  -45.6161 N.am      11 UNK        -0.5000 
     20 C           1.4532  -22.9330  -45.0606 C.2       10 UNK         0.5000 
     21 O           1.1332  -23.9789  -45.6269 O.2       10 UNK        -0.5000 
     22 CA          1.9918  -22.9558  -43.6116 C.3       10 UNK         0.1400 
     23 CB          2.6394  -24.3013  -43.2237 C.3       10 UNK        -0.1800 
     24 N           2.8765  -21.8223  -43.3105 N.am      10 UNK        -0.5000 
     25 C           4.0824  -21.5636  -43.8396 C.2       9 UNK         0.5000 
     26 O           4.6689  -22.3219  -44.6126 O.2       9 UNK        -0.5000 
     27 CA          4.7449  -20.2201  -43.4694 C.3       9 UNK         0.1400 
     28 CB          4.7762  -19.2879  -44.6903 C.3       9 UNK        -0.1800 
     29 N           4.0879  -19.5160  -42.3661 N.am      9 UNK        -0.5000 
     30 C           4.2185  -19.8251  -41.0697 C.2       8 UNK         0.5000 
     31 O           4.9220  -20.7464  -40.6539 O.2       8 UNK        -0.5000 
     32 CA          3.4088  -18.9742  -40.0717 C.3       8 UNK         0.1400 
     33 CB          4.1510  -17.6708  -39.7392 C.3       8 UNK        -0.1800 
     34 N           2.0594  -18.6587  -40.5469 N.am      8 UNK        -0.5000 
     35 C           1.0925  -19.5668  -40.7427 C.2       7 UNK         0.5000 
     36 O           1.2317  -20.7720  -40.5329 O.2       7 UNK        -0.5000 
     37 CA         -0.2415  -19.0513  -41.3116 C.3       7 UNK         0.1400 
     38 CB         -1.0930  -18.3932  -40.2161 C.3       7 UNK        -0.1800 
     39 N          -0.0539  -18.1188  -42.4235 N.am      7 UNK        -0.5000 
     40 C           0.5019  -18.4496  -43.5969 C.2       6 UNK         0.5000 
     41 O           0.8447  -19.5943  -43.8879 O.2       6 UNK        -0.5000 
     42 CA          0.7563  -17.3159  -44.6035 C.3       6 UNK         0.1400 
     43 CB         -0.5070  -17.0220  -45.4266 C.3       6 UNK        -0.1800 
     44 N           1.2353  -16.0920  -43.9677 N.am      6 UNK        -0.5000 
     45 C           2.3928  -15.9805  -43.3019 C.2       5 UNK         0.5000 
     46 O           3.2002  -16.8990  -43.1723 O.2       5 UNK        -0.5000 
     47 CA          2.6642  -14.6330  -42.6148 C.3       5 UNK         0.1400 
     48 CB          3.1592  -13.5847  -43.6237 C.3       5 UNK        -0.1800 
     49 N           1.4779  -14.1352  -41.9192 N.am      5 UNK        -0.5000 
     50 C           0.9399  -14.7121  -40.8351 C.2       4 UNK         0.5000 
     51 O           1.4126  -15.7051  -40.2809 O.2       4 UNK        -0.5000 
     52 CA         -0.3686  -14.0957  -40.3082 C.3       4 UNK         0.1400 
     53 CB         -0.0745  -12.8922  -39.4004 C.3       4 UNK        -0.1800 
     54 N          -1.2679  -13.6825  -41.3875 N.am      4 UNK        -0.5000 
     55 C          -1.8912  -14.5328  -42.2155 C.2       3 UNK         0.5000 
     56 O          -1.7903  -15.7570  -42.1413 O.2       3 UNK        -0.5000 
     57 CA         -2.7274  -13.9059  -43.3475 C.3       3 UNK         0.1400 
     58 CB         -4.1222  -13.5134  -42.8379 C.3       3 UNK        -0.1800 
     59 N          -2.0893  -12.7423  -43.9737 N.am      3 UNK        -0.5000 
     60 C          -0.9049  -12.7770  -44.5979 C.2       2 UNK         0.5000 
     61 O          -0.1980  -13.7842  -44.6553 O.2       2 UNK        -0.5000 
     62 CA         -0.4019  -11.4614  -45.2170 C.3       2 UNK         0.1400 
     63 CB          0.3060  -10.6082  -44.1529 C.3       2 UNK        -0.1800 
     64 N           0.5369  -11.7202  -46.3079 N.am      2 UNK        -0.5000 
     65 C           0.2103  -12.2119  -47.5096 C.2       1 UNK         0.5000 
     66 O          -0.9559  -12.3660  -47.8782 O.2       1 UNK        -0.5000 
     67 C          -0.8105  -21.3499  -46.8315 C.2       11 UNK         0.5000 
     68 O          -1.4688  -21.3937  -47.8708 O.2       11 UNK        -0.5000 
     69 N          -1.3565  -21.2049  -45.6138 N.am      12 UNK        -0.5000 
     70 CA         -2.7716  -20.9561  -45.3263 C.3       12 UNK         0.1400 
     71 CB         -2.9763  -20.8963  -43.8063 C.3       12 UNK        -0.1800 
     72 C          -3.7548  -21.9501  -45.9731 C.2       12 UNK         0.5000 
     73 O          -4.8347  -21.5363  -46.3895 O.2       12 UNK        -0.5000 
     74 N          -3.3523  -23.2219  -46.0976 N.am      13 UNK        -0.5000 
     75 CA         -4.1243  -24.2681  -46.7723 C.3       13 UNK         0.1400 
     76 CB         -3.4755  -25.6322  -46.4949 C.3       13 UNK        -0.1800 
     77 C          -4.2678  -24.0360  -48.2900 C.2       13 UNK         0.5000 
     78 O          -5.3264  -24.3207  -48.8494 O.2       13 UNK        -0.5000 
     79 N          -3.2144  -23.5044  -48.9248 N.am      14 UNK        -0.5000 
     80 CA         -3.1960  -23.1604  -50.3466 C.3       14 UNK         0.1400 
     81 CB         -1.7464  -23.1690  -50.8551 C.3       14 UNK        -0.1800 
     82 C          -3.8756  -21.8061  -50.6142 C.2       14 UNK         0.5000 
     83 O          -4.5029  -21.6343  -51.6603 O.2       14 UNK        -0.5000 
     84 N          -3.7786  -20.8798  -49.6506 N.am      15 UNK        -0.5000 
     85 CA         -4.5056  -19.6102  -49.6523 C.3       15 UNK         0.1400 
     86 CB         -3.9663  -18.7017  -48.5382 C.3       15 UNK        -0.1800 
     87 C          -6.0264  -19.8230  -49.5162 C.2       15 UNK         0.5000 
     88 O          -6.7932  -19.2097  -50.2584 O.2       15 UNK        -0.5000 
     89 N          -6.4341  -20.7400  -48.6249 N.am      16 UNK        -0.5000 
     90 CA         -7.8215  -21.1784  -48.4349 C.3       16 UNK         0.1400 
     91 CB         -7.9096  -22.0741  -47.1902 C.3       16 UNK        -0.1800 
     92 C          -8.4127  -21.9032  -49.6605 C.2       16 UNK         0.5000 
     93 O          -9.6268  -21.8615  -49.8602 O.2       16 UNK        -0.5000 
     94 N          -7.5464  -22.5101  -50.4837 N.am      17 UNK        -0.5000 
     95 CA         -7.8821  -23.0966  -51.7833 C.3       17 UNK         0.1400 
     96 CB         -6.8377  -24.1709  -52.1370 C.3       17 UNK        -0.1800 
     97 C          -8.0025  -22.0453  -52.9097 C.2       17 UNK         0.5000 
     98 O          -8.1578  -22.4289  -54.0683 O.2       17 UNK        -0.5000 
     99 N          -7.9091  -20.7485  -52.5730 N.am      18 UNK        -0.5000 
    100 CA        -7.9786  -19.5880  -53.4673 C.3       18 UNK         0.1400 
    101 CB        -9.3754  -19.4685  -54.1124 C.3       18 UNK        -0.1800 
    102 C         -6.8286  -19.5673  -54.4933 C.2       18 UNK         0.5000 
    103 O         -7.0337  -19.1901  -55.6476 O.2       18 UNK        -0.5000 
    104 N         -5.6423  -20.0023  -54.0428 N.am      19 UNK        -0.5000 
    105 CA        -4.3835  -20.1325  -54.7819 C.3       19 UNK         0.1400 
    106 CB        -3.9420  -18.7931  -55.4070 C.3       19 UNK        -0.1800 
    107 C         -4.3493  -21.2897  -55.8002 C.2       19 UNK         0.5000 
    108 O         -3.2992  -21.5166  -56.4081 O.2       19 UNK        -0.5000 
    109 N         -5.4397  -22.0621  -55.9289 N.am      20 UNK        -0.5000 
    110 CA        -5.5445  -23.2603  -56.7699 C.3       20 UNK         0.1400 
    111 CB        -7.0249  -23.5284  -57.0922 C.3       20 UNK        -0.1800 
    112 C         -4.8424  -24.4730  -56.1195 C.2       20 UNK         0.5000 
    113 O         -5.4452  -25.5313  -55.9330 O.2       20 UNK        -0.5000 
    114 N         -3.5716  -24.2684  -55.7699 N.am      21 UNK        -0.5000 
    115 CA        -2.6705  -25.1933  -55.0988 C.3       21 UNK         0.1400 
    116 CB        -3.0806  -25.3833  -53.6272 C.3       21 UNK        -0.1800 
    117 C         -1.2355  -24.6608  -55.2172 C.2       21 UNK         0.5000 
    118 O         -0.3409  -25.4235  -55.5840 O.2       21 UNK        -0.5000 
    119 N         -1.0445  -23.3606  -54.9400 N.am      22 UNK        -0.5000 
    120 CA         0.2375  -22.6627  -55.1338 C.3       22 UNK         0.1400 
    121 C          0.4796  -22.1803  -56.5937 C.2       22 UNK         0.5000 
    122 N         -0.5542  -21.9216  -57.3872 N.am      22 UNK        -0.7600 
    123 O          1.6254  -22.0583  -57.0184 O.2       22 UNK        -0.5000 
    124 C124        0.4578  -21.5318  -54.0957 C.3       23 UNK        -0.0398 
    125 S125       -0.6990  -20.1218  -54.2332 S.3       23 UNK        -0.2404 
    126 C126       -1.0653  -19.7200  -52.4961 C.3       23 UNK        -0.0205 
    127 H127        3.5991   -9.2978  -49.2774 H         1 UNK         0.0600 
    128 H128        3.7607   -8.8364  -47.5803 H         1 UNK         0.0600 
    129 H129        4.9893   -9.8533  -48.3408 H         1 UNK         0.0600 
    130 H130        2.0516  -10.8722  -49.5542 H         1 UNK         0.3000 
    131 H131        2.0069  -13.2810  -47.9295 H         1 UNK         0.0600 
    132 H132        1.7506  -13.0884  -50.5311 H         1 UNK         0.0800 
    133 H133        0.0899  -12.6853  -50.2326 H         1 UNK         0.0800 
    134 H134        2.6338  -15.4278  -50.8260 H         1 UNK         0.0800 
    135 H135        1.2881  -15.2288  -51.9273 H         1 UNK         0.0800 
    136 H136       -0.3751  -17.0907  -52.2451 H         1 UNK         0.1150 
    137 H137        0.8785  -21.0254  -51.0986 H         1 UNK         0.1150 
    138 H138        3.1511  -17.6147  -49.8589 H         1 UNK         0.1150 
    139 H139        2.8406  -21.3878  -49.8635 H         1 UNK         0.0800 
    140 H140        4.0943  -20.1834  -50.0172 H         1 UNK         0.0800 
    141 H141        0.6766  -19.7962  -48.3681 H         1 UNK         0.0800 
    142 H142        1.0616  -19.2830  -46.7691 H         1 UNK         0.0800 
    143 H143        0.9778  -22.2199  -47.6213 H         1 UNK         0.0600 
    144 H144        1.5420  -20.9179  -45.0361 H         1 UNK         0.3000 
    145 H145        1.1190  -22.8215  -42.9709 H         1 UNK         0.0600 
    146 H146        3.0144  -24.2774  -42.2005 H         1 UNK         0.0600 
    147 H147        1.9145  -25.1138  -43.2838 H         1 UNK         0.0600 
    148 H148        3.4699  -24.5592  -43.8810 H         1 UNK         0.0600 
    149 H149        2.4812  -21.1179  -42.7012 H         1 UNK         0.3000 
    150 H150        5.7757  -20.4351  -43.1804 H         1 UNK         0.0600 
    151 H151        5.2806  -19.7588  -45.5349 H         1 UNK         0.0600 
    152 H152        5.3099  -18.3638  -44.4680 H         1 UNK         0.0600 
    153 H153        3.7692  -19.0224  -45.0146 H         1 UNK         0.0600 
    154 H154        3.5459  -18.6928  -42.6174 H         1 UNK         0.3000 
    155 H155        3.3109  -19.5511  -39.1498 H         1 UNK         0.0600 
    156 H156        4.2549  -17.0309  -40.6159 H         1 UNK         0.0600 
    157 H157        5.1531  -17.8766  -39.3611 H         1 UNK         0.0600 
    158 H158        3.6240  -17.1024  -38.9727 H         1 UNK         0.0600 
    159 H159        1.8547  -17.6794  -40.7168 H         1 UNK         0.3000 
    160 H160       -0.7896  -19.9169  -41.6873 H         1 UNK         0.0600 
    161 H161       -2.0750  -18.1132  -40.5977 H         1 UNK         0.0600 
    162 H162       -0.6196  -17.4943  -39.8211 H         1 UNK         0.0600 
    163 H163       -1.2515  -19.0762  -39.3807 H         1 UNK         0.0600 
    164 H164       -0.3776  -17.1671  -42.2822 H         1 UNK         0.3000 
    165 H165        1.5417  -17.6476  -45.2840 H         1 UNK         0.0600 
    166 H166       -0.3054  -16.2880  -46.2074 H         1 UNK         0.0600 
    167 H167       -0.8793  -17.9236  -45.9148 H         1 UNK         0.0600 
    168 H168       -1.3109  -16.6319  -44.8019 H         1 UNK         0.0600 
    169 H169        0.6478  -15.2662  -44.0705 H         1 UNK         0.3000 
    170 H170        3.4513  -14.7879  -41.8738 H         1 UNK         0.0600 
    171 H171        4.0713  -13.9224  -44.1172 H         1 UNK         0.0600 
    172 H172        2.4239  -13.3868  -44.4035 H         1 UNK         0.0600 
    173 H173        3.3883  -12.6395  -43.1315 H         1 UNK         0.0600 
    174 H174        0.9951  -13.3579  -42.3428 H         1 UNK         0.3000 
    175 H175       -0.8779  -14.8560  -39.7120 H         1 UNK         0.0600 
    176 H176       -0.9906  -12.4966  -38.9615 H         1 UNK         0.0600 
    177 H177        0.5825  -13.1764  -38.5773 H         1 UNK         0.0600 
    178 H178        0.4134  -12.0834  -39.9459 H         1 UNK         0.0600 
    179 H179       -1.4031  -12.6912  -41.5202 H         1 UNK         0.3000 
    180 H180       -2.8519  -14.6675  -44.1201 H         1 UNK         0.0600 
    181 H181       -4.0710  -12.7227  -42.0884 H         1 UNK         0.0600 
    182 H182       -4.6251  -14.3669  -42.3811 H         1 UNK         0.0600 
    183 H183       -4.7559  -13.1635  -43.6530 H         1 UNK         0.0600 
    184 H184       -2.6091  -11.8767  -43.9518 H         1 UNK         0.3000 
    185 H185       -1.2554  -10.9058  -45.6110 H         1 UNK         0.0600 
    186 H186        1.1717  -11.1222  -43.7335 H         1 UNK         0.0600 
    187 H187        0.6510   -9.6632  -44.5730 H         1 UNK         0.0600 
    188 H188       -0.3663  -10.3689  -43.3281 H         1 UNK         0.0600 
    189 H189        1.5246  -11.6217  -46.0982 H         1 UNK         0.3000 
    190 H190       -0.7247  -21.1465  -44.8273 H         1 UNK         0.3000 
    191 H191       -3.0048  -19.9696  -45.7292 H         1 UNK         0.0600 
    192 H192       -2.4254  -20.0623  -43.3728 H         1 UNK         0.0600 
    193 H193       -2.6461  -21.8136  -43.3175 H         1 UNK         0.0600 
    194 H194       -4.0280  -20.7491  -43.5565 H         1 UNK         0.0600 
    195 H195       -2.4432  -23.4781  -45.7414 H         1 UNK         0.3000 
    196 H196       -5.1289  -24.2757  -46.3438 H         1 UNK         0.0600 
    197 H197       -4.0387  -26.4363  -46.9706 H         1 UNK         0.0600 
    198 H198       -3.4468  -25.8453  -45.4262 H         1 UNK         0.0600 
    199 H199       -2.4538  -25.6775  -46.8743 H         1 UNK         0.0600 
    200 H200       -2.4119  -23.2114  -48.3817 H         1 UNK         0.3000 
    201 H201       -3.7513  -23.9226  -50.8961 H         1 UNK         0.0600 
    202 H202       -1.2859  -24.1462  -50.7096 H         1 UNK         0.0600 
    203 H203       -1.1312  -22.4306  -50.3403 H         1 UNK         0.0600 
    204 H204       -1.7044  -22.9503  -51.9221 H         1 UNK         0.0600 
    205 H205       -3.1835  -21.0748  -48.8523 H         1 UNK         0.3000 
    206 H206       -4.3185  -19.1187  -50.6095 H         1 UNK         0.0600 
    207 H207       -2.8866  -18.5728  -48.6191 H         1 UNK         0.0600 
    208 H208       -4.4189  -17.7111  -48.5938 H         1 UNK         0.0600 
    209 H209       -4.1847  -19.1035  -47.5498 H         1 UNK         0.0600 
    210 H210       -5.7479  -21.1528  -47.9981 H         1 UNK         0.3000 
    211 H211       -8.4295  -20.2890  -48.2578 H         1 UNK         0.0600 
    212 H212       -7.2825  -22.9607  -47.2887 H         1 UNK         0.0600 
    213 H213       -8.9328  -22.4115  -47.0206 H         1 UNK         0.0600 
    214 H214       -7.5938  -21.5373  -46.2956 H         1 UNK         0.0600 
    215 H215       -6.5688  -22.5156  -50.2289 H         1 UNK         0.3000 
    216 H216       -8.8525  -23.5900  -51.7014 H         1 UNK         0.0600 
    217 H217       -7.1310  -24.7220  -53.0315 H         1 UNK         0.0600 
    218 H218       -6.7274  -24.8977  -51.3320 H         1 UNK         0.0600 
    219 H219       -5.8582  -23.7379  -52.3350 H         1 UNK         0.0600 
    220 H220       -7.7303  -20.5205  -51.6020 H         1 UNK         0.3000 
    221 H221       -7.8345  -18.7098  -52.8365 H         1 UNK         0.0600 
    222 H222       -9.5695  -20.2774  -54.8173 H         1 UNK         0.0600 
    223 H223      -10.1608  -19.4859  -53.3568 H         1 UNK         0.0600 
    224 H224       -9.4733  -18.5300  -54.6591 H         1 UNK         0.0600 
    225 H225       -5.6000  -20.3479  -53.0904 H         1 UNK         0.3000 
    226 H226       -3.6441  -20.3950  -54.0255 H         1 UNK         0.0600 
    227 H227       -3.9160  -17.9994  -54.6605 H         1 UNK         0.0600 
    228 H228       -4.6029  -18.4781  -56.2141 H         1 UNK         0.0600 
    229 H229       -2.9401  -18.8708  -55.8300 H         1 UNK         0.0600 
    230 H230       -6.2500  -21.8490  -55.3617 H         1 UNK         0.3000 
    231 H231       -5.0358  -23.0635  -57.7159 H         1 UNK         0.0600 
    232 H232       -7.5016  -22.6494  -57.5262 H         1 UNK         0.0600 
    233 H233       -7.5878  -23.8115  -56.2029 H         1 UNK         0.0600 
    234 H234       -7.1244  -24.3414  -57.8122 H         1 UNK         0.0600 
    235 H235       -3.1765  -23.3672  -56.0204 H         1 UNK         0.3000 
    236 H236       -2.7147  -26.1580  -55.6085 H         1 UNK         0.0600 
    237 H237       -2.3336  -25.9576  -53.0778 H         1 UNK         0.0600 
    238 H238       -3.2008  -24.4241  -53.1262 H         1 UNK         0.0600 
    239 H239       -4.0265  -25.9188  -53.5451 H         1 UNK         0.0600 
    240 H240       -1.8192  -22.7857  -54.6465 H         1 UNK         0.3000 
    241 H241        1.0312  -23.3873  -54.9396 H         1 UNK         0.0600 
    242 H242       -0.3828  -21.6192  -58.3325 H         1 UNK         0.3800 
    243 H243       -1.5022  -21.9081  -57.0260 H         1 UNK         0.3800 
    244 H244        0.3802  -21.9639  -53.0991 H         1 UNK         0.0800 
    245 H245        1.4747  -21.1431  -54.1707 H         1 UNK         0.0800 
    246 H246       -1.4183  -20.6081  -51.9766 H         1 UNK         0.0800 
    247 H247       -1.8956  -19.0126  -52.4706 H         1 UNK         0.0800 
@<TRIPOS>BOND
     1    1    2 1    
     2    1  127 1    
     3    1  128 1    
     4    1  129 1    
     5    2    3 2    
     6    2    4 am   BACKBONE|DICT|INTERRES
     7    4    5 1    
     8    4  130 1    
     9    5    6 1    
    10    5   65 1    
    11    5  131 1    
    12    6    7 1    
    13    6  132 1    
    14    6  133 1    
    15    7    8 1    
    16    8    9 1    
    17    8  134 1    
    18    8  135 1    
    19    9   10 ar   
    20    9   14 ar   
    21   10   11 ar   
    22   10  136 1    
    23   11   12 ar   
    24   11  126 1    
    25   12   13 ar   
    26   12  137 1    
    27   13   14 ar   
    28   13   15 1    
    29   14  138 1    
    30   15   16 1    
    31   15  139 1    
    32   15  140 1    
    33   16   17 1    
    34   17   18 1    
    35   17  141 1    
    36   17  142 1    
    37   18   19 1    
    38   18   67 1    
    39   18  143 1    
    40   19   20 am   BACKBONE|DICT|INTERRES
    41   19  144 1    
    42   20   21 2    
    43   20   22 1    
    44   22   23 1    
    45   22   24 1    
    46   22  145 1    
    47   23  146 1    
    48   23  147 1    
    49   23  148 1    
    50   24   25 am   BACKBONE|DICT|INTERRES
    51   24  149 1    
    52   25   26 2    
    53   25   27 1    
    54   27   28 1    
    55   27   29 1    
    56   27  150 1    
    57   28  151 1    
    58   28  152 1    
    59   28  153 1    
    60   29   30 am   BACKBONE|DICT|INTERRES
    61   29  154 1    
    62   30   31 2    
    63   30   32 1    
    64   32   33 1    
    65   32   34 1    
    66   32  155 1    
    67   33  156 1    
    68   33  157 1    
    69   33  158 1    
    70   34   35 am   BACKBONE|DICT|INTERRES
    71   34  159 1    
    72   35   36 2    
    73   35   37 1    
    74   37   38 1    
    75   37   39 1    
    76   37  160 1    
    77   38  161 1    
    78   38  162 1    
    79   38  163 1    
    80   39   40 am   BACKBONE|DICT|INTERRES
    81   39  164 1    
    82   40   41 2    
    83   40   42 1    
    84   42   43 1    
    85   42   44 1    
    86   42  165 1    
    87   43  166 1    
    88   43  167 1    
    89   43  168 1    
    90   44   45 am   BACKBONE|DICT|INTERRES
    91   44  169 1    
    92   45   46 2    
    93   45   47 1    
    94   47   48 1    
    95   47   49 1    
    96   47  170 1    
    97   48  171 1    
    98   48  172 1    
    99   48  173 1    
   100   49   50 am   BACKBONE|DICT|INTERRES
   101   49  174 1    
   102   50   51 2    
   103   50   52 1    
   104   52   53 1    
   105   52   54 1    
   106   52  175 1    
   107   53  176 1    
   108   53  177 1    
   109   53  178 1    
   110   54   55 am   BACKBONE|DICT|INTERRES
   111   54  179 1    
   112   55   56 2    
   113   55   57 1    
   114   57   58 1    
   115   57   59 1    
   116   57  180 1    
   117   58  181 1    
   118   58  182 1    
   119   58  183 1    
   120   59   60 am   BACKBONE|DICT|INTERRES
   121   59  184 1    
   122   60   61 2    
   123   60   62 1    
   124   62   63 1    
   125   62   64 1    
   126   62  185 1    
   127   63  186 1    
   128   63  187 1    
   129   63  188 1    
   130   64   65 am   BACKBONE|DICT|INTERRES
   131   64  189 1    
   132   65   66 2    
   133   67   68 2    
   134   67   69 am   BACKBONE|DICT|INTERRES
   135   69   70 1    
   136   69  190 1    
   137   70   71 1    
   138   70   72 1    
   139   70  191 1    
   140   71  192 1    
   141   71  193 1    
   142   71  194 1    
   143   72   73 2    
   144   72   74 am   BACKBONE|DICT|INTERRES
   145   74   75 1    
   146   74  195 1    
   147   75   76 1    
   148   75   77 1    
   149   75  196 1    
   150   76  197 1    
   151   76  198 1    
   152   76  199 1    
   153   77   78 2    
   154   77   79 am   BACKBONE|DICT|INTERRES
   155   79   80 1    
   156   79  200 1    
   157   80   81 1    
   158   80   82 1    
   159   80  201 1    
   160   81  202 1    
   161   81  203 1    
   162   81  204 1    
   163   82   83 2    
   164   82   84 am   BACKBONE|DICT|INTERRES
   165   84   85 1    
   166   84  205 1    
   167   85   86 1    
   168   85   87 1    
   169   85  206 1    
   170   86  207 1    
   171   86  208 1    
   172   86  209 1    
   173   87   88 2    
   174   87   89 am   BACKBONE|DICT|INTERRES
   175   89   90 1    
   176   89  210 1    
   177   90   91 1    
   178   90   92 1    
   179   90  211 1    
   180   91  212 1    
   181   91  213 1    
   182   91  214 1    
   183   92   93 2    
   184   92   94 am   BACKBONE|DICT|INTERRES
   185   94   95 1    
   186   94  215 1    
   187   95   96 1    
   188   95   97 1    
   189   95  216 1    
   190   96  217 1    
   191   96  218 1    
   192   96  219 1    
   193   97   98 2    
   194   97   99 am   BACKBONE|DICT|INTERRES
   195   99  100 1    
   196   99  220 1    
   197  100  101 1    
   198  100  102 1    
   199  100  221 1    
   200  101  222 1    
   201  101  223 1    
   202  101  224 1    
   203  102  103 2    
   204  102  104 am   BACKBONE|DICT|INTERRES
   205  104  105 1    
   206  104  225 1    
   207  105  106 1    
   208  105  107 1    
   209  105  226 1    
   210  106  227 1    
   211  106  228 1    
   212  106  229 1    
   213  107  108 2    
   214  107  109 am   BACKBONE|DICT|INTERRES
   215  109  110 1    
   216  109  230 1    
   217  110  111 1    
   218  110  112 1    
   219  110  231 1    
   220  111  232 1    
   221  111  233 1    
   222  111  234 1    
   223  112  113 2    
   224  112  114 am   BACKBONE|DICT|INTERRES
   225  114  115 1    
   226  114  235 1    
   227  115  116 1    
   228  115  117 1    
   229  115  236 1    
   230  116  237 1    
   231  116  238 1    
   232  116  239 1    
   233  117  118 2    
   234  117  119 am   BACKBONE|DICT|INTERRES
   235  119  120 1    
   236  119  240 1    
   237  120  121 1    
   238  120  124 1    
   239  120  241 1    
   240  121  122 am   BACKBONE|DICT|INTERRES
   241  121  123 2    
   242  122  242 1    
   243  122  243 1    
   244  124  125 1    
   245  124  244 1    
   246  124  245 1    
   247  125  126 1    
   248  126  246 1    
   249  126  247 1    
@<TRIPOS>SUBSTRUCTURE
     1 UNK         1 GROUP             0       ****    0 ROOT    
