@<TRIPOS>MOLECULE
3R540
247   249    1
SMALL
USER_CHARGES


@<TRIPOS>ATOM
      1 CA         -0.1112   -8.8417  -49.2422 C.3       0 UNK        -0.1800 
      2 C          -0.1303  -10.3547  -49.0798 C.2       0 UNK         0.5000 
      3 O          -1.1708  -10.9183  -48.7389 O.2       0 UNK        -0.5000 
      4 N           1.0180  -11.0064  -49.3110 N.am      1 UNK        -0.5000 
      5 CA          1.2775  -12.4539  -49.2313 C.3       1 UNK         0.1400 
      6 C6          0.3741  -13.3266  -50.1418 C.3       23 UNK        -0.0398 
      7 S7          0.4569  -12.8459  -51.9040 S.3       23 UNK        -0.2404 
      8 C8          1.3796  -14.2293  -52.6520 C.3       23 UNK        -0.0205 
      9 C9          0.6580  -15.5596  -52.4883 C.ar      23 UNK        -0.0193 
     10 C10        -0.5647  -15.7857  -53.1272 C.ar      23 UNK        -0.1150 
     11 C11        -1.2511  -16.9888  -52.9390 C.ar      23 UNK        -0.0193 
     12 C12        -0.6999  -17.9748  -52.1167 C.ar      23 UNK        -0.1150 
     13 C13         0.5234  -17.7616  -51.4755 C.ar      23 UNK        -0.0193 
     14 C14         1.2029  -16.5573  -51.6755 C.ar      23 UNK        -0.1150 
     15 C15         1.1113  -18.8207  -50.5561 C.3       23 UNK        -0.0205 
     16 S16         1.0836  -18.2983  -48.8096 S.3       23 UNK        -0.2404 
     17 C17        -0.6930  -18.4326  -48.4045 C.3       23 UNK        -0.0398 
     18 CA         -1.0645  -19.8518  -47.9080 C.3       11 UNK         0.1400 
     19 N          -0.3423  -20.2186  -46.6873 N.am      11 UNK        -0.5000 
     20 C           0.2271  -21.4086  -46.4643 C.2       10 UNK         0.5000 
     21 O           0.1933  -22.3458  -47.2603 O.2       10 UNK        -0.5000 
     22 CA          0.9514  -21.5889  -45.1182 C.3       10 UNK         0.1400 
     23 CB          2.4094  -21.1189  -45.2296 C.3       10 UNK        -0.1800 
     24 N           0.2950  -20.8980  -44.0050 N.am      10 UNK        -0.5000 
     25 C          -0.9205  -21.2104  -43.5331 C.2       9 UNK         0.5000 
     26 O          -1.6154  -22.1146  -43.9946 O.2       9 UNK        -0.5000 
     27 CA         -1.4598  -20.3679  -42.3632 C.3       9 UNK         0.1400 
     28 CB         -0.8454  -20.8261  -41.0319 C.3       9 UNK        -0.1800 
     29 N          -1.2234  -18.9368  -42.5437 N.am      9 UNK        -0.5000 
     30 C          -1.8331  -18.1746  -43.4629 C.2       8 UNK         0.5000 
     31 O          -2.7080  -18.5840  -44.2244 O.2       8 UNK        -0.5000 
     32 CA         -1.3580  -16.7134  -43.5742 C.3       8 UNK         0.1400 
     33 CB         -2.0090  -15.8475  -42.4843 C.3       8 UNK        -0.1800 
     34 N           0.0979  -16.5883  -43.4952 N.am      8 UNK        -0.5000 
     35 C           0.9612  -17.1586  -44.3481 C.2       7 UNK         0.5000 
     36 O           0.6194  -17.8174  -45.3284 O.2       7 UNK        -0.5000 
     37 CA          2.4553  -17.0159  -44.0141 C.3       7 UNK         0.1400 
     38 CB          3.0027  -15.6634  -44.4951 C.3       7 UNK        -0.1800 
     39 N           2.7093  -17.1757  -42.5816 N.am      7 UNK        -0.5000 
     40 C           2.5848  -18.3348  -41.9186 C.2       6 UNK         0.5000 
     41 O           2.2740  -19.3979  -42.4535 O.2       6 UNK        -0.5000 
     42 CA          2.7976  -18.2874  -40.3948 C.3       6 UNK         0.1400 
     43 CB          4.2951  -18.3035  -40.0535 C.3       6 UNK        -0.1800 
     44 N           2.1707  -17.1166  -39.7812 N.am      6 UNK        -0.5000 
     45 C           0.8481  -16.9017  -39.7363 C.2       5 UNK         0.5000 
     46 O           0.0123  -17.6987  -40.1610 O.2       5 UNK        -0.5000 
     47 CA          0.3862  -15.5449  -39.1697 C.3       5 UNK         0.1400 
     48 CB          0.1963  -15.6328  -37.6483 C.3       5 UNK        -0.1800 
     49 N           1.2981  -14.4391  -39.4835 N.am      5 UNK        -0.5000 
     50 C           1.6084  -14.0387  -40.7230 C.2       4 UNK         0.5000 
     51 O           1.1628  -14.5697  -41.7451 O.2       4 UNK        -0.5000 
     52 CA          2.6188  -12.8907  -40.8428 C.3       4 UNK         0.1400 
     53 CB          4.0402  -13.3655  -40.4914 C.3       4 UNK        -0.1800 
     54 N           2.5925  -12.4119  -42.2175 N.am      4 UNK        -0.5000 
     55 C           2.8857  -11.1793  -42.6389 C.2       3 UNK         0.5000 
     56 O           3.2763  -10.2787  -41.8948 O.2       3 UNK        -0.5000 
     57 CA          2.7210  -10.9009  -44.1474 C.3       3 UNK         0.1400 
     58 CB          4.0943  -10.8184  -44.8317 C.3       3 UNK        -0.1800 
     59 N           1.9106  -11.8963  -44.8560 N.am      3 UNK        -0.5000 
     60 C           0.5841  -12.0424  -44.7471 C.2       2 UNK         0.5000 
     61 O          -0.1154  -11.3578  -43.9992 O.2       2 UNK        -0.5000 
     62 CA         -0.0538  -13.1094  -45.6614 C.3       2 UNK         0.1400 
     63 CB         -1.5640  -13.2771  -45.4207 C.3       2 UNK        -0.1800 
     64 N           0.1532  -12.7793  -47.0702 N.am      2 UNK        -0.5000 
     65 C           1.2717  -12.9726  -47.7777 C.2       1 UNK         0.5000 
     66 O           2.2833  -13.4981  -47.3114 O.2       1 UNK        -0.5000 
     67 C          -2.5910  -20.0451  -47.7677 C.2       11 UNK         0.5000 
     68 O          -3.3275  -19.6238  -48.6599 O.2       11 UNK        -0.5000 
     69 N          -3.0563  -20.7082  -46.6977 N.am      12 UNK        -0.5000 
     70 CA         -4.4374  -21.1758  -46.5690 C.3       12 UNK         0.1400 
     71 CB         -4.7274  -21.5453  -45.1069 C.3       12 UNK        -0.1800 
     72 C          -4.6580  -22.3913  -47.4859 C.2       12 UNK         0.5000 
     73 O          -3.8122  -23.2871  -47.5089 O.2       12 UNK        -0.5000 
     74 N          -5.7841  -22.4125  -48.2129 N.am      13 UNK        -0.5000 
     75 CA         -6.0874  -23.3618  -49.2946 C.3       13 UNK         0.1400 
     76 CB         -7.4688  -23.0372  -49.8814 C.3       13 UNK        -0.1800 
     77 C          -5.9945  -24.8561  -48.9280 C.2       13 UNK         0.5000 
     78 O          -5.7067  -25.6735  -49.8030 O.2       13 UNK        -0.5000 
     79 N          -6.1829  -25.1791  -47.6412 N.am      14 UNK        -0.5000 
     80 CA         -6.0081  -26.5118  -47.0591 C.3       14 UNK         0.1400 
     81 CB         -6.4332  -26.4644  -45.5835 C.3       14 UNK        -0.1800 
     82 C          -4.5782  -27.0816  -47.1892 C.2       14 UNK         0.5000 
     83 O          -4.4166  -28.3019  -47.1492 O.2       14 UNK        -0.5000 
     84 N          -3.5724  -26.2099  -47.3622 N.am      15 UNK        -0.5000 
     85 CA         -2.1808  -26.5886  -47.6214 C.3       15 UNK         0.1400 
     86 CB         -1.2696  -25.3927  -47.3071 C.3       15 UNK        -0.1800 
     87 C          -1.9384  -27.0986  -49.0594 C.2       15 UNK         0.5000 
     88 O          -0.8945  -27.7058  -49.3039 O.2       15 UNK        -0.5000 
     89 N          -2.9018  -26.8659  -49.9662 N.am      16 UNK        -0.5000 
     90 CA         -2.9199  -27.2526  -51.3807 C.3       16 UNK         0.1400 
     91 CB         -2.8791  -28.7899  -51.5260 C.3       16 UNK        -0.1800 
     92 C          -1.8454  -26.5407  -52.2334 C.2       16 UNK         0.5000 
     93 O          -1.1968  -25.6004  -51.7683 O.2       16 UNK        -0.5000 
     94 N          -1.7072  -26.9773  -53.4943 N.am      17 UNK        -0.5000 
     95 CA         -0.7684  -26.4744  -54.5035 C.3       17 UNK         0.1400 
     96 CB          0.6740  -26.9017  -54.1478 C.3       17 UNK        -0.1800 
     97 C          -0.9407  -24.9587  -54.7444 C.2       17 UNK         0.5000 
     98 O          -2.0340  -24.5332  -55.1202 O.2       17 UNK        -0.5000 
     99 N           0.1145  -24.1696  -54.5013 N.am      18 UNK        -0.5000 
    100 CA         0.1284  -22.7115  -54.6387 C.3       18 UNK         0.1400 
    101 CB         1.5678  -22.2052  -54.4610 C.3       18 UNK        -0.1800 
    102 C         -0.8182  -21.9805  -53.6672 C.2       18 UNK         0.5000 
    103 O         -1.2634  -20.8782  -53.9819 O.2       18 UNK        -0.5000 
    104 N         -1.1322  -22.5977  -52.5192 N.am      19 UNK        -0.5000 
    105 CA        -2.0700  -22.0528  -51.5389 C.3       19 UNK         0.1400 
    106 CB        -1.9258  -22.8180  -50.2209 C.3       19 UNK        -0.1800 
    107 C         -3.5233  -22.1030  -52.0399 C.2       19 UNK         0.5000 
    108 O         -4.2899  -21.1696  -51.8036 O.2       19 UNK        -0.5000 
    109 N         -3.8708  -23.1726  -52.7692 N.am      20 UNK        -0.5000 
    110 CA        -5.1977  -23.3908  -53.3519 C.3       20 UNK         0.1400 
    111 CB        -5.3317  -24.8605  -53.7770 C.3       20 UNK        -0.1800 
    112 C         -5.5337  -22.4387  -54.5175 C.2       20 UNK         0.5000 
    113 O         -6.6929  -22.3796  -54.9283 O.2       20 UNK        -0.5000 
    114 N         -4.5362  -21.6925  -55.0138 N.am      21 UNK        -0.5000 
    115 CA        -4.7009  -20.6485  -56.0242 C.3       21 UNK         0.1400 
    116 CB        -3.3257  -20.2790  -56.6006 C.3       21 UNK        -0.1800 
    117 C         -5.4247  -19.3919  -55.4966 C.2       21 UNK         0.5000 
    118 O         -5.9126  -18.6088  -56.3131 O.2       21 UNK        -0.5000 
    119 N         -5.4963  -19.2116  -54.1691 N.am      22 UNK        -0.5000 
    120 CA        -6.2168  -18.0961  -53.5353 C.3       22 UNK         0.1400 
    121 C         -6.8525  -18.4157  -52.1525 C.2       22 UNK         0.5000 
    122 N         -6.4841  -19.4835  -51.4560 N.am      22 UNK        -0.7600 
    123 O         -7.7340  -17.6850  -51.7082 O.2       22 UNK        -0.5000 
    124 C124       -5.4004  -16.7761  -53.5373 C.3       23 UNK        -0.0398 
    125 S125       -3.9408  -16.7843  -52.4388 S.3       23 UNK        -0.2404 
    126 C126       -2.6037  -17.2094  -53.5946 C.3       23 UNK        -0.0205 
    127 H127       -0.3790   -8.3604  -48.3016 H         1 UNK         0.0600 
    128 H128        0.8714   -8.4775  -49.5432 H         1 UNK         0.0600 
    129 H129       -0.8331   -8.5375  -50.0000 H         1 UNK         0.0600 
    130 H130        1.8266  -10.4583  -49.5696 H         1 UNK         0.3000 
    131 H131        2.3008  -12.5792  -49.5898 H         1 UNK         0.0600 
    132 H132        0.6478  -14.3764  -50.0352 H         1 UNK         0.0800 
    133 H133       -0.6695  -13.2663  -49.8307 H         1 UNK         0.0800 
    134 H134        1.5188  -14.0280  -53.7150 H         1 UNK         0.0800 
    135 H135        2.3782  -14.2696  -52.2140 H         1 UNK         0.0800 
    136 H136       -0.9940  -15.0120  -53.7482 H         1 UNK         0.1150 
    137 H137       -1.2376  -18.8987  -51.9656 H         1 UNK         0.1150 
    138 H138        2.1451  -16.3894  -51.1724 H         1 UNK         0.1150 
    139 H139        0.5859  -19.7707  -50.6650 H         1 UNK         0.0800 
    140 H140        2.1449  -19.0095  -50.8492 H         1 UNK         0.0800 
    141 H141       -1.2737  -18.1543  -49.2850 H         1 UNK         0.0800 
    142 H142       -0.9291  -17.6902  -47.6406 H         1 UNK         0.0800 
    143 H143       -0.7731  -20.5374  -48.7053 H         1 UNK         0.0600 
    144 H144       -0.1987  -19.4726  -46.0124 H         1 UNK         0.3000 
    145 H145        0.9570  -22.6566  -44.8893 H         1 UNK         0.0600 
    146 H146        2.9626  -21.3257  -44.3135 H         1 UNK         0.0600 
    147 H147        2.9246  -21.6317  -46.0428 H         1 UNK         0.0600 
    148 H148        2.4707  -20.0482  -45.4261 H         1 UNK         0.0600 
    149 H149        0.8348  -20.1743  -43.5397 H         1 UNK         0.3000 
    150 H150       -2.5388  -20.5277  -42.3092 H         1 UNK         0.0600 
    151 H151       -1.0177  -21.8904  -40.8672 H         1 UNK         0.0600 
    152 H152       -1.2862  -20.2907  -40.1907 H         1 UNK         0.0600 
    153 H153        0.2318  -20.6585  -41.0054 H         1 UNK         0.0600 
    154 H154       -0.5588  -18.5023  -41.9115 H         1 UNK         0.3000 
    155 H155       -1.6665  -16.3304  -44.5489 H         1 UNK         0.0600 
    156 H156       -1.6181  -14.8305  -42.4902 H         1 UNK         0.0600 
    157 H157       -1.8410  -16.2578  -41.4891 H         1 UNK         0.0600 
    158 H158       -3.0876  -15.7864  -42.6325 H         1 UNK         0.0600 
    159 H159        0.4683  -16.0258  -42.7339 H         1 UNK         0.3000 
    160 H160        2.9938  -17.8037  -44.5447 H         1 UNK         0.0600 
    161 H161        2.4950  -14.8251  -44.0209 H         1 UNK         0.0600 
    162 H162        2.8721  -15.5570  -45.5726 H         1 UNK         0.0600 
    163 H163        4.0687  -15.5715  -44.2872 H         1 UNK         0.0600 
    164 H164        2.9079  -16.3365  -42.0587 H         1 UNK         0.3000 
    165 H165        2.3395  -19.1816  -39.9665 H         1 UNK         0.0600 
    166 H166        4.8060  -17.4165  -40.4302 H         1 UNK         0.0600 
    167 H167        4.4528  -18.3496  -38.9758 H         1 UNK         0.0600 
    168 H168        4.7847  -19.1750  -40.4901 H         1 UNK         0.0600 
    169 H169        2.7858  -16.4110  -39.4044 H         1 UNK         0.3000 
    170 H170       -0.5809  -15.3130  -39.6199 H         1 UNK         0.0600 
    171 H171       -0.4951  -16.4352  -37.3872 H         1 UNK         0.0600 
    172 H172        1.1380  -15.8307  -37.1349 H         1 UNK         0.0600 
    173 H173       -0.2172  -14.7069  -37.2480 H         1 UNK         0.0600 
    174 H174        1.7085  -13.9586  -38.6956 H         1 UNK         0.3000 
    175 H175        2.3125  -12.0899  -40.1667 H         1 UNK         0.0600 
    176 H176        4.7611  -12.5532  -40.5857 H         1 UNK         0.0600 
    177 H177        4.0954  -13.7259  -39.4637 H         1 UNK         0.0600 
    178 H178        4.3659  -14.1764  -41.1442 H         1 UNK         0.0600 
    179 H179        2.2038  -13.0743  -42.8751 H         1 UNK         0.3000 
    180 H180        2.2305   -9.9304  -44.2466 H         1 UNK         0.0600 
    181 H181        4.6267  -11.7690  -44.7781 H         1 UNK         0.0600 
    182 H182        4.7233  -10.0621  -44.3601 H         1 UNK         0.0600 
    183 H183        3.9958  -10.5474  -45.8831 H         1 UNK         0.0600 
    184 H184        2.3921  -12.4783  -45.5336 H         1 UNK         0.3000 
    185 H185        0.4280  -14.0642  -45.4408 H         1 UNK         0.0600 
    186 H186       -1.9673  -14.0993  -46.0121 H         1 UNK         0.0600 
    187 H187       -1.7745  -13.4953  -44.3745 H         1 UNK         0.0600 
    188 H188       -2.1156  -12.3734  -45.6832 H         1 UNK         0.0600 
    189 H189       -0.5869  -12.2490  -47.5234 H         1 UNK         0.3000 
    190 H190       -2.3964  -21.0611  -46.0175 H         1 UNK         0.3000 
    191 H191       -5.1111  -20.3679  -46.8619 H         1 UNK         0.0600 
    192 H192       -4.5113  -20.7129  -44.4370 H         1 UNK         0.0600 
    193 H193       -5.7774  -21.8078  -44.9734 H         1 UNK         0.0600 
    194 H194       -4.1343  -22.4007  -44.7817 H         1 UNK         0.0600 
    195 H195       -6.4369  -21.6500  -48.1049 H         1 UNK         0.3000 
    196 H196       -5.3441  -23.1936  -50.0738 H         1 UNK         0.0600 
    197 H197       -7.7206  -23.7196  -50.6945 H         1 UNK         0.0600 
    198 H198       -7.4974  -22.0275  -50.2904 H         1 UNK         0.0600 
    199 H199       -8.2538  -23.1197  -49.1288 H         1 UNK         0.0600 
    200 H200       -6.3941  -24.4321  -46.9965 H         1 UNK         0.3000 
    201 H201       -6.6775  -27.1930  -47.5883 H         1 UNK         0.0600 
    202 H202       -7.4719  -26.1496  -45.4810 H         1 UNK         0.0600 
    203 H203       -5.8134  -25.7739  -45.0098 H         1 UNK         0.0600 
    204 H204       -6.3461  -27.4475  -45.1190 H         1 UNK         0.0600 
    205 H205       -3.7744  -25.2129  -47.3797 H         1 UNK         0.3000 
    206 H206       -1.9142  -27.3995  -46.9405 H         1 UNK         0.0600 
    207 H207       -1.4653  -24.5537  -47.9741 H         1 UNK         0.0600 
    208 H208       -1.4094  -25.0426  -46.2841 H         1 UNK         0.0600 
    209 H209       -0.2181  -25.6587  -47.4199 H         1 UNK         0.0600 
    210 H210       -3.7228  -26.3576  -49.6589 H         1 UNK         0.3000 
    211 H211       -3.8843  -26.9152  -51.7575 H         1 UNK         0.0600 
    212 H212       -1.8911  -29.1932  -51.3018 H         1 UNK         0.0600 
    213 H213       -3.1384  -29.1030  -52.5376 H         1 UNK         0.0600 
    214 H214       -3.5938  -29.2668  -50.8548 H         1 UNK         0.0600 
    215 H215       -2.3122  -27.7231  -53.8071 H         1 UNK         0.3000 
    216 H216       -1.0329  -26.9601  -55.4437 H         1 UNK         0.0600 
    217 H217        0.7431  -27.9854  -54.0524 H         1 UNK         0.0600 
    218 H218        1.0131  -26.4696  -53.2055 H         1 UNK         0.0600 
    219 H219        1.3784  -26.6068  -54.9267 H         1 UNK         0.0600 
    220 H220        0.9665  -24.5991  -54.1712 H         1 UNK         0.3000 
    221 H221       -0.1974  -22.4688  -55.6523 H         1 UNK         0.0600 
    222 H222        1.9582  -22.4427  -53.4705 H         1 UNK         0.0600 
    223 H223        2.2360  -22.6454  -55.2013 H         1 UNK         0.0600 
    224 H224        1.6188  -21.1222  -54.5824 H         1 UNK         0.0600 
    225 H225       -0.7692  -23.5265  -52.3359 H         1 UNK         0.3000 
    226 H226       -1.8105  -21.0101  -51.3510 H         1 UNK         0.0600 
    227 H227       -0.8853  -22.8823  -49.9021 H         1 UNK         0.0600 
    228 H228       -2.4731  -22.3079  -49.4347 H         1 UNK         0.0600 
    229 H229       -2.3261  -23.8296  -50.2827 H         1 UNK         0.0600 
    230 H230       -3.1614  -23.8583  -52.9882 H         1 UNK         0.3000 
    231 H231       -5.9409  -23.2016  -52.5750 H         1 UNK         0.0600 
    232 H232       -6.2981  -25.0480  -54.2467 H         1 UNK         0.0600 
    233 H233       -5.2663  -25.5211  -52.9143 H         1 UNK         0.0600 
    234 H234       -4.5598  -25.1500  -54.4899 H         1 UNK         0.0600 
    235 H235       -3.6107  -21.8036  -54.6243 H         1 UNK         0.3000 
    236 H236       -5.3064  -21.0583  -56.8353 H         1 UNK         0.0600 
    237 H237       -3.4300  -19.5986  -57.4466 H         1 UNK         0.0600 
    238 H238       -2.6992  -19.7810  -55.8613 H         1 UNK         0.0600 
    239 H239       -2.7924  -21.1608  -56.9563 H         1 UNK         0.0600 
    240 H240       -5.0747  -19.8889  -53.5488 H         1 UNK         0.3000 
    241 H241       -7.0925  -17.9087  -54.1604 H         1 UNK         0.0600 
    242 H242       -5.6884  -20.0662  -51.7060 H         1 UNK         0.3800 
    243 H243       -6.9353  -19.6403  -50.5709 H         1 UNK         0.3800 
    244 H244       -5.0901  -16.5280  -54.5527 H         1 UNK         0.0800 
    245 H245       -6.0408  -15.9493  -53.2260 H         1 UNK         0.0800 
    246 H246       -2.7047  -18.2514  -53.9013 H         1 UNK         0.0800 
    247 H247       -2.6853  -16.6054  -54.4994 H         1 UNK         0.0800 
@<TRIPOS>BOND
     1    1    2 1    
     2    1  127 1    
     3    1  128 1    
     4    1  129 1    
     5    2    3 2    
     6    2    4 am   BACKBONE|DICT|INTERRES
     7    4    5 1    
     8    4  130 1    
     9    5    6 1    
    10    5   65 1    
    11    5  131 1    
    12    6    7 1    
    13    6  132 1    
    14    6  133 1    
    15    7    8 1    
    16    8    9 1    
    17    8  134 1    
    18    8  135 1    
    19    9   10 ar   
    20    9   14 ar   
    21   10   11 ar   
    22   10  136 1    
    23   11   12 ar   
    24   11  126 1    
    25   12   13 ar   
    26   12  137 1    
    27   13   14 ar   
    28   13   15 1    
    29   14  138 1    
    30   15   16 1    
    31   15  139 1    
    32   15  140 1    
    33   16   17 1    
    34   17   18 1    
    35   17  141 1    
    36   17  142 1    
    37   18   19 1    
    38   18   67 1    
    39   18  143 1    
    40   19   20 am   BACKBONE|DICT|INTERRES
    41   19  144 1    
    42   20   21 2    
    43   20   22 1    
    44   22   23 1    
    45   22   24 1    
    46   22  145 1    
    47   23  146 1    
    48   23  147 1    
    49   23  148 1    
    50   24   25 am   BACKBONE|DICT|INTERRES
    51   24  149 1    
    52   25   26 2    
    53   25   27 1    
    54   27   28 1    
    55   27   29 1    
    56   27  150 1    
    57   28  151 1    
    58   28  152 1    
    59   28  153 1    
    60   29   30 am   BACKBONE|DICT|INTERRES
    61   29  154 1    
    62   30   31 2    
    63   30   32 1    
    64   32   33 1    
    65   32   34 1    
    66   32  155 1    
    67   33  156 1    
    68   33  157 1    
    69   33  158 1    
    70   34   35 am   BACKBONE|DICT|INTERRES
    71   34  159 1    
    72   35   36 2    
    73   35   37 1    
    74   37   38 1    
    75   37   39 1    
    76   37  160 1    
    77   38  161 1    
    78   38  162 1    
    79   38  163 1    
    80   39   40 am   BACKBONE|DICT|INTERRES
    81   39  164 1    
    82   40   41 2    
    83   40   42 1    
    84   42   43 1    
    85   42   44 1    
    86   42  165 1    
    87   43  166 1    
    88   43  167 1    
    89   43  168 1    
    90   44   45 am   BACKBONE|DICT|INTERRES
    91   44  169 1    
    92   45   46 2    
    93   45   47 1    
    94   47   48 1    
    95   47   49 1    
    96   47  170 1    
    97   48  171 1    
    98   48  172 1    
    99   48  173 1    
   100   49   50 am   BACKBONE|DICT|INTERRES
   101   49  174 1    
   102   50   51 2    
   103   50   52 1    
   104   52   53 1    
   105   52   54 1    
   106   52  175 1    
   107   53  176 1    
   108   53  177 1    
   109   53  178 1    
   110   54   55 am   BACKBONE|DICT|INTERRES
   111   54  179 1    
   112   55   56 2    
   113   55   57 1    
   114   57   58 1    
   115   57   59 1    
   116   57  180 1    
   117   58  181 1    
   118   58  182 1    
   119   58  183 1    
   120   59   60 am   BACKBONE|DICT|INTERRES
   121   59  184 1    
   122   60   61 2    
   123   60   62 1    
   124   62   63 1    
   125   62   64 1    
   126   62  185 1    
   127   63  186 1    
   128   63  187 1    
   129   63  188 1    
   130   64   65 am   BACKBONE|DICT|INTERRES
   131   64  189 1    
   132   65   66 2    
   133   67   68 2    
   134   67   69 am   BACKBONE|DICT|INTERRES
   135   69   70 1    
   136   69  190 1    
   137   70   71 1    
   138   70   72 1    
   139   70  191 1    
   140   71  192 1    
   141   71  193 1    
   142   71  194 1    
   143   72   73 2    
   144   72   74 am   BACKBONE|DICT|INTERRES
   145   74   75 1    
   146   74  195 1    
   147   75   76 1    
   148   75   77 1    
   149   75  196 1    
   150   76  197 1    
   151   76  198 1    
   152   76  199 1    
   153   77   78 2    
   154   77   79 am   BACKBONE|DICT|INTERRES
   155   79   80 1    
   156   79  200 1    
   157   80   81 1    
   158   80   82 1    
   159   80  201 1    
   160   81  202 1    
   161   81  203 1    
   162   81  204 1    
   163   82   83 2    
   164   82   84 am   BACKBONE|DICT|INTERRES
   165   84   85 1    
   166   84  205 1    
   167   85   86 1    
   168   85   87 1    
   169   85  206 1    
   170   86  207 1    
   171   86  208 1    
   172   86  209 1    
   173   87   88 2    
   174   87   89 am   BACKBONE|DICT|INTERRES
   175   89   90 1    
   176   89  210 1    
   177   90   91 1    
   178   90   92 1    
   179   90  211 1    
   180   91  212 1    
   181   91  213 1    
   182   91  214 1    
   183   92   93 2    
   184   92   94 am   BACKBONE|DICT|INTERRES
   185   94   95 1    
   186   94  215 1    
   187   95   96 1    
   188   95   97 1    
   189   95  216 1    
   190   96  217 1    
   191   96  218 1    
   192   96  219 1    
   193   97   98 2    
   194   97   99 am   BACKBONE|DICT|INTERRES
   195   99  100 1    
   196   99  220 1    
   197  100  101 1    
   198  100  102 1    
   199  100  221 1    
   200  101  222 1    
   201  101  223 1    
   202  101  224 1    
   203  102  103 2    
   204  102  104 am   BACKBONE|DICT|INTERRES
   205  104  105 1    
   206  104  225 1    
   207  105  106 1    
   208  105  107 1    
   209  105  226 1    
   210  106  227 1    
   211  106  228 1    
   212  106  229 1    
   213  107  108 2    
   214  107  109 am   BACKBONE|DICT|INTERRES
   215  109  110 1    
   216  109  230 1    
   217  110  111 1    
   218  110  112 1    
   219  110  231 1    
   220  111  232 1    
   221  111  233 1    
   222  111  234 1    
   223  112  113 2    
   224  112  114 am   BACKBONE|DICT|INTERRES
   225  114  115 1    
   226  114  235 1    
   227  115  116 1    
   228  115  117 1    
   229  115  236 1    
   230  116  237 1    
   231  116  238 1    
   232  116  239 1    
   233  117  118 2    
   234  117  119 am   BACKBONE|DICT|INTERRES
   235  119  120 1    
   236  119  240 1    
   237  120  121 1    
   238  120  124 1    
   239  120  241 1    
   240  121  122 am   BACKBONE|DICT|INTERRES
   241  121  123 2    
   242  122  242 1    
   243  122  243 1    
   244  124  125 1    
   245  124  244 1    
   246  124  245 1    
   247  125  126 1    
   248  126  246 1    
   249  126  247 1    
@<TRIPOS>SUBSTRUCTURE
     1 UNK         1 GROUP             0       ****    0 ROOT    
