@<TRIPOS>MOLECULE
3R540
247   249    1
SMALL
USER_CHARGES


@<TRIPOS>ATOM
      1 CA         -5.8042  -15.1246  -50.7231 C.3       0 UNK        -0.1800 
      2 C          -4.7312  -14.0437  -50.7510 C.2       0 UNK         0.5000 
      3 O          -5.0559  -12.8752  -50.9661 O.2       0 UNK        -0.5000 
      4 N          -3.4655  -14.4172  -50.5401 N.am      1 UNK        -0.5000 
      5 CA         -2.3098  -13.5180  -50.5461 C.3       1 UNK         0.1400 
      6 C6         -1.6359  -13.4306  -51.9432 C.3       23 UNK        -0.0398 
      7 S7         -1.0850  -15.0358  -52.6246 S.3       23 UNK        -0.2404 
      8 C8          0.7109  -14.9526  -52.3462 C.3       23 UNK        -0.0205 
      9 C9          1.3019  -16.3421  -52.1742 C.ar      23 UNK        -0.0193 
     10 C10         1.6896  -17.0954  -53.2862 C.ar      23 UNK        -0.1150 
     11 C11         2.2232  -18.3784  -53.1226 C.ar      23 UNK        -0.0193 
     12 C12         2.3852  -18.8992  -51.8344 C.ar      23 UNK        -0.1150 
     13 C13         1.9848  -18.1595  -50.7172 C.ar      23 UNK        -0.0193 
     14 C14         1.4475  -16.8820  -50.8942 C.ar      23 UNK        -0.1150 
     15 C15         2.0925  -18.7455  -49.3199 C.3       23 UNK        -0.0205 
     16 S16         0.5725  -19.6427  -48.8751 S.3       23 UNK        -0.2404 
     17 C17         0.7326  -19.7112  -47.0644 C.3       23 UNK        -0.0398 
     18 CA          0.1952  -21.0242  -46.4486 C.3       11 UNK         0.1400 
     19 N           0.8801  -21.3493  -45.1943 N.am      11 UNK        -0.5000 
     20 C           1.6805  -22.4094  -45.0302 C.2       10 UNK         0.5000 
     21 O           1.9986  -23.1800  -45.9369 O.2       10 UNK        -0.5000 
     22 CA          2.2114  -22.6748  -43.6106 C.3       10 UNK         0.1400 
     23 CB          3.5835  -22.0108  -43.4243 C.3       10 UNK        -0.1800 
     24 N           1.3220  -22.2668  -42.5184 N.am      10 UNK        -0.5000 
     25 C           0.0667  -22.7055  -42.3259 C.2       9 UNK         0.5000 
     26 O          -0.5594  -23.3580  -43.1628 O.2       9 UNK        -0.5000 
     27 CA         -0.6085  -22.3584  -40.9782 C.3       9 UNK         0.1400 
     28 CB         -1.6863  -23.3838  -40.5729 C.3       9 UNK        -0.1800 
     29 N           0.3327  -22.1361  -39.8770 N.am      9 UNK        -0.5000 
     30 C           1.2818  -22.9654  -39.4131 C.2       8 UNK         0.5000 
     31 O           1.3993  -24.1387  -39.7696 O.2       8 UNK        -0.5000 
     32 CA          2.2923  -22.3606  -38.4068 C.3       8 UNK         0.1400 
     33 CB          3.7004  -22.9741  -38.5529 C.3       8 UNK        -0.1800 
     34 N           2.3655  -20.8910  -38.4553 N.am      8 UNK        -0.5000 
     35 C           2.6717  -20.1307  -39.5182 C.2       7 UNK         0.5000 
     36 O           3.0083  -20.5797  -40.6146 O.2       7 UNK        -0.5000 
     37 CA          2.4500  -18.6164  -39.3571 C.3       7 UNK         0.1400 
     38 CB          3.6719  -17.8191  -39.8396 C.3       7 UNK        -0.1800 
     39 N           1.2557  -18.1817  -40.0900 N.am      7 UNK        -0.5000 
     40 C           0.0046  -18.5985  -39.8335 C.2       6 UNK         0.5000 
     41 O          -0.2699  -19.3934  -38.9336 O.2       6 UNK        -0.5000 
     42 CA         -1.1469  -18.0619  -40.7050 C.3       6 UNK         0.1400 
     43 CB         -1.9803  -17.0377  -39.9202 C.3       6 UNK        -0.1800 
     44 N          -0.7150  -17.4484  -41.9565 N.am      6 UNK        -0.5000 
     45 C          -0.2773  -18.1070  -43.0359 C.2       5 UNK         0.5000 
     46 O          -0.1925  -19.3360  -43.1175 O.2       5 UNK        -0.5000 
     47 CA          0.1229  -17.2383  -44.2431 C.3       5 UNK         0.1400 
     48 CB         -1.0901  -17.0757  -45.1757 C.3       5 UNK        -0.1800 
     49 N           0.6576  -15.9071  -43.9274 N.am      5 UNK        -0.5000 
     50 C           1.6641  -15.6329  -43.0807 C.2       4 UNK         0.5000 
     51 O           2.2241  -16.4917  -42.4007 O.2       4 UNK        -0.5000 
     52 CA          2.1405  -14.1696  -42.9582 C.3       4 UNK         0.1400 
     53 CB          3.6046  -14.0409  -43.4090 C.3       4 UNK        -0.1800 
     54 N           1.3376  -13.2122  -43.7190 N.am      4 UNK        -0.5000 
     55 C           0.1170  -12.7721  -43.3850 C.2       3 UNK         0.5000 
     56 O          -0.4713  -13.1087  -42.3572 O.2       3 UNK        -0.5000 
     57 CA         -0.5697  -11.8153  -44.3837 C.3       3 UNK         0.1400 
     58 CB         -0.4295  -10.3591  -43.9144 C.3       3 UNK        -0.1800 
     59 N          -0.0594  -11.9261  -45.7575 N.am      3 UNK        -0.5000 
     60 C          -0.1870  -13.0145  -46.5289 C.2       2 UNK         0.5000 
     61 O          -0.7584  -14.0368  -46.1522 O.2       2 UNK        -0.5000 
     62 CA          0.4753  -12.9538  -47.9189 C.3       2 UNK         0.1400 
     63 CB          1.5187  -14.0758  -48.0989 C.3       2 UNK        -0.1800 
     64 N          -0.5090  -12.9275  -49.0076 N.am      2 UNK        -0.5000 
     65 C          -1.3249  -13.9083  -49.4256 C.2       1 UNK         0.5000 
     66 O          -1.3149  -15.0594  -48.9879 O.2       1 UNK        -0.5000 
     67 C          -1.3346  -21.0115  -46.2488 C.2       11 UNK         0.5000 
     68 O          -2.0696  -21.2115  -47.2166 O.2       11 UNK        -0.5000 
     69 N          -1.8142  -20.8371  -45.0055 N.am      12 UNK        -0.5000 
     70 CA         -3.2323  -20.9245  -44.6386 C.3       12 UNK         0.1400 
     71 CB         -3.4201  -20.5188  -43.1718 C.3       12 UNK        -0.1800 
     72 C          -3.8454  -22.3138  -44.9046 C.2       12 UNK         0.5000 
     73 O          -5.0269  -22.3947  -45.2383 O.2       12 UNK        -0.5000 
     74 N          -3.0218  -23.3708  -44.8394 N.am      13 UNK        -0.5000 
     75 CA         -3.3656  -24.7343  -45.2556 C.3       13 UNK         0.1400 
     76 CB         -2.2131  -25.6759  -44.8761 C.3       13 UNK        -0.1800 
     77 C          -3.6956  -24.8657  -46.7601 C.2       13 UNK         0.5000 
     78 O          -4.4193  -25.7868  -47.1386 O.2       13 UNK        -0.5000 
     79 N          -3.1911  -23.9333  -47.5807 N.am      14 UNK        -0.5000 
     80 CA         -3.4941  -23.7888  -49.0058 C.3       14 UNK         0.1400 
     81 CB         -2.1782  -23.5691  -49.7727 C.3       14 UNK        -0.1800 
     82 C          -4.4875  -22.6346  -49.2560 C.2       14 UNK         0.5000 
     83 O          -4.5618  -22.1325  -50.3797 O.2       14 UNK        -0.5000 
     84 N          -5.2129  -22.2128  -48.2078 N.am      15 UNK        -0.5000 
     85 CA         -6.1840  -21.1152  -48.1791 C.3       15 UNK         0.1400 
     86 CB         -7.4076  -21.4492  -49.0586 C.3       15 UNK        -0.1800 
     87 C          -5.5464  -19.7502  -48.5096 C.2       15 UNK         0.5000 
     88 O          -6.1444  -18.9500  -49.2276 O.2       15 UNK        -0.5000 
     89 N          -4.3193  -19.5283  -48.0108 N.am      16 UNK        -0.5000 
     90 CA         -3.4495  -18.3811  -48.3035 C.3       16 UNK         0.1400 
     91 CB         -4.0572  -17.0694  -47.7642 C.3       16 UNK        -0.1800 
     92 C          -3.0824  -18.3365  -49.8008 C.2       16 UNK         0.5000 
     93 O          -3.1441  -17.2838  -50.4326 O.2       16 UNK        -0.5000 
     94 N          -2.7680  -19.5247  -50.3351 N.am      17 UNK        -0.5000 
     95 CA         -2.4655  -19.8517  -51.7296 C.3       17 UNK         0.1400 
     96 CB         -1.2601  -19.0568  -52.2556 C.3       17 UNK        -0.1800 
     97 C          -3.6594  -19.7782  -52.6990 C.2       17 UNK         0.5000 
     98 O          -3.4600  -20.0102  -53.8923 O.2       17 UNK        -0.5000 
     99 N          -4.8818  -19.5278  -52.2076 N.am      18 UNK        -0.5000 
    100 CA        -6.0940  -19.5148  -53.0309 C.3       18 UNK         0.1400 
    101 CB        -7.2647  -18.9184  -52.2376 C.3       18 UNK        -0.1800 
    102 C         -6.4612  -20.9037  -53.5906 C.2       18 UNK         0.5000 
    103 O         -7.0342  -20.9767  -54.6783 O.2       18 UNK        -0.5000 
    104 N         -6.1073  -21.9757  -52.8650 N.am      19 UNK        -0.5000 
    105 CA        -6.2713  -23.3563  -53.3239 C.3       19 UNK         0.1400 
    106 CB        -6.4000  -24.2898  -52.1101 C.3       19 UNK        -0.1800 
    107 C         -5.1065  -23.8053  -54.2266 C.2       19 UNK         0.5000 
    108 O         -5.3124  -24.6463  -55.1022 O.2       19 UNK        -0.5000 
    109 N         -3.9080  -23.2488  -53.9966 N.am      20 UNK        -0.5000 
    110 CA        -2.6975  -23.5403  -54.7676 C.3       20 UNK         0.1400 
    111 CB        -1.4584  -23.1127  -53.9648 C.3       20 UNK        -0.1800 
    112 C         -2.7004  -22.8616  -56.1483 C.2       20 UNK         0.5000 
    113 O         -2.2695  -23.4759  -57.1247 O.2       20 UNK        -0.5000 
    114 N         -3.1766  -21.6079  -56.1922 N.am      21 UNK        -0.5000 
    115 CA        -3.2507  -20.7187  -57.3569 C.3       21 UNK         0.1400 
    116 CB        -4.2277  -21.2750  -58.4136 C.3       21 UNK        -0.1800 
    117 C         -1.8674  -20.3523  -57.9418 C.2       21 UNK         0.5000 
    118 O         -1.7575  -20.0702  -59.1364 O.2       21 UNK        -0.5000 
    119 N         -0.8360  -20.3545  -57.0874 N.am      22 UNK        -0.5000 
    120 CA         0.5559  -20.0147  -57.4278 C.3       22 UNK         0.1400 
    121 C          0.8505  -18.4893  -57.5457 C.2       22 UNK         0.5000 
    122 N         -0.0646  -17.6007  -57.1778 N.am      22 UNK        -0.7600 
    123 O          1.9276  -18.1053  -57.9932 O.2       22 UNK        -0.5000 
    124 C124        1.5646  -20.7352  -56.4926 C.3       23 UNK        -0.0398 
    125 S125        1.2791  -20.4151  -54.7169 S.3       23 UNK        -0.2404 
    126 C126        2.5920  -19.2117  -54.3395 C.3       23 UNK        -0.0205 
    127 H127       -6.4890  -14.9975  -51.5614 H         1 UNK         0.0600 
    128 H128       -5.3815  -16.1256  -50.7906 H         1 UNK         0.0600 
    129 H129       -6.3792  -15.0592  -49.7997 H         1 UNK         0.0600 
    130 H130       -3.2378  -15.3975  -50.3711 H         1 UNK         0.3000 
    131 H131       -2.6577  -12.5150  -50.2894 H         1 UNK         0.0600 
    132 H132       -2.3490  -13.0079  -52.6520 H         1 UNK         0.0800 
    133 H133       -0.8008  -12.7287  -51.9275 H         1 UNK         0.0800 
    134 H134        0.9258  -14.3554  -51.4590 H         1 UNK         0.0800 
    135 H135        1.1843  -14.4401  -53.1848 H         1 UNK         0.0800 
    136 H136        1.5547  -16.6909  -54.2796 H         1 UNK         0.1150 
    137 H137        2.7834  -19.8957  -51.7049 H         1 UNK         0.1150 
    138 H138        1.1174  -16.3159  -50.0348 H         1 UNK         0.1150 
    139 H139        2.9477  -19.4197  -49.2531 H         1 UNK         0.0800 
    140 H140        2.2702  -17.9430  -48.6019 H         1 UNK         0.0800 
    141 H141        1.7897  -19.5991  -46.8180 H         1 UNK         0.0800 
    142 H142        0.2346  -18.8391  -46.6538 H         1 UNK         0.0800 
    143 H143        0.3755  -21.8236  -47.1704 H         1 UNK         0.0600 
    144 H144        0.6838  -20.7648  -44.3898 H         1 UNK         0.3000 
    145 H145        2.3462  -23.7544  -43.5200 H         1 UNK         0.0600 
    146 H146        4.0419  -22.3133  -42.4825 H         1 UNK         0.0600 
    147 H147        4.2709  -22.2934  -44.2227 H         1 UNK         0.0600 
    148 H148        3.5052  -20.9228  -43.4254 H         1 UNK         0.0600 
    149 H149        1.7537  -21.7035  -41.7927 H         1 UNK         0.3000 
    150 H150       -1.1012  -21.3991  -41.1324 H         1 UNK         0.0600 
    151 H151       -2.4677  -23.4565  -41.3305 H         1 UNK         0.0600 
    152 H152       -2.1692  -23.0988  -39.6383 H         1 UNK         0.0600 
    153 H153       -1.2644  -24.3808  -40.4430 H         1 UNK         0.0600 
    154 H154        0.3048  -21.2024  -39.4782 H         1 UNK         0.3000 
    155 H155        1.9194  -22.6166  -37.4142 H         1 UNK         0.0600 
    156 H156        4.3974  -22.5365  -37.8383 H         1 UNK         0.0600 
    157 H157        4.1063  -22.8224  -39.5536 H         1 UNK         0.0600 
    158 H158        3.6817  -24.0487  -38.3681 H         1 UNK         0.0600 
    159 H159        2.0420  -20.4214  -37.6204 H         1 UNK         0.3000 
    160 H160        2.2978  -18.3888  -38.3001 H         1 UNK         0.0600 
    161 H161        3.8848  -18.0044  -40.8932 H         1 UNK         0.0600 
    162 H162        4.5630  -18.0922  -39.2733 H         1 UNK         0.0600 
    163 H163        3.5199  -16.7471  -39.7131 H         1 UNK         0.0600 
    164 H164        1.4199  -17.5734  -40.8858 H         1 UNK         0.3000 
    165 H165       -1.7909  -18.9103  -40.9438 H         1 UNK         0.0600 
    166 H166       -1.3941  -16.1543  -39.6638 H         1 UNK         0.0600 
    167 H167       -2.8469  -16.7108  -40.4952 H         1 UNK         0.0600 
    168 H168       -2.3538  -17.4660  -38.9890 H         1 UNK         0.0600 
    169 H169       -0.7397  -16.4397  -41.9965 H         1 UNK         0.3000 
    170 H170        0.9120  -17.7774  -44.7681 H         1 UNK         0.0600 
    171 H171       -1.5984  -18.0237  -45.3513 H         1 UNK         0.0600 
    172 H172       -1.8282  -16.3909  -44.7563 H         1 UNK         0.0600 
    173 H173       -0.7918  -16.6856  -46.1492 H         1 UNK         0.0600 
    174 H174        0.2548  -15.1405  -44.4524 H         1 UNK         0.3000 
    175 H175        2.0854  -13.9024  -41.9009 H         1 UNK         0.0600 
    176 H176        3.7253  -14.2994  -44.4618 H         1 UNK         0.0600 
    177 H177        3.9737  -13.0250  -43.2672 H         1 UNK         0.0600 
    178 H178        4.2535  -14.7018  -42.8324 H         1 UNK         0.0600 
    179 H179        1.7386  -12.8781  -44.5825 H         1 UNK         0.3000 
    180 H180       -1.6318  -12.0690  -44.3980 H         1 UNK         0.0600 
    181 H181       -0.8260  -10.2333  -42.9059 H         1 UNK         0.0600 
    182 H182        0.6133  -10.0397  -43.8992 H         1 UNK         0.0600 
    183 H183       -0.9805   -9.6796  -44.5649 H         1 UNK         0.0600 
    184 H184        0.4226  -11.1168  -46.1221 H         1 UNK         0.3000 
    185 H185        1.0147  -12.0082  -47.9924 H         1 UNK         0.0600 
    186 H186        2.3216  -13.9766  -47.3677 H         1 UNK         0.0600 
    187 H187        1.0848  -15.0668  -47.9628 H         1 UNK         0.0600 
    188 H188        1.9737  -14.0393  -49.0885 H         1 UNK         0.0600 
    189 H189       -0.6216  -12.0189  -49.4354 H         1 UNK         0.3000 
    190 H190       -1.1726  -20.6290  -44.2497 H         1 UNK         0.3000 
    191 H191       -3.7756  -20.2042  -45.2529 H         1 UNK         0.0600 
    192 H192       -4.4763  -20.5241  -42.8992 H         1 UNK         0.0600 
    193 H193       -3.0458  -19.5121  -42.9888 H         1 UNK         0.0600 
    194 H194       -2.9082  -21.2037  -42.4990 H         1 UNK         0.0600 
    195 H195       -2.0771  -23.2339  -44.4921 H         1 UNK         0.3000 
    196 H196       -4.2543  -25.0388  -44.6993 H         1 UNK         0.0600 
    197 H197       -2.4328  -26.7042  -45.1658 H         1 UNK         0.0600 
    198 H198       -2.0409  -25.6724  -43.7995 H         1 UNK         0.0600 
    199 H199       -1.2815  -25.3865  -45.3644 H         1 UNK         0.0600 
    200 H200       -2.6367  -23.1837  -47.1838 H         1 UNK         0.3000 
    201 H201       -3.9602  -24.6985  -49.3887 H         1 UNK         0.0600 
    202 H202       -1.4766  -24.3835  -49.5921 H         1 UNK         0.0600 
    203 H203       -1.6902  -22.6372  -49.4852 H         1 UNK         0.0600 
    204 H204       -2.3554  -23.5292  -50.8474 H         1 UNK         0.0600 
    205 H205       -5.0663  -22.6671  -47.3140 H         1 UNK         0.3000 
    206 H206       -6.5339  -21.0397  -47.1489 H         1 UNK         0.0600 
    207 H207       -7.8579  -22.3957  -48.7600 H         1 UNK         0.0600 
    208 H208       -8.1776  -20.6823  -48.9679 H         1 UNK         0.0600 
    209 H209       -7.1440  -21.5253  -50.1129 H         1 UNK         0.0600 
    210 H210       -3.8656  -20.2847  -47.5119 H         1 UNK         0.3000 
    211 H211       -2.5145  -18.5487  -47.7679 H         1 UNK         0.0600 
    212 H212       -4.9605  -16.7833  -48.3021 H         1 UNK         0.0600 
    213 H213       -3.3497  -16.2462  -47.8567 H         1 UNK         0.0600 
    214 H214       -4.3087  -17.1587  -46.7076 H         1 UNK         0.0600 
    215 H215       -2.7893  -20.3208  -49.7133 H         1 UNK         0.3000 
    216 H216       -2.1737  -20.9021  -51.7154 H         1 UNK         0.0600 
    217 H217       -1.4400  -17.9831  -52.2583 H         1 UNK         0.0600 
    218 H218       -1.0097  -19.3407  -53.2768 H         1 UNK         0.0600 
    219 H219       -0.3816  -19.2501  -51.6467 H         1 UNK         0.0600 
    220 H220       -4.9946  -19.3630  -51.2157 H         1 UNK         0.3000 
    221 H221       -5.9046  -18.8592  -53.8836 H         1 UNK         0.0600 
    222 H222       -7.5548  -19.5569  -51.4041 H         1 UNK         0.0600 
    223 H223       -7.0136  -17.9360  -51.8376 H         1 UNK         0.0600 
    224 H224       -8.1422  -18.7969  -52.8736 H         1 UNK         0.0600 
    225 H225       -5.6294  -21.8436  -51.9772 H         1 UNK         0.3000 
    226 H226       -7.1949  -23.4334  -53.9017 H         1 UNK         0.0600 
    227 H227       -7.1763  -23.9480  -51.4252 H         1 UNK         0.0600 
    228 H228       -6.6651  -25.2993  -52.4264 H         1 UNK         0.0600 
    229 H229       -5.4659  -24.3613  -51.5537 H         1 UNK         0.0600 
    230 H230       -3.8360  -22.5520  -53.2713 H         1 UNK         0.3000 
    231 H231       -2.6393  -24.6194  -54.9259 H         1 UNK         0.0600 
    232 H232       -1.4593  -22.0435  -53.7532 H         1 UNK         0.0600 
    233 H233       -1.3971  -23.6462  -53.0171 H         1 UNK         0.0600 
    234 H234       -0.5432  -23.3319  -54.5165 H         1 UNK         0.0600 
    235 H235       -3.4438  -21.1705  -55.3122 H         1 UNK         0.3000 
    236 H236       -3.6721  -19.7833  -56.9861 H         1 UNK         0.0600 
    237 H237       -5.1929  -21.5161  -57.9680 H         1 UNK         0.0600 
    238 H238       -4.4095  -20.5438  -59.2021 H         1 UNK         0.0600 
    239 H239       -3.8419  -22.1773  -58.8885 H         1 UNK         0.0600 
    240 H240       -1.0085  -20.5796  -56.1184 H         1 UNK         0.3000 
    241 H241        0.7404  -20.4077  -58.4294 H         1 UNK         0.0600 
    242 H242       -0.9488  -17.9020  -56.8026 H         1 UNK         0.3800 
    243 H243        0.1343  -16.6171  -57.2678 H         1 UNK         0.3800 
    244 H244        2.5940  -20.4879  -56.7577 H         1 UNK         0.0800 
    245 H245        1.4802  -21.8121  -56.6437 H         1 UNK         0.0800 
    246 H246        2.7597  -18.5597  -55.1978 H         1 UNK         0.0800 
    247 H247        3.5302  -19.7399  -54.1637 H         1 UNK         0.0800 
@<TRIPOS>BOND
     1    1    2 1    
     2    1  127 1    
     3    1  128 1    
     4    1  129 1    
     5    2    3 2    
     6    2    4 am   BACKBONE|DICT|INTERRES
     7    4    5 1    
     8    4  130 1    
     9    5    6 1    
    10    5   65 1    
    11    5  131 1    
    12    6    7 1    
    13    6  132 1    
    14    6  133 1    
    15    7    8 1    
    16    8    9 1    
    17    8  134 1    
    18    8  135 1    
    19    9   10 ar   
    20    9   14 ar   
    21   10   11 ar   
    22   10  136 1    
    23   11   12 ar   
    24   11  126 1    
    25   12   13 ar   
    26   12  137 1    
    27   13   14 ar   
    28   13   15 1    
    29   14  138 1    
    30   15   16 1    
    31   15  139 1    
    32   15  140 1    
    33   16   17 1    
    34   17   18 1    
    35   17  141 1    
    36   17  142 1    
    37   18   19 1    
    38   18   67 1    
    39   18  143 1    
    40   19   20 am   BACKBONE|DICT|INTERRES
    41   19  144 1    
    42   20   21 2    
    43   20   22 1    
    44   22   23 1    
    45   22   24 1    
    46   22  145 1    
    47   23  146 1    
    48   23  147 1    
    49   23  148 1    
    50   24   25 am   BACKBONE|DICT|INTERRES
    51   24  149 1    
    52   25   26 2    
    53   25   27 1    
    54   27   28 1    
    55   27   29 1    
    56   27  150 1    
    57   28  151 1    
    58   28  152 1    
    59   28  153 1    
    60   29   30 am   BACKBONE|DICT|INTERRES
    61   29  154 1    
    62   30   31 2    
    63   30   32 1    
    64   32   33 1    
    65   32   34 1    
    66   32  155 1    
    67   33  156 1    
    68   33  157 1    
    69   33  158 1    
    70   34   35 am   BACKBONE|DICT|INTERRES
    71   34  159 1    
    72   35   36 2    
    73   35   37 1    
    74   37   38 1    
    75   37   39 1    
    76   37  160 1    
    77   38  161 1    
    78   38  162 1    
    79   38  163 1    
    80   39   40 am   BACKBONE|DICT|INTERRES
    81   39  164 1    
    82   40   41 2    
    83   40   42 1    
    84   42   43 1    
    85   42   44 1    
    86   42  165 1    
    87   43  166 1    
    88   43  167 1    
    89   43  168 1    
    90   44   45 am   BACKBONE|DICT|INTERRES
    91   44  169 1    
    92   45   46 2    
    93   45   47 1    
    94   47   48 1    
    95   47   49 1    
    96   47  170 1    
    97   48  171 1    
    98   48  172 1    
    99   48  173 1    
   100   49   50 am   BACKBONE|DICT|INTERRES
   101   49  174 1    
   102   50   51 2    
   103   50   52 1    
   104   52   53 1    
   105   52   54 1    
   106   52  175 1    
   107   53  176 1    
   108   53  177 1    
   109   53  178 1    
   110   54   55 am   BACKBONE|DICT|INTERRES
   111   54  179 1    
   112   55   56 2    
   113   55   57 1    
   114   57   58 1    
   115   57   59 1    
   116   57  180 1    
   117   58  181 1    
   118   58  182 1    
   119   58  183 1    
   120   59   60 am   BACKBONE|DICT|INTERRES
   121   59  184 1    
   122   60   61 2    
   123   60   62 1    
   124   62   63 1    
   125   62   64 1    
   126   62  185 1    
   127   63  186 1    
   128   63  187 1    
   129   63  188 1    
   130   64   65 am   BACKBONE|DICT|INTERRES
   131   64  189 1    
   132   65   66 2    
   133   67   68 2    
   134   67   69 am   BACKBONE|DICT|INTERRES
   135   69   70 1    
   136   69  190 1    
   137   70   71 1    
   138   70   72 1    
   139   70  191 1    
   140   71  192 1    
   141   71  193 1    
   142   71  194 1    
   143   72   73 2    
   144   72   74 am   BACKBONE|DICT|INTERRES
   145   74   75 1    
   146   74  195 1    
   147   75   76 1    
   148   75   77 1    
   149   75  196 1    
   150   76  197 1    
   151   76  198 1    
   152   76  199 1    
   153   77   78 2    
   154   77   79 am   BACKBONE|DICT|INTERRES
   155   79   80 1    
   156   79  200 1    
   157   80   81 1    
   158   80   82 1    
   159   80  201 1    
   160   81  202 1    
   161   81  203 1    
   162   81  204 1    
   163   82   83 2    
   164   82   84 am   BACKBONE|DICT|INTERRES
   165   84   85 1    
   166   84  205 1    
   167   85   86 1    
   168   85   87 1    
   169   85  206 1    
   170   86  207 1    
   171   86  208 1    
   172   86  209 1    
   173   87   88 2    
   174   87   89 am   BACKBONE|DICT|INTERRES
   175   89   90 1    
   176   89  210 1    
   177   90   91 1    
   178   90   92 1    
   179   90  211 1    
   180   91  212 1    
   181   91  213 1    
   182   91  214 1    
   183   92   93 2    
   184   92   94 am   BACKBONE|DICT|INTERRES
   185   94   95 1    
   186   94  215 1    
   187   95   96 1    
   188   95   97 1    
   189   95  216 1    
   190   96  217 1    
   191   96  218 1    
   192   96  219 1    
   193   97   98 2    
   194   97   99 am   BACKBONE|DICT|INTERRES
   195   99  100 1    
   196   99  220 1    
   197  100  101 1    
   198  100  102 1    
   199  100  221 1    
   200  101  222 1    
   201  101  223 1    
   202  101  224 1    
   203  102  103 2    
   204  102  104 am   BACKBONE|DICT|INTERRES
   205  104  105 1    
   206  104  225 1    
   207  105  106 1    
   208  105  107 1    
   209  105  226 1    
   210  106  227 1    
   211  106  228 1    
   212  106  229 1    
   213  107  108 2    
   214  107  109 am   BACKBONE|DICT|INTERRES
   215  109  110 1    
   216  109  230 1    
   217  110  111 1    
   218  110  112 1    
   219  110  231 1    
   220  111  232 1    
   221  111  233 1    
   222  111  234 1    
   223  112  113 2    
   224  112  114 am   BACKBONE|DICT|INTERRES
   225  114  115 1    
   226  114  235 1    
   227  115  116 1    
   228  115  117 1    
   229  115  236 1    
   230  116  237 1    
   231  116  238 1    
   232  116  239 1    
   233  117  118 2    
   234  117  119 am   BACKBONE|DICT|INTERRES
   235  119  120 1    
   236  119  240 1    
   237  120  121 1    
   238  120  124 1    
   239  120  241 1    
   240  121  122 am   BACKBONE|DICT|INTERRES
   241  121  123 2    
   242  122  242 1    
   243  122  243 1    
   244  124  125 1    
   245  124  244 1    
   246  124  245 1    
   247  125  126 1    
   248  126  246 1    
   249  126  247 1    
@<TRIPOS>SUBSTRUCTURE
     1 UNK         1 GROUP             0       ****    0 ROOT    
