@<TRIPOS>MOLECULE
3R540
247   249    1
SMALL
USER_CHARGES


@<TRIPOS>ATOM
      1 CA          1.3745   -8.7480  -45.7525 C.3       0 UNK        -0.1800 
      2 C           1.8216  -10.0568  -46.3871 C.2       0 UNK         0.5000 
      3 O           2.9926  -10.4226  -46.2808 O.2       0 UNK        -0.5000 
      4 N           0.8919  -10.7742  -47.0332 N.am      1 UNK        -0.5000 
      5 CA          1.1355  -12.0519  -47.7182 C.3       1 UNK         0.1400 
      6 C6         -0.0254  -12.4496  -48.6609 C.3       23 UNK        -0.0398 
      7 S7         -1.6780  -12.5481  -47.8725 S.3       23 UNK        -0.2404 
      8 C8         -1.8082  -14.2900  -47.3278 C.3       23 UNK        -0.0205 
      9 C9         -1.4001  -15.3030  -48.3897 C.ar      23 UNK        -0.0193 
     10 C10        -1.9869  -15.2810  -49.6583 C.ar      23 UNK        -0.1150 
     11 C11        -1.5612  -16.1639  -50.6543 C.ar      23 UNK        -0.0193 
     12 C12        -0.5652  -17.1008  -50.3629 C.ar      23 UNK        -0.1150 
     13 C13         0.0140  -17.1478  -49.0906 C.ar      23 UNK        -0.0193 
     14 C14        -0.4067  -16.2461  -48.1097 C.ar      23 UNK        -0.1150 
     15 C15         1.1198  -18.1471  -48.7874 C.3       23 UNK        -0.0205 
     16 S16         0.4593  -19.8020  -48.4365 S.3       23 UNK        -0.2404 
     17 C17        -0.2397  -19.5692  -46.7683 C.3       23 UNK        -0.0398 
     18 CA         -0.5757  -20.9296  -46.1120 C.3       11 UNK         0.1400 
     19 N          -0.5062  -20.8895  -44.6479 N.am      11 UNK        -0.5000 
     20 C          -0.6092  -21.9672  -43.8537 C.2       10 UNK         0.5000 
     21 O          -0.7212  -23.1173  -44.2736 O.2       10 UNK        -0.5000 
     22 CA         -0.6626  -21.7152  -42.3387 C.3       10 UNK         0.1400 
     23 CB          0.7450  -21.5059  -41.7607 C.3       10 UNK        -0.1800 
     24 N          -1.5157  -20.5702  -42.0231 N.am      10 UNK        -0.5000 
     25 C          -2.8542  -20.5850  -42.1135 C.2       9 UNK         0.5000 
     26 O          -3.5098  -21.5882  -42.3926 O.2       9 UNK        -0.5000 
     27 CA         -3.5821  -19.2477  -41.8802 C.3       9 UNK         0.1400 
     28 CB         -3.9371  -19.0812  -40.3952 C.3       9 UNK        -0.1800 
     29 N          -2.8040  -18.0886  -42.3202 N.am      9 UNK        -0.5000 
     30 C          -2.4910  -17.8140  -43.5949 C.2       8 UNK         0.5000 
     31 O          -2.8444  -18.5000  -44.5530 O.2       8 UNK        -0.5000 
     32 CA         -1.5617  -16.6067  -43.8196 C.3       8 UNK         0.1400 
     33 CB         -2.3645  -15.2975  -43.8153 C.3       8 UNK        -0.1800 
     34 N          -0.4934  -16.5358  -42.8158 N.am      8 UNK        -0.5000 
     35 C           0.4568  -17.4695  -42.6766 C.2       7 UNK         0.5000 
     36 O           0.5477  -18.4571  -43.4125 O.2       7 UNK        -0.5000 
     37 CA          1.4145  -17.3182  -41.4862 C.3       7 UNK         0.1400 
     38 CB          0.6945  -17.6848  -40.1729 C.3       7 UNK        -0.1800 
     39 N           2.5447  -18.2075  -41.7169 N.am      7 UNK        -0.5000 
     40 C           3.6877  -18.2771  -41.0256 C.2       6 UNK         0.5000 
     41 O           3.9441  -17.5806  -40.0430 O.2       6 UNK        -0.5000 
     42 CA          4.7262  -19.3023  -41.5272 C.3       6 UNK         0.1400 
     43 CB          4.5563  -20.6435  -40.7969 C.3       6 UNK        -0.1800 
     44 N           4.6335  -19.5267  -42.9734 N.am      6 UNK        -0.5000 
     45 C           5.0431  -18.6405  -43.8907 C.2       5 UNK         0.5000 
     46 O           5.6734  -17.6193  -43.6055 O.2       5 UNK        -0.5000 
     47 CA          4.6935  -18.9396  -45.3608 C.3       5 UNK         0.1400 
     48 CB          3.3256  -19.6279  -45.5352 C.3       5 UNK        -0.1800 
     49 N           4.6946  -17.6818  -46.0996 N.am      5 UNK        -0.5000 
     50 C           5.1729  -17.4963  -47.3350 C.2       4 UNK         0.5000 
     51 O           5.5904  -18.4110  -48.0465 O.2       4 UNK        -0.5000 
     52 CA          5.2039  -16.0495  -47.8742 C.3       4 UNK         0.1400 
     53 CB          4.2016  -15.8720  -49.0257 C.3       4 UNK        -0.1800 
     54 N           4.9413  -15.0392  -46.8437 N.am      4 UNK        -0.5000 
     55 C           5.8299  -14.6643  -45.9096 C.2       3 UNK         0.5000 
     56 O           6.9883  -15.0818  -45.8791 O.2       3 UNK        -0.5000 
     57 CA          5.3713  -13.6654  -44.8250 C.3       3 UNK         0.1400 
     58 CB          6.0209  -12.2910  -45.0503 C.3       3 UNK        -0.1800 
     59 N           3.9223  -13.4831  -44.7405 N.am      3 UNK        -0.5000 
     60 C           3.0384  -14.4035  -44.3292 C.2       2 UNK         0.5000 
     61 O           3.3454  -15.5312  -43.9479 O.2       2 UNK        -0.5000 
     62 CA          1.5496  -14.0105  -44.4008 C.3       2 UNK         0.1400 
     63 CB          1.0956  -13.4144  -43.0593 C.3       2 UNK        -0.1800 
     64 N           1.2297  -13.0585  -45.4672 N.am      2 UNK        -0.5000 
     65 C           1.5116  -13.2098  -46.7700 C.2       1 UNK         0.5000 
     66 O           2.0741  -14.2032  -47.2280 O.2       1 UNK        -0.5000 
     67 C          -1.9337  -21.4656  -46.6066 C.2       11 UNK         0.5000 
     68 O          -1.9652  -22.3209  -47.4905 O.2       11 UNK        -0.5000 
     69 N          -3.0284  -21.0086  -45.9835 N.am      12 UNK        -0.5000 
     70 CA         -4.4007  -21.4548  -46.2429 C.3       12 UNK         0.1400 
     71 CB         -5.3723  -20.5336  -45.4905 C.3       12 UNK        -0.1800 
     72 C          -4.6712  -22.9340  -45.8913 C.2       12 UNK         0.5000 
     73 O          -5.7007  -23.4661  -46.3048 O.2       12 UNK        -0.5000 
     74 N          -3.7538  -23.5716  -45.1539 N.am      13 UNK        -0.5000 
     75 CA         -3.7530  -24.9986  -44.8374 C.3       13 UNK         0.1400 
     76 CB         -3.5136  -25.1565  -43.3260 C.3       13 UNK        -0.1800 
     77 C          -2.6900  -25.7684  -45.6519 C.2       13 UNK         0.5000 
     78 O          -2.5074  -26.9637  -45.4151 O.2       13 UNK        -0.5000 
     79 N          -2.0032  -25.0906  -46.5816 N.am      14 UNK        -0.5000 
     80 CA         -0.9115  -25.6219  -47.3881 C.3       14 UNK         0.1400 
     81 CB          0.4325  -25.2603  -46.7219 C.3       14 UNK        -0.1800 
     82 C          -1.0604  -25.1175  -48.8343 C.2       14 UNK         0.5000 
     83 O          -2.0227  -25.4911  -49.5049 O.2       14 UNK        -0.5000 
     84 N          -0.1155  -24.2915  -49.3030 N.am      15 UNK        -0.5000 
     85 CA          0.0022  -23.8273  -50.6882 C.3       15 UNK         0.1400 
     86 CB          1.2949  -23.0093  -50.8296 C.3       15 UNK        -0.1800 
     87 C          -1.2015  -23.0276  -51.2260 C.2       15 UNK         0.5000 
     88 O          -1.4503  -23.0710  -52.4309 O.2       15 UNK        -0.5000 
     89 N          -1.9282  -22.3308  -50.3437 N.am      16 UNK        -0.5000 
     90 CA         -3.1070  -21.5328  -50.6826 C.3       16 UNK         0.1400 
     91 CB         -3.0019  -20.1557  -50.0044 C.3       16 UNK        -0.1800 
     92 C          -4.4265  -22.2474  -50.3255 C.2       16 UNK         0.5000 
     93 O          -5.4825  -21.6194  -50.4068 O.2       16 UNK        -0.5000 
     94 N          -4.3700  -23.5310  -49.9333 N.am      17 UNK        -0.5000 
     95 CA         -5.5534  -24.3361  -49.6096 C.3       17 UNK         0.1400 
     96 CB         -5.1314  -25.5865  -48.8238 C.3       17 UNK        -0.1800 
     97 C          -6.3619  -24.7514  -50.8528 C.2       17 UNK         0.5000 
     98 O          -7.5723  -24.9559  -50.7464 O.2       17 UNK        -0.5000 
     99 N          -5.6831  -24.8883  -52.0000 N.am      18 UNK        -0.5000 
    100 CA        -6.2888  -25.2239  -53.2874 C.3       18 UNK         0.1400 
    101 CB        -5.1861  -25.6749  -54.2577 C.3       18 UNK        -0.1800 
    102 C         -7.0954  -24.0456  -53.8654 C.2       18 UNK         0.5000 
    103 O         -6.7556  -22.8839  -53.6253 O.2       18 UNK        -0.5000 
    104 N         -8.1474  -24.3705  -54.6272 N.am      19 UNK        -0.5000 
    105 CA        -9.0537  -23.4100  -55.2560 C.3       19 UNK         0.1400 
    106 CB       -10.2122  -24.1681  -55.9230 C.3       19 UNK        -0.1800 
    107 C         -8.3301  -22.5092  -56.2740 C.2       19 UNK         0.5000 
    108 O         -7.6888  -23.0231  -57.1931 O.2       19 UNK        -0.5000 
    109 N         -8.4515  -21.1890  -56.0763 N.am      20 UNK        -0.5000 
    110 CA        -7.8834  -20.1077  -56.8918 C.3       20 UNK         0.1400 
    111 CB        -8.5118  -20.1001  -58.3014 C.3       20 UNK        -0.1800 
    112 C         -6.3385  -20.0762  -56.9344 C.2       20 UNK         0.5000 
    113 O         -5.7705  -19.4663  -57.8423 O.2       20 UNK        -0.5000 
    114 N         -5.6758  -20.6942  -55.9442 N.am      21 UNK        -0.5000 
    115 CA        -4.2148  -20.7972  -55.8421 C.3       21 UNK         0.1400 
    116 CB        -3.8602  -21.6889  -54.6470 C.3       21 UNK        -0.1800 
    117 C         -3.4868  -19.4432  -55.7343 C.2       21 UNK         0.5000 
    118 O         -2.3581  -19.3216  -56.2121 O.2       21 UNK        -0.5000 
    119 N         -4.1565  -18.4501  -55.1383 N.am      22 UNK        -0.5000 
    120 CA        -3.7053  -17.0515  -55.0783 C.3       22 UNK         0.1400 
    121 C         -3.9721  -16.2374  -56.3819 C.2       22 UNK         0.5000 
    122 N         -4.6001  -16.7886  -57.4147 N.am      22 UNK        -0.7600 
    123 O         -3.5868  -15.0745  -56.4658 O.2       22 UNK        -0.5000 
    124 C124       -4.2732  -16.3233  -53.8327 C.3       23 UNK        -0.0398 
    125 S125       -3.6623  -17.0221  -52.2593 S.3       23 UNK        -0.2404 
    126 C126       -2.1355  -16.0534  -52.0577 C.3       23 UNK        -0.0205 
    127 H127        0.3135   -8.5590  -45.9176 H         1 UNK         0.0600 
    128 H128        1.5529   -8.7723  -44.6775 H         1 UNK         0.0600 
    129 H129        1.9381   -7.9157  -46.1741 H         1 UNK         0.0600 
    130 H130       -0.0591  -10.4346  -47.0777 H         1 UNK         0.3000 
    131 H131        2.0128  -11.9009  -48.3511 H         1 UNK         0.0600 
    132 H132        0.2081  -13.3761  -49.1866 H         1 UNK         0.0800 
    133 H133       -0.1011  -11.7004  -49.4499 H         1 UNK         0.0800 
    134 H134       -1.2033  -14.4161  -46.4302 H         1 UNK         0.0800 
    135 H135       -2.8387  -14.4886  -47.0310 H         1 UNK         0.0800 
    136 H136       -2.7496  -14.5482  -49.8819 H         1 UNK         0.1150 
    137 H137       -0.2303  -17.7859  -51.1291 H         1 UNK         0.1150 
    138 H138        0.0586  -16.2655  -47.1343 H         1 UNK         0.1150 
    139 H139        1.7279  -17.8121  -47.9456 H         1 UNK         0.0800 
    140 H140        1.7941  -18.2116  -49.6425 H         1 UNK         0.0800 
    141 H141       -1.1114  -18.9136  -46.8206 H         1 UNK         0.0800 
    142 H142        0.4970  -19.0342  -46.1704 H         1 UNK         0.0800 
    143 H143        0.1843  -21.6518  -46.4189 H         1 UNK         0.0600 
    144 H144       -0.3706  -19.9787  -44.2203 H         1 UNK         0.3000 
    145 H145       -1.0903  -22.6017  -41.8650 H         1 UNK         0.0600 
    146 H146        0.7096  -21.3094  -40.6891 H         1 UNK         0.0600 
    147 H147        1.3573  -22.3965  -41.9072 H         1 UNK         0.0600 
    148 H148        1.2632  -20.6768  -42.2386 H         1 UNK         0.0600 
    149 H149       -1.0537  -19.6970  -41.8239 H         1 UNK         0.3000 
    150 H150       -4.5108  -19.2694  -42.4539 H         1 UNK         0.0600 
    151 H151       -3.0446  -19.0289  -39.7702 H         1 UNK         0.0600 
    152 H152       -4.5372  -19.9206  -40.0411 H         1 UNK         0.0600 
    153 H153       -4.5188  -18.1746  -40.2278 H         1 UNK         0.0600 
    154 H154       -2.4700  -17.4677  -41.5984 H         1 UNK         0.3000 
    155 H155       -1.0995  -16.7224  -44.8025 H         1 UNK         0.0600 
    156 H156       -1.7351  -14.4450  -44.0664 H         1 UNK         0.0600 
    157 H157       -2.8182  -15.1036  -42.8427 H         1 UNK         0.0600 
    158 H158       -3.1693  -15.3318  -44.5508 H         1 UNK         0.0600 
    159 H159       -0.5330  -15.7658  -42.1641 H         1 UNK         0.3000 
    160 H160        1.7762  -16.2899  -41.4469 H         1 UNK         0.0600 
    161 H161        0.3613  -18.7231  -40.1729 H         1 UNK         0.0600 
    162 H162       -0.1826  -17.0571  -40.0120 H         1 UNK         0.0600 
    163 H163        1.3436  -17.5461  -39.3087 H         1 UNK         0.0600 
    164 H164        2.4294  -18.7851  -42.5393 H         1 UNK         0.3000 
    165 H165        5.7195  -18.9124  -41.2943 H         1 UNK         0.0600 
    166 H166        5.3240  -21.3565  -41.0982 H         1 UNK         0.0600 
    167 H167        3.5833  -21.0928  -40.9962 H         1 UNK         0.0600 
    168 H168        4.6415  -20.5126  -39.7173 H         1 UNK         0.0600 
    169 H169        4.1564  -20.3633  -43.2752 H         1 UNK         0.3000 
    170 H170        5.4757  -19.5972  -45.7449 H         1 UNK         0.0600 
    171 H171        3.3126  -20.6241  -45.0927 H         1 UNK         0.0600 
    172 H172        3.0779  -19.7478  -46.5900 H         1 UNK         0.0600 
    173 H173        2.5317  -19.0442  -45.0709 H         1 UNK         0.0600 
    174 H174        4.4367  -16.8695  -45.5509 H         1 UNK         0.3000 
    175 H175        6.2045  -15.8783  -48.2767 H         1 UNK         0.0600 
    176 H176        3.1784  -16.0544  -48.7006 H         1 UNK         0.0600 
    177 H177        4.2462  -14.8635  -49.4368 H         1 UNK         0.0600 
    178 H178        4.4134  -16.5654  -49.8405 H         1 UNK         0.0600 
    179 H179        3.9996  -14.6606  -46.8182 H         1 UNK         0.3000 
    180 H180        5.7159  -14.0550  -43.8648 H         1 UNK         0.0600 
    181 H181        5.6929  -11.8422  -45.9891 H         1 UNK         0.0600 
    182 H182        7.1083  -12.3703  -45.0853 H         1 UNK         0.0600 
    183 H183        5.7730  -11.6000  -44.2443 H         1 UNK         0.0600 
    184 H184        3.5663  -12.5930  -45.0628 H         1 UNK         0.3000 
    185 H185        0.9807  -14.9206  -44.5966 H         1 UNK         0.0600 
    186 H186        0.0249  -13.2130  -43.0527 H         1 UNK         0.0600 
    187 H187        1.3045  -14.0936  -42.2331 H         1 UNK         0.0600 
    188 H188        1.6107  -12.4770  -42.8451 H         1 UNK         0.0600 
    189 H189        0.7742  -12.2028  -45.1857 H         1 UNK         0.3000 
    190 H190       -2.9219  -20.2628  -45.3005 H         1 UNK         0.3000 
    191 H191       -4.5886  -21.3439  -47.3124 H         1 UNK         0.0600 
    192 H192       -6.4087  -20.7959  -45.7064 H         1 UNK         0.0600 
    193 H193       -5.2344  -19.4918  -45.7805 H         1 UNK         0.0600 
    194 H194       -5.2339  -20.6038  -44.4116 H         1 UNK         0.0600 
    195 H195       -2.9403  -23.0570  -44.8416 H         1 UNK         0.3000 
    196 H196       -4.7215  -25.4421  -45.0760 H         1 UNK         0.0600 
    197 H197       -2.5337  -24.7789  -43.0324 H         1 UNK         0.0600 
    198 H198       -4.2646  -24.6150  -42.7504 H         1 UNK         0.0600 
    199 H199       -3.5671  -26.2034  -43.0252 H         1 UNK         0.0600 
    200 H200       -2.2275  -24.1158  -46.7538 H         1 UNK         0.3000 
    201 H201       -0.9826  -26.7100  -47.4419 H         1 UNK         0.0600 
    202 H202        0.5548  -24.1823  -46.6099 H         1 UNK         0.0600 
    203 H203        1.2774  -25.6418  -47.2965 H         1 UNK         0.0600 
    204 H204        0.4999  -25.6983  -45.7258 H         1 UNK         0.0600 
    205 H205        0.6223  -24.0090  -48.6753 H         1 UNK         0.3000 
    206 H206        0.0969  -24.7156  -51.3160 H         1 UNK         0.0600 
    207 H207        2.1704  -23.6041  -50.5692 H         1 UNK         0.0600 
    208 H208        1.4311  -22.6654  -51.8558 H         1 UNK         0.0600 
    209 H209        1.2839  -22.1281  -50.1880 H         1 UNK         0.0600 
    210 H210       -1.6969  -22.3814  -49.3543 H         1 UNK         0.3000 
    211 H211       -3.1328  -21.3516  -51.7570 H         1 UNK         0.0600 
    212 H212       -3.8164  -19.5016  -50.3169 H         1 UNK         0.0600 
    213 H213       -2.0714  -19.6559  -50.2723 H         1 UNK         0.0600 
    214 H214       -3.0436  -20.2271  -48.9198 H         1 UNK         0.0600 
    215 H215       -3.4712  -23.9975  -49.8763 H         1 UNK         0.3000 
    216 H216       -6.2083  -23.7398  -48.9712 H         1 UNK         0.0600 
    217 H217       -4.5546  -26.2767  -49.4402 H         1 UNK         0.0600 
    218 H218       -6.0045  -26.1272  -48.4571 H         1 UNK         0.0600 
    219 H219       -4.5263  -25.3240  -47.9584 H         1 UNK         0.0600 
    220 H220       -4.6989  -24.6664  -52.0030 H         1 UNK         0.3000 
    221 H221       -6.9712  -26.0630  -53.1349 H         1 UNK         0.0600 
    222 H222       -4.7091  -26.5905  -53.9077 H         1 UNK         0.0600 
    223 H223       -4.4087  -24.9204  -54.3698 H         1 UNK         0.0600 
    224 H224       -5.5922  -25.8802  -55.2491 H         1 UNK         0.0600 
    225 H225       -8.3385  -25.3453  -54.8068 H         1 UNK         0.3000 
    226 H226       -9.4718  -22.7854  -54.4636 H         1 UNK         0.0600 
    227 H227       -9.8561  -24.8450  -56.7008 H         1 UNK         0.0600 
    228 H228      -10.7709  -24.7566  -55.1951 H         1 UNK         0.0600 
    229 H229      -10.9149  -23.4753  -56.3879 H         1 UNK         0.0600 
    230 H230       -8.9818  -20.8806  -55.2727 H         1 UNK         0.3000 
    231 H231       -8.1796  -19.1793  -56.4015 H         1 UNK         0.0600 
    232 H232       -9.6005  -20.1048  -58.2483 H         1 UNK         0.0600 
    233 H233       -8.2005  -20.9644  -58.8886 H         1 UNK         0.0600 
    234 H234       -8.2211  -19.2076  -58.8567 H         1 UNK         0.0600 
    235 H235       -6.2102  -21.1816  -55.2362 H         1 UNK         0.3000 
    236 H236       -3.8542  -21.2853  -56.7498 H         1 UNK         0.0600 
    237 H237       -4.2145  -22.7051  -54.8057 H         1 UNK         0.0600 
    238 H238       -2.7814  -21.7412  -54.4941 H         1 UNK         0.0600 
    239 H239       -4.3118  -21.3171  -53.7274 H         1 UNK         0.0600 
    240 H240       -5.0766  -18.6420  -54.7719 H         1 UNK         0.3000 
    241 H241       -2.6187  -17.0577  -54.9745 H         1 UNK         0.0600 
    242 H242       -4.7504  -16.2369  -58.2444 H         1 UNK         0.3800 
    243 H243       -4.9100  -17.7546  -57.4021 H         1 UNK         0.3800 
    244 H244       -5.3630  -16.3762  -53.8315 H         1 UNK         0.0800 
    245 H245       -4.0317  -15.2593  -53.8532 H         1 UNK         0.0800 
    246 H246       -2.3324  -15.0032  -52.2780 H         1 UNK         0.0800 
    247 H247       -1.4005  -16.3860  -52.7921 H         1 UNK         0.0800 
@<TRIPOS>BOND
     1    1    2 1    
     2    1  127 1    
     3    1  128 1    
     4    1  129 1    
     5    2    3 2    
     6    2    4 am   BACKBONE|DICT|INTERRES
     7    4    5 1    
     8    4  130 1    
     9    5    6 1    
    10    5   65 1    
    11    5  131 1    
    12    6    7 1    
    13    6  132 1    
    14    6  133 1    
    15    7    8 1    
    16    8    9 1    
    17    8  134 1    
    18    8  135 1    
    19    9   10 ar   
    20    9   14 ar   
    21   10   11 ar   
    22   10  136 1    
    23   11   12 ar   
    24   11  126 1    
    25   12   13 ar   
    26   12  137 1    
    27   13   14 ar   
    28   13   15 1    
    29   14  138 1    
    30   15   16 1    
    31   15  139 1    
    32   15  140 1    
    33   16   17 1    
    34   17   18 1    
    35   17  141 1    
    36   17  142 1    
    37   18   19 1    
    38   18   67 1    
    39   18  143 1    
    40   19   20 am   BACKBONE|DICT|INTERRES
    41   19  144 1    
    42   20   21 2    
    43   20   22 1    
    44   22   23 1    
    45   22   24 1    
    46   22  145 1    
    47   23  146 1    
    48   23  147 1    
    49   23  148 1    
    50   24   25 am   BACKBONE|DICT|INTERRES
    51   24  149 1    
    52   25   26 2    
    53   25   27 1    
    54   27   28 1    
    55   27   29 1    
    56   27  150 1    
    57   28  151 1    
    58   28  152 1    
    59   28  153 1    
    60   29   30 am   BACKBONE|DICT|INTERRES
    61   29  154 1    
    62   30   31 2    
    63   30   32 1    
    64   32   33 1    
    65   32   34 1    
    66   32  155 1    
    67   33  156 1    
    68   33  157 1    
    69   33  158 1    
    70   34   35 am   BACKBONE|DICT|INTERRES
    71   34  159 1    
    72   35   36 2    
    73   35   37 1    
    74   37   38 1    
    75   37   39 1    
    76   37  160 1    
    77   38  161 1    
    78   38  162 1    
    79   38  163 1    
    80   39   40 am   BACKBONE|DICT|INTERRES
    81   39  164 1    
    82   40   41 2    
    83   40   42 1    
    84   42   43 1    
    85   42   44 1    
    86   42  165 1    
    87   43  166 1    
    88   43  167 1    
    89   43  168 1    
    90   44   45 am   BACKBONE|DICT|INTERRES
    91   44  169 1    
    92   45   46 2    
    93   45   47 1    
    94   47   48 1    
    95   47   49 1    
    96   47  170 1    
    97   48  171 1    
    98   48  172 1    
    99   48  173 1    
   100   49   50 am   BACKBONE|DICT|INTERRES
   101   49  174 1    
   102   50   51 2    
   103   50   52 1    
   104   52   53 1    
   105   52   54 1    
   106   52  175 1    
   107   53  176 1    
   108   53  177 1    
   109   53  178 1    
   110   54   55 am   BACKBONE|DICT|INTERRES
   111   54  179 1    
   112   55   56 2    
   113   55   57 1    
   114   57   58 1    
   115   57   59 1    
   116   57  180 1    
   117   58  181 1    
   118   58  182 1    
   119   58  183 1    
   120   59   60 am   BACKBONE|DICT|INTERRES
   121   59  184 1    
   122   60   61 2    
   123   60   62 1    
   124   62   63 1    
   125   62   64 1    
   126   62  185 1    
   127   63  186 1    
   128   63  187 1    
   129   63  188 1    
   130   64   65 am   BACKBONE|DICT|INTERRES
   131   64  189 1    
   132   65   66 2    
   133   67   68 2    
   134   67   69 am   BACKBONE|DICT|INTERRES
   135   69   70 1    
   136   69  190 1    
   137   70   71 1    
   138   70   72 1    
   139   70  191 1    
   140   71  192 1    
   141   71  193 1    
   142   71  194 1    
   143   72   73 2    
   144   72   74 am   BACKBONE|DICT|INTERRES
   145   74   75 1    
   146   74  195 1    
   147   75   76 1    
   148   75   77 1    
   149   75  196 1    
   150   76  197 1    
   151   76  198 1    
   152   76  199 1    
   153   77   78 2    
   154   77   79 am   BACKBONE|DICT|INTERRES
   155   79   80 1    
   156   79  200 1    
   157   80   81 1    
   158   80   82 1    
   159   80  201 1    
   160   81  202 1    
   161   81  203 1    
   162   81  204 1    
   163   82   83 2    
   164   82   84 am   BACKBONE|DICT|INTERRES
   165   84   85 1    
   166   84  205 1    
   167   85   86 1    
   168   85   87 1    
   169   85  206 1    
   170   86  207 1    
   171   86  208 1    
   172   86  209 1    
   173   87   88 2    
   174   87   89 am   BACKBONE|DICT|INTERRES
   175   89   90 1    
   176   89  210 1    
   177   90   91 1    
   178   90   92 1    
   179   90  211 1    
   180   91  212 1    
   181   91  213 1    
   182   91  214 1    
   183   92   93 2    
   184   92   94 am   BACKBONE|DICT|INTERRES
   185   94   95 1    
   186   94  215 1    
   187   95   96 1    
   188   95   97 1    
   189   95  216 1    
   190   96  217 1    
   191   96  218 1    
   192   96  219 1    
   193   97   98 2    
   194   97   99 am   BACKBONE|DICT|INTERRES
   195   99  100 1    
   196   99  220 1    
   197  100  101 1    
   198  100  102 1    
   199  100  221 1    
   200  101  222 1    
   201  101  223 1    
   202  101  224 1    
   203  102  103 2    
   204  102  104 am   BACKBONE|DICT|INTERRES
   205  104  105 1    
   206  104  225 1    
   207  105  106 1    
   208  105  107 1    
   209  105  226 1    
   210  106  227 1    
   211  106  228 1    
   212  106  229 1    
   213  107  108 2    
   214  107  109 am   BACKBONE|DICT|INTERRES
   215  109  110 1    
   216  109  230 1    
   217  110  111 1    
   218  110  112 1    
   219  110  231 1    
   220  111  232 1    
   221  111  233 1    
   222  111  234 1    
   223  112  113 2    
   224  112  114 am   BACKBONE|DICT|INTERRES
   225  114  115 1    
   226  114  235 1    
   227  115  116 1    
   228  115  117 1    
   229  115  236 1    
   230  116  237 1    
   231  116  238 1    
   232  116  239 1    
   233  117  118 2    
   234  117  119 am   BACKBONE|DICT|INTERRES
   235  119  120 1    
   236  119  240 1    
   237  120  121 1    
   238  120  124 1    
   239  120  241 1    
   240  121  122 am   BACKBONE|DICT|INTERRES
   241  121  123 2    
   242  122  242 1    
   243  122  243 1    
   244  124  125 1    
   245  124  244 1    
   246  124  245 1    
   247  125  126 1    
   248  126  246 1    
   249  126  247 1    
@<TRIPOS>SUBSTRUCTURE
     1 UNK         1 GROUP             0       ****    0 ROOT    
