@<TRIPOS>MOLECULE
3R540
247   249    1
SMALL
USER_CHARGES


@<TRIPOS>ATOM
      1 CA         -5.1896  -14.9188  -48.5619 C.3       0 UNK        -0.1800 
      2 C          -4.4000  -13.6527  -48.8592 C.2       0 UNK         0.5000 
      3 O          -4.8661  -12.5585  -48.5419 O.2       0 UNK        -0.5000 
      4 N          -3.2085  -13.7912  -49.4588 N.am      1 UNK        -0.5000 
      5 CA         -2.3089  -12.6743  -49.7820 C.3       1 UNK         0.1400 
      6 C6         -1.2038  -13.0803  -50.7913 C.3       23 UNK        -0.0398 
      7 S7          0.0043  -14.3079  -50.1668 S.3       23 UNK        -0.2404 
      8 C8          0.1137  -15.4378  -51.5906 C.3       23 UNK        -0.0205 
      9 C9          1.2060  -16.4990  -51.4664 C.ar      23 UNK        -0.0193 
     10 C10         1.9401  -16.8577  -52.6027 C.ar      23 UNK        -0.1150 
     11 C11         2.9082  -17.8645  -52.5423 C.ar      23 UNK        -0.0193 
     12 C12         3.1619  -18.4956  -51.3225 C.ar      23 UNK        -0.1150 
     13 C13         2.4325  -18.1605  -50.1810 C.ar      23 UNK        -0.0193 
     14 C14         1.4577  -17.1610  -50.2573 C.ar      23 UNK        -0.1150 
     15 C15         2.7123  -18.8864  -48.8749 C.3       23 UNK        -0.0205 
     16 S16         2.0443  -20.5828  -48.8990 S.3       23 UNK        -0.2404 
     17 C17         0.7747  -20.4701  -47.6004 C.3       23 UNK        -0.0398 
     18 CA          0.1803  -21.8502  -47.2126 C.3       11 UNK         0.1400 
     19 N           0.0138  -21.9807  -45.7634 N.am      11 UNK        -0.5000 
     20 C          -0.3641  -23.0927  -45.1181 C.2       10 UNK         0.5000 
     21 O          -0.5431  -24.1795  -45.6666 O.2       10 UNK        -0.5000 
     22 CA         -0.6512  -22.9416  -43.6138 C.3       10 UNK         0.1400 
     23 CB          0.6365  -23.0721  -42.7864 C.3       10 UNK        -0.1800 
     24 N          -1.3064  -21.6652  -43.3188 N.am      10 UNK        -0.5000 
     25 C          -2.5676  -21.3731  -43.6685 C.2       9 UNK         0.5000 
     26 O          -3.3269  -22.1805  -44.2044 O.2       9 UNK        -0.5000 
     27 CA         -3.0419  -19.9281  -43.4196 C.3       9 UNK         0.1400 
     28 CB         -3.5082  -19.7530  -41.9670 C.3       9 UNK        -0.1800 
     29 N          -2.0058  -18.9373  -43.7176 N.am      9 UNK        -0.5000 
     30 C          -1.5427  -18.6675  -44.9475 C.2       8 UNK         0.5000 
     31 O          -1.9871  -19.1833  -45.9711 O.2       8 UNK        -0.5000 
     32 CA         -0.3370  -17.7130  -45.0535 C.3       8 UNK         0.1400 
     33 CB         -0.7982  -16.2725  -45.3123 C.3       8 UNK        -0.1800 
     34 N           0.5359  -17.7583  -43.8756 N.am      8 UNK        -0.5000 
     35 C           1.2094  -18.8534  -43.4842 C.2       7 UNK         0.5000 
     36 O           1.1928  -19.9062  -44.1209 O.2       7 UNK        -0.5000 
     37 CA          1.9872  -18.8084  -42.1548 C.3       7 UNK         0.1400 
     38 CB          3.4961  -18.9786  -42.3846 C.3       7 UNK        -0.1800 
     39 N           1.7378  -17.5968  -41.3735 N.am      7 UNK        -0.5000 
     40 C           0.6190  -17.3716  -40.6686 C.2       6 UNK         0.5000 
     41 O          -0.3098  -18.1774  -40.5970 O.2       6 UNK        -0.5000 
     42 CA          0.4952  -16.0084  -39.9575 C.3       6 UNK         0.1400 
     43 CB          0.9348  -16.1269  -38.4906 C.3       6 UNK        -0.1800 
     44 N           1.2557  -14.9314  -40.5988 N.am      6 UNK        -0.5000 
     45 C           1.0442  -14.4792  -41.8421 C.2       5 UNK         0.5000 
     46 O           0.1702  -14.9303  -42.5837 O.2       5 UNK        -0.5000 
     47 CA          1.9720  -13.3674  -42.3733 C.3       5 UNK         0.1400 
     48 CB          3.0649  -12.9118  -41.3799 C.3       5 UNK        -0.1800 
     49 N           2.5646  -13.7501  -43.6578 N.am      5 UNK        -0.5000 
     50 C           3.3372  -14.8206  -43.9057 C.2       4 UNK         0.5000 
     51 O           3.6990  -15.6065  -43.0295 O.2       4 UNK        -0.5000 
     52 CA          3.7656  -15.0765  -45.3681 C.3       4 UNK         0.1400 
     53 CB          3.4657  -16.5214  -45.8016 C.3       4 UNK        -0.1800 
     54 N           3.1101  -14.1727  -46.3130 N.am      4 UNK        -0.5000 
     55 C           3.5827  -12.9839  -46.7073 C.2       3 UNK         0.5000 
     56 O           4.6742  -12.5284  -46.3658 O.2       3 UNK        -0.5000 
     57 CA          2.6527  -12.1508  -47.6096 C.3       3 UNK         0.1400 
     58 CB          2.9663  -12.4125  -49.0904 C.3       3 UNK        -0.1800 
     59 N           1.2284  -12.4073  -47.3651 N.am      3 UNK        -0.5000 
     60 C           0.5732  -12.0981  -46.2351 C.2       2 UNK         0.5000 
     61 O           1.1310  -11.6064  -45.2536 O.2       2 UNK        -0.5000 
     62 CA         -0.9345  -12.4298  -46.1604 C.3       2 UNK         0.1400 
     63 CB         -1.7415  -11.3237  -45.4508 C.3       2 UNK        -0.1800 
     64 N          -1.5426  -12.7826  -47.4498 N.am      2 UNK        -0.5000 
     65 C          -1.7027  -11.9999  -48.5300 C.2       1 UNK         0.5000 
     66 O          -1.3723  -10.8148  -48.5816 O.2       1 UNK        -0.5000 
     67 C          -1.1379  -22.1508  -47.9588 C.2       11 UNK         0.5000 
     68 O          -1.1376  -22.9537  -48.8890 O.2       11 UNK        -0.5000 
     69 N          -2.2490  -21.5661  -47.4835 N.am      12 UNK        -0.5000 
     70 CA         -3.6066  -21.8030  -47.9781 C.3       12 UNK         0.1400 
     71 CB         -4.5925  -20.8637  -47.2656 C.3       12 UNK        -0.1800 
     72 C          -4.0539  -23.2646  -47.8308 C.2       12 UNK         0.5000 
     73 O          -4.6356  -23.8110  -48.7669 O.2       12 UNK        -0.5000 
     74 N          -3.7499  -23.8826  -46.6809 N.am      13 UNK        -0.5000 
     75 CA         -4.0103  -25.2981  -46.4163 C.3       13 UNK         0.1400 
     76 CB         -3.7160  -25.6176  -44.9431 C.3       13 UNK        -0.1800 
     77 C          -3.2212  -26.2258  -47.3593 C.2       13 UNK         0.5000 
     78 O          -3.8081  -27.1423  -47.9360 O.2       13 UNK        -0.5000 
     79 N          -1.9245  -25.9387  -47.5457 N.am      14 UNK        -0.5000 
     80 CA         -1.0381  -26.6408  -48.4787 C.3       14 UNK         0.1400 
     81 CB          0.4057  -26.1577  -48.2737 C.3       14 UNK        -0.1800 
     82 C          -1.4646  -26.4826  -49.9519 C.2       14 UNK         0.5000 
     83 O          -1.3653  -27.4381  -50.7218 O.2       14 UNK        -0.5000 
     84 N          -1.9735  -25.2949  -50.3021 N.am      15 UNK        -0.5000 
     85 CA         -2.5264  -24.9495  -51.6123 C.3       15 UNK         0.1400 
     86 CB         -2.4198  -23.4284  -51.8037 C.3       15 UNK        -0.1800 
     87 C          -3.9745  -25.4452  -51.8326 C.2       15 UNK         0.5000 
     88 O          -4.5625  -25.1194  -52.8641 O.2       15 UNK        -0.5000 
     89 N          -4.5212  -26.2225  -50.8850 N.am      16 UNK        -0.5000 
     90 CA         -5.8387  -26.8654  -50.9059 C.3       16 UNK         0.1400 
     91 CB         -5.9380  -27.8915  -52.0549 C.3       16 UNK        -0.1800 
     92 C          -7.0063  -25.8578  -50.8798 C.2       16 UNK         0.5000 
     93 O          -7.9322  -25.9526  -51.6877 O.2       16 UNK        -0.5000 
     94 N          -6.9375  -24.9229  -49.9230 N.am      17 UNK        -0.5000 
     95 CA         -7.9243  -23.8859  -49.6023 C.3       17 UNK         0.1400 
     96 CB         -9.2976  -24.4934  -49.2440 C.3       17 UNK        -0.1800 
     97 C          -8.0059  -22.7629  -50.6551 C.2       17 UNK         0.5000 
     98 O          -9.0525  -22.1282  -50.8029 O.2       17 UNK        -0.5000 
     99 N          -6.8855  -22.5081  -51.3415 N.am      18 UNK        -0.5000 
    100 CA        -6.6791  -21.3299  -52.1832 C.3       18 UNK         0.1400 
    101 CB        -5.5221  -21.6183  -53.1496 C.3       18 UNK        -0.1800 
    102 C         -6.3682  -20.0891  -51.3216 C.2       18 UNK         0.5000 
    103 O         -6.1190  -20.2153  -50.1196 O.2       18 UNK        -0.5000 
    104 N         -6.3420  -18.9067  -51.9509 N.am      19 UNK        -0.5000 
    105 CA        -6.0181  -17.6144  -51.3328 C.3       19 UNK         0.1400 
    106 CB        -6.5350  -16.4876  -52.2449 C.3       19 UNK        -0.1800 
    107 C         -4.5127  -17.4689  -51.0111 C.2       19 UNK         0.5000 
    108 O         -3.8479  -16.5627  -51.5166 O.2       19 UNK        -0.5000 
    109 N         -3.9957  -18.3949  -50.1950 N.am      20 UNK        -0.5000 
    110 CA        -2.6081  -18.6022  -49.7643 C.3       20 UNK         0.1400 
    111 CB        -2.0667  -17.3978  -48.9769 C.3       20 UNK        -0.1800 
    112 C         -1.6501  -19.0447  -50.8869 C.2       20 UNK         0.5000 
    113 O         -0.8110  -19.9087  -50.6461 O.2       20 UNK        -0.5000 
    114 N         -1.8002  -18.4737  -52.0871 N.am      21 UNK        -0.5000 
    115 CA        -1.0359  -18.8014  -53.2853 C.3       21 UNK         0.1400 
    116 CB        -1.3777  -17.7869  -54.3882 C.3       21 UNK        -0.1800 
    117 C         -1.3226  -20.2444  -53.7548 C.2       21 UNK         0.5000 
    118 O         -2.4722  -20.5322  -54.0850 O.2       21 UNK        -0.5000 
    119 N         -0.3411  -21.1513  -53.8127 N.am      22 UNK        -0.5000 
    120 CA         1.0628  -21.0194  -53.4095 C.3       22 UNK         0.1400 
    121 C          1.5727  -22.4288  -53.0140 C.2       22 UNK         0.5000 
    122 N          2.0174  -22.6206  -51.7798 N.am      22 UNK        -0.7600 
    123 O          1.5697  -23.3510  -53.8264 O.2       22 UNK        -0.5000 
    124 C124        1.9036  -20.3585  -54.5381 C.3       23 UNK        -0.0398 
    125 S125        3.6527  -20.0621  -54.1023 S.3       23 UNK        -0.2404 
    126 C126        3.6848  -18.2639  -53.7905 C.3       23 UNK        -0.0205 
    127 H127       -4.5624  -15.8061  -48.6163 H         1 UNK         0.0600 
    128 H128       -6.0080  -15.0273  -49.2732 H         1 UNK         0.0600 
    129 H129       -5.6129  -14.8718  -47.5584 H         1 UNK         0.0600 
    130 H130       -2.8957  -14.7077  -49.7466 H         1 UNK         0.3000 
    131 H131       -2.9179  -11.9119  -50.2730 H         1 UNK         0.0600 
    132 H132       -0.6479  -12.1972  -51.1115 H         1 UNK         0.0800 
    133 H133       -1.6766  -13.4663  -51.6956 H         1 UNK         0.0800 
    134 H134        0.2820  -14.8388  -52.4871 H         1 UNK         0.0800 
    135 H135       -0.8487  -15.9303  -51.7235 H         1 UNK         0.0800 
    136 H136        1.7422  -16.3648  -53.5442 H         1 UNK         0.1150 
    137 H137        3.9150  -19.2691  -51.2651 H         1 UNK         0.1150 
    138 H138        0.8946  -16.9008  -49.3745 H         1 UNK         0.1150 
    139 H139        3.7899  -18.9344  -48.7123 H         1 UNK         0.0800 
    140 H140        2.3050  -18.3238  -48.0342 H         1 UNK         0.0800 
    141 H141        0.0067  -19.7575  -47.9057 H         1 UNK         0.0800 
    142 H142        1.2689  -20.0242  -46.7377 H         1 UNK         0.0800 
    143 H143        0.8912  -22.6296  -47.4958 H         1 UNK         0.0600 
    144 H144        0.2108  -21.1544  -45.2072 H         1 UNK         0.3000 
    145 H145       -1.3248  -23.7490  -43.3189 H         1 UNK         0.0600 
    146 H146        0.4285  -22.9969  -41.7190 H         1 UNK         0.0600 
    147 H147        1.1094  -24.0399  -42.9576 H         1 UNK         0.0600 
    148 H148        1.3666  -22.3040  -43.0409 H         1 UNK         0.0600 
    149 H149       -0.7307  -20.9394  -42.9191 H         1 UNK         0.3000 
    150 H150       -3.8933  -19.7389  -44.0768 H         1 UNK         0.0600 
    151 H151       -4.2901  -20.4718  -41.7183 H         1 UNK         0.0600 
    152 H152       -3.9192  -18.7567  -41.8031 H         1 UNK         0.0600 
    153 H153       -2.6902  -19.8979  -41.2600 H         1 UNK         0.0600 
    154 H154       -1.5764  -18.4762  -42.9274 H         1 UNK         0.3000 
    155 H155        0.2537  -18.0283  -45.9146 H         1 UNK         0.0600 
    156 H156       -1.4309  -15.9023  -44.5049 H         1 UNK         0.0600 
    157 H157       -1.3746  -16.2060  -46.2352 H         1 UNK         0.0600 
    158 H158        0.0526  -15.5983  -45.4098 H         1 UNK         0.0600 
    159 H159        0.5701  -16.9225  -43.3030 H         1 UNK         0.3000 
    160 H160        1.6507  -19.6659  -41.5682 H         1 UNK         0.0600 
    161 H161        3.9107  -18.1724  -42.9867 H         1 UNK         0.0600 
    162 H162        3.7084  -19.9140  -42.9041 H         1 UNK         0.0600 
    163 H163        4.0384  -19.0036  -41.4394 H         1 UNK         0.0600 
    164 H164        2.4370  -16.8674  -41.4349 H         1 UNK         0.3000 
    165 H165       -0.5597  -15.7270  -39.9768 H         1 UNK         0.0600 
    166 H166        0.7687  -15.1940  -37.9516 H         1 UNK         0.0600 
    167 H167        0.3688  -16.9036  -37.9744 H         1 UNK         0.0600 
    168 H168        1.9923  -16.3809  -38.4069 H         1 UNK         0.0600 
    169 H169        2.0060  -14.5247  -40.0595 H         1 UNK         0.3000 
    170 H170        1.3297  -12.5089  -42.5739 H         1 UNK         0.0600 
    171 H171        2.6256  -12.5165  -40.4632 H         1 UNK         0.0600 
    172 H172        3.7409  -13.7223  -41.1054 H         1 UNK         0.0600 
    173 H173        3.6694  -12.1136  -41.8108 H         1 UNK         0.0600 
    174 H174        2.3013  -13.1572  -44.4354 H         1 UNK         0.3000 
    175 H175        4.8468  -14.9314  -45.4126 H         1 UNK         0.0600 
    176 H176        2.3991  -16.7383  -45.7692 H         1 UNK         0.0600 
    177 H177        3.8134  -16.7026  -46.8187 H         1 UNK         0.0600 
    178 H178        3.9708  -17.2426  -45.1594 H         1 UNK         0.0600 
    179 H179        2.2022  -14.4546  -46.6509 H         1 UNK         0.3000 
    180 H180        2.8438  -11.0963  -47.3998 H         1 UNK         0.0600 
    181 H181        2.8219  -13.4611  -49.3540 H         1 UNK         0.0600 
    182 H182        4.0018  -12.1582  -49.3199 H         1 UNK         0.0600 
    183 H183        2.3320  -11.8115  -49.7424 H         1 UNK         0.0600 
    184 H184        0.7062  -12.8173  -48.1265 H         1 UNK         0.3000 
    185 H185       -1.0075  -13.3248  -45.5418 H         1 UNK         0.0600 
    186 H186       -1.3955  -11.1828  -44.4261 H         1 UNK         0.0600 
    187 H187       -1.6502  -10.3636  -45.9591 H         1 UNK         0.0600 
    188 H188       -2.8002  -11.5784  -45.4014 H         1 UNK         0.0600 
    189 H189       -1.8504  -13.7405  -47.5360 H         1 UNK         0.3000 
    190 H190       -2.1568  -20.8752  -46.7433 H         1 UNK         0.3000 
    191 H191       -3.6200  -21.5682  -49.0440 H         1 UNK         0.0600 
    192 H192       -4.5967  -21.0219  -46.1882 H         1 UNK         0.0600 
    193 H193       -5.6113  -21.0269  -47.6188 H         1 UNK         0.0600 
    194 H194       -4.3512  -19.8164  -47.4449 H         1 UNK         0.0600 
    195 H195       -3.3151  -23.3472  -45.9376 H         1 UNK         0.3000 
    196 H196       -5.0735  -25.4756  -46.5914 H         1 UNK         0.0600 
    197 H197       -3.9560  -26.6568  -44.7153 H         1 UNK         0.0600 
    198 H198       -4.3117  -24.9921  -44.2779 H         1 UNK         0.0600 
    199 H199       -2.6665  -25.4626  -44.6950 H         1 UNK         0.0600 
    200 H200       -1.5099  -25.1806  -47.0096 H         1 UNK         0.3000 
    201 H201       -1.0777  -27.7047  -48.2362 H         1 UNK         0.0600 
    202 H202        0.7379  -26.3323  -47.2503 H         1 UNK         0.0600 
    203 H203        0.5072  -25.0918  -48.4797 H         1 UNK         0.0600 
    204 H204        1.0928  -26.6872  -48.9348 H         1 UNK         0.0600 
    205 H205       -1.9394  -24.5390  -49.6227 H         1 UNK         0.3000 
    206 H206       -1.9105  -25.4231  -52.3793 H         1 UNK         0.0600 
    207 H207       -1.3956  -23.0816  -51.6634 H         1 UNK         0.0600 
    208 H208       -2.7198  -23.1385  -52.8109 H         1 UNK         0.0600 
    209 H209       -3.0520  -22.8902  -51.0972 H         1 UNK         0.0600 
    210 H210       -3.9729  -26.3983  -50.0523 H         1 UNK         0.3000 
    211 H211       -5.9090  -27.4252  -49.9721 H         1 UNK         0.0600 
    212 H212       -5.9254  -27.4119  -53.0339 H         1 UNK         0.0600 
    213 H213       -6.8635  -28.4642  -51.9857 H         1 UNK         0.0600 
    214 H214       -5.1134  -28.6036  -52.0191 H         1 UNK         0.0600 
    215 H215       -6.0738  -24.8540  -49.3893 H         1 UNK         0.3000 
    216 H216       -7.5473  -23.4028  -48.6996 H         1 UNK         0.0600 
    217 H217       -9.9631  -23.7349  -48.8304 H         1 UNK         0.0600 
    218 H218       -9.1987  -25.2786  -48.4945 H         1 UNK         0.0600 
    219 H219       -9.7949  -24.9194  -50.1154 H         1 UNK         0.0600 
    220 H220       -6.0692  -23.0643  -51.1328 H         1 UNK         0.3000 
    221 H221       -7.5847  -21.1378  -52.7621 H         1 UNK         0.0600 
    222 H222       -4.5747  -21.7017  -52.6188 H         1 UNK         0.0600 
    223 H223       -5.6825  -22.5458  -53.6999 H         1 UNK         0.0600 
    224 H224       -5.4114  -20.8208  -53.8849 H         1 UNK         0.0600 
    225 H225       -6.5219  -18.8853  -52.9443 H         1 UNK         0.3000 
    226 H226       -6.5540  -17.5420  -50.3840 H         1 UNK         0.0600 
    227 H227       -7.6112  -16.5673  -52.3994 H         1 UNK         0.0600 
    228 H228       -6.3441  -15.5076  -51.8055 H         1 UNK         0.0600 
    229 H229       -6.0526  -16.5080  -53.2230 H         1 UNK         0.0600 
    230 H230       -4.6476  -19.1193  -49.9005 H         1 UNK         0.3000 
    231 H231       -2.6433  -19.4306  -49.0630 H         1 UNK         0.0600 
    232 H232       -1.0832  -17.6196  -48.5648 H         1 UNK         0.0600 
    233 H233       -2.7136  -17.1619  -48.1329 H         1 UNK         0.0600 
    234 H234       -1.9743  -16.5099  -49.5988 H         1 UNK         0.0600 
    235 H235       -2.5254  -17.7699  -52.1798 H         1 UNK         0.3000 
    236 H236        0.0132  -18.6683  -53.0438 H         1 UNK         0.0600 
    237 H237       -0.8195  -18.0008  -55.3003 H         1 UNK         0.0600 
    238 H238       -2.4391  -17.8060  -54.6392 H         1 UNK         0.0600 
    239 H239       -1.1250  -16.7711  -54.0849 H         1 UNK         0.0600 
    240 H240       -0.5761  -22.0856  -54.1165 H         1 UNK         0.3000 
    241 H241        1.1245  -20.4020  -52.5127 H         1 UNK         0.0600 
    242 H242        2.3528  -23.5336  -51.5179 H         1 UNK         0.3800 
    243 H243        1.9962  -21.8824  -51.0906 H         1 UNK         0.3800 
    244 H244        1.8839  -20.9838  -55.4323 H         1 UNK         0.0800 
    245 H245        1.4567  -19.4105  -54.8374 H         1 UNK         0.0800 
    246 H246        3.3088  -17.7415  -54.6716 H         1 UNK         0.0800 
    247 H247        4.7219  -17.9497  -53.6671 H         1 UNK         0.0800 
@<TRIPOS>BOND
     1    1    2 1    
     2    1  127 1    
     3    1  128 1    
     4    1  129 1    
     5    2    3 2    
     6    2    4 am   BACKBONE|DICT|INTERRES
     7    4    5 1    
     8    4  130 1    
     9    5    6 1    
    10    5   65 1    
    11    5  131 1    
    12    6    7 1    
    13    6  132 1    
    14    6  133 1    
    15    7    8 1    
    16    8    9 1    
    17    8  134 1    
    18    8  135 1    
    19    9   10 ar   
    20    9   14 ar   
    21   10   11 ar   
    22   10  136 1    
    23   11   12 ar   
    24   11  126 1    
    25   12   13 ar   
    26   12  137 1    
    27   13   14 ar   
    28   13   15 1    
    29   14  138 1    
    30   15   16 1    
    31   15  139 1    
    32   15  140 1    
    33   16   17 1    
    34   17   18 1    
    35   17  141 1    
    36   17  142 1    
    37   18   19 1    
    38   18   67 1    
    39   18  143 1    
    40   19   20 am   BACKBONE|DICT|INTERRES
    41   19  144 1    
    42   20   21 2    
    43   20   22 1    
    44   22   23 1    
    45   22   24 1    
    46   22  145 1    
    47   23  146 1    
    48   23  147 1    
    49   23  148 1    
    50   24   25 am   BACKBONE|DICT|INTERRES
    51   24  149 1    
    52   25   26 2    
    53   25   27 1    
    54   27   28 1    
    55   27   29 1    
    56   27  150 1    
    57   28  151 1    
    58   28  152 1    
    59   28  153 1    
    60   29   30 am   BACKBONE|DICT|INTERRES
    61   29  154 1    
    62   30   31 2    
    63   30   32 1    
    64   32   33 1    
    65   32   34 1    
    66   32  155 1    
    67   33  156 1    
    68   33  157 1    
    69   33  158 1    
    70   34   35 am   BACKBONE|DICT|INTERRES
    71   34  159 1    
    72   35   36 2    
    73   35   37 1    
    74   37   38 1    
    75   37   39 1    
    76   37  160 1    
    77   38  161 1    
    78   38  162 1    
    79   38  163 1    
    80   39   40 am   BACKBONE|DICT|INTERRES
    81   39  164 1    
    82   40   41 2    
    83   40   42 1    
    84   42   43 1    
    85   42   44 1    
    86   42  165 1    
    87   43  166 1    
    88   43  167 1    
    89   43  168 1    
    90   44   45 am   BACKBONE|DICT|INTERRES
    91   44  169 1    
    92   45   46 2    
    93   45   47 1    
    94   47   48 1    
    95   47   49 1    
    96   47  170 1    
    97   48  171 1    
    98   48  172 1    
    99   48  173 1    
   100   49   50 am   BACKBONE|DICT|INTERRES
   101   49  174 1    
   102   50   51 2    
   103   50   52 1    
   104   52   53 1    
   105   52   54 1    
   106   52  175 1    
   107   53  176 1    
   108   53  177 1    
   109   53  178 1    
   110   54   55 am   BACKBONE|DICT|INTERRES
   111   54  179 1    
   112   55   56 2    
   113   55   57 1    
   114   57   58 1    
   115   57   59 1    
   116   57  180 1    
   117   58  181 1    
   118   58  182 1    
   119   58  183 1    
   120   59   60 am   BACKBONE|DICT|INTERRES
   121   59  184 1    
   122   60   61 2    
   123   60   62 1    
   124   62   63 1    
   125   62   64 1    
   126   62  185 1    
   127   63  186 1    
   128   63  187 1    
   129   63  188 1    
   130   64   65 am   BACKBONE|DICT|INTERRES
   131   64  189 1    
   132   65   66 2    
   133   67   68 2    
   134   67   69 am   BACKBONE|DICT|INTERRES
   135   69   70 1    
   136   69  190 1    
   137   70   71 1    
   138   70   72 1    
   139   70  191 1    
   140   71  192 1    
   141   71  193 1    
   142   71  194 1    
   143   72   73 2    
   144   72   74 am   BACKBONE|DICT|INTERRES
   145   74   75 1    
   146   74  195 1    
   147   75   76 1    
   148   75   77 1    
   149   75  196 1    
   150   76  197 1    
   151   76  198 1    
   152   76  199 1    
   153   77   78 2    
   154   77   79 am   BACKBONE|DICT|INTERRES
   155   79   80 1    
   156   79  200 1    
   157   80   81 1    
   158   80   82 1    
   159   80  201 1    
   160   81  202 1    
   161   81  203 1    
   162   81  204 1    
   163   82   83 2    
   164   82   84 am   BACKBONE|DICT|INTERRES
   165   84   85 1    
   166   84  205 1    
   167   85   86 1    
   168   85   87 1    
   169   85  206 1    
   170   86  207 1    
   171   86  208 1    
   172   86  209 1    
   173   87   88 2    
   174   87   89 am   BACKBONE|DICT|INTERRES
   175   89   90 1    
   176   89  210 1    
   177   90   91 1    
   178   90   92 1    
   179   90  211 1    
   180   91  212 1    
   181   91  213 1    
   182   91  214 1    
   183   92   93 2    
   184   92   94 am   BACKBONE|DICT|INTERRES
   185   94   95 1    
   186   94  215 1    
   187   95   96 1    
   188   95   97 1    
   189   95  216 1    
   190   96  217 1    
   191   96  218 1    
   192   96  219 1    
   193   97   98 2    
   194   97   99 am   BACKBONE|DICT|INTERRES
   195   99  100 1    
   196   99  220 1    
   197  100  101 1    
   198  100  102 1    
   199  100  221 1    
   200  101  222 1    
   201  101  223 1    
   202  101  224 1    
   203  102  103 2    
   204  102  104 am   BACKBONE|DICT|INTERRES
   205  104  105 1    
   206  104  225 1    
   207  105  106 1    
   208  105  107 1    
   209  105  226 1    
   210  106  227 1    
   211  106  228 1    
   212  106  229 1    
   213  107  108 2    
   214  107  109 am   BACKBONE|DICT|INTERRES
   215  109  110 1    
   216  109  230 1    
   217  110  111 1    
   218  110  112 1    
   219  110  231 1    
   220  111  232 1    
   221  111  233 1    
   222  111  234 1    
   223  112  113 2    
   224  112  114 am   BACKBONE|DICT|INTERRES
   225  114  115 1    
   226  114  235 1    
   227  115  116 1    
   228  115  117 1    
   229  115  236 1    
   230  116  237 1    
   231  116  238 1    
   232  116  239 1    
   233  117  118 2    
   234  117  119 am   BACKBONE|DICT|INTERRES
   235  119  120 1    
   236  119  240 1    
   237  120  121 1    
   238  120  124 1    
   239  120  241 1    
   240  121  122 am   BACKBONE|DICT|INTERRES
   241  121  123 2    
   242  122  242 1    
   243  122  243 1    
   244  124  125 1    
   245  124  244 1    
   246  124  245 1    
   247  125  126 1    
   248  126  246 1    
   249  126  247 1    
@<TRIPOS>SUBSTRUCTURE
     1 UNK         1 GROUP             0       ****    0 ROOT    
