@<TRIPOS>MOLECULE
3R540
247   249    1
SMALL
USER_CHARGES


@<TRIPOS>ATOM
      1 CA         -6.0221  -10.3641  -46.0112 C.3       0 UNK        -0.1800 
      2 C          -4.6493  -10.0302  -46.5774 C.2       0 UNK         0.5000 
      3 O          -4.2371   -8.8707  -46.5430 O.2       0 UNK        -0.5000 
      4 N          -3.9404  -11.0409  -47.0958 N.am      1 UNK        -0.5000 
      5 CA         -2.5944  -10.9180  -47.6728 C.3       1 UNK         0.1400 
      6 C6         -2.2950  -12.0766  -48.6556 C.3       23 UNK        -0.0398 
      7 S7         -2.2826  -13.7284  -47.8747 S.3       23 UNK        -0.2404 
      8 C8         -2.3159  -14.7930  -49.3471 C.3       23 UNK        -0.0205 
      9 C9         -2.2236  -16.2630  -48.9703 C.ar      23 UNK        -0.0193 
     10 C10        -1.1056  -17.0224  -49.3311 C.ar      23 UNK        -0.1150 
     11 C11        -1.0349  -18.3792  -49.0008 C.ar      23 UNK        -0.0193 
     12 C12        -2.0873  -18.9703  -48.2987 C.ar      23 UNK        -0.1150 
     13 C13        -3.2032  -18.2197  -47.9193 C.ar      23 UNK        -0.0193 
     14 C14        -3.2686  -16.8684  -48.2661 C.ar      23 UNK        -0.1150 
     15 C15        -4.3364  -18.8679  -47.1403 C.3       23 UNK        -0.0205 
     16 S16        -3.8328  -19.2169  -45.4246 S.3       23 UNK        -0.2404 
     17 C17        -4.2309  -20.9919  -45.2880 C.3       23 UNK        -0.0398 
     18 CA         -3.2231  -21.8944  -46.0387 C.3       11 UNK         0.1400 
     19 N          -1.8414  -21.6808  -45.5951 N.am      11 UNK        -0.5000 
     20 C          -0.7435  -22.2455  -46.1160 C.2       10 UNK         0.5000 
     21 O          -0.7745  -22.9949  -47.0913 O.2       10 UNK        -0.5000 
     22 CA          0.6055  -21.9725  -45.4209 C.3       10 UNK         0.1400 
     23 CB          1.5818  -21.2724  -46.3779 C.3       10 UNK        -0.1800 
     24 N           0.4945  -21.1996  -44.1790 N.am      10 UNK        -0.5000 
     25 C          -0.0401  -21.6522  -43.0358 C.2       9 UNK         0.5000 
     26 O          -0.4949  -22.7912  -42.9066 O.2       9 UNK        -0.5000 
     27 CA         -0.0950  -20.6454  -41.8680 C.3       9 UNK         0.1400 
     28 CB         -0.7552  -21.2240  -40.5990 C.3       9 UNK        -0.1800 
     29 N           1.2182  -20.0731  -41.5579 N.am      9 UNK        -0.5000 
     30 C           2.3259  -20.7236  -41.1730 C.2       8 UNK         0.5000 
     31 O           2.3851  -21.9425  -41.0017 O.2       8 UNK        -0.5000 
     32 CA          3.5843  -19.8514  -40.9732 C.3       8 UNK         0.1400 
     33 CB          4.8159  -20.6673  -40.5399 C.3       8 UNK        -0.1800 
     34 N           3.9135  -19.1222  -42.1979 N.am      8 UNK        -0.5000 
     35 C           3.3407  -17.9820  -42.6019 C.2       7 UNK         0.5000 
     36 O           2.5126  -17.3683  -41.9234 O.2       7 UNK        -0.5000 
     37 CA          3.7378  -17.4523  -43.9973 C.3       7 UNK         0.1400 
     38 CB          4.3762  -18.5198  -44.9134 C.3       7 UNK        -0.1800 
     39 N           2.6208  -16.8062  -44.6927 N.am      7 UNK        -0.5000 
     40 C           1.4265  -17.3415  -44.9914 C.2       6 UNK         0.5000 
     41 O           1.0852  -18.4791  -44.6639 O.2       6 UNK        -0.5000 
     42 CA          0.4372  -16.4676  -45.7881 C.3       6 UNK         0.1400 
     43 CB         -0.7330  -16.0255  -44.8965 C.3       6 UNK        -0.1800 
     44 N           1.0498  -15.2853  -46.4024 N.am      6 UNK        -0.5000 
     45 C           1.8420  -15.3163  -47.4845 C.2       5 UNK         0.5000 
     46 O           2.1630  -16.3542  -48.0627 O.2       5 UNK        -0.5000 
     47 CA          2.3904  -13.9754  -47.9991 C.3       5 UNK         0.1400 
     48 CB          1.3417  -13.2513  -48.8515 C.3       5 UNK        -0.1800 
     49 N           2.7887  -13.1005  -46.8977 N.am      5 UNK        -0.5000 
     50 C           4.0439  -12.7015  -46.6492 C.2       4 UNK         0.5000 
     51 O           5.0122  -13.0067  -47.3465 O.2       4 UNK        -0.5000 
     52 CA          4.2675  -11.8145  -45.4054 C.3       4 UNK         0.1400 
     53 CB          4.2552  -10.3291  -45.7977 C.3       4 UNK        -0.1800 
     54 N           3.2776  -12.0317  -44.3498 N.am      4 UNK        -0.5000 
     55 C           3.1081  -13.1808  -43.6824 C.2       3 UNK         0.5000 
     56 O           3.8501  -14.1526  -43.8115 O.2       3 UNK        -0.5000 
     57 CA          1.8841  -13.2863  -42.7507 C.3       3 UNK         0.1400 
     58 CB          2.3178  -13.1770  -41.2815 C.3       3 UNK        -0.1800 
     59 N           0.8255  -12.3019  -43.0105 N.am      3 UNK        -0.5000 
     60 C           0.1394  -12.1656  -44.1542 C.2       2 UNK         0.5000 
     61 O           0.3630  -12.8446  -45.1598 O.2       2 UNK        -0.5000 
     62 CA         -0.9638  -11.0881  -44.1456 C.3       2 UNK         0.1400 
     63 CB         -0.3879   -9.6798  -43.8838 C.3       2 UNK        -0.1800 
     64 N          -1.8053  -11.1004  -45.3469 N.am      2 UNK        -0.5000 
     65 C          -1.4836  -10.7576  -46.6053 C.2       1 UNK         0.5000 
     66 O          -0.3833  -10.3207  -46.9471 O.2       1 UNK        -0.5000 
     67 C          -3.6707  -23.3694  -45.9842 C.2       11 UNK         0.5000 
     68 O          -4.5476  -23.7506  -46.7592 O.2       11 UNK        -0.5000 
     69 N          -3.0471  -24.1769  -45.1145 N.am      12 UNK        -0.5000 
     70 CA         -3.2397  -25.6260  -45.0518 C.3       12 UNK         0.1400 
     71 CB         -2.5983  -26.1623  -43.7633 C.3       12 UNK        -0.1800 
     72 C          -2.6725  -26.3569  -46.2859 C.2       12 UNK         0.5000 
     73 O          -3.2800  -27.3220  -46.7494 O.2       12 UNK        -0.5000 
     74 N          -1.5345  -25.8754  -46.8058 N.am      13 UNK        -0.5000 
     75 CA         -0.8820  -26.3992  -48.0074 C.3       13 UNK         0.1400 
     76 CB          0.6228  -26.0919  -47.9460 C.3       13 UNK        -0.1800 
     77 C          -1.5023  -25.8129  -49.2865 C.2       13 UNK         0.5000 
     78 O          -1.6693  -26.5329  -50.2706 O.2       13 UNK        -0.5000 
     79 N          -1.8563  -24.5215  -49.2364 N.am      14 UNK        -0.5000 
     80 CA         -2.4898  -23.7761  -50.3251 C.3       14 UNK         0.1400 
     81 CB         -2.2984  -22.2737  -50.0673 C.3       14 UNK        -0.1800 
     82 C          -3.9874  -24.0963  -50.5045 C.2       14 UNK         0.5000 
     83 O          -4.5941  -23.5852  -51.4451 O.2       14 UNK        -0.5000 
     84 N          -4.5710  -24.8864  -49.5906 N.am      15 UNK        -0.5000 
     85 CA         -5.9763  -25.3043  -49.5435 C.3       15 UNK         0.1400 
     86 CB         -6.2854  -26.2745  -50.7028 C.3       15 UNK        -0.1800 
     87 C          -6.9335  -24.0965  -49.4920 C.2       15 UNK         0.5000 
     88 O          -7.8126  -23.9597  -50.3427 O.2       15 UNK        -0.5000 
     89 N          -6.6871  -23.2029  -48.5229 N.am      16 UNK        -0.5000 
     90 CA         -7.3578  -21.9104  -48.3257 C.3       16 UNK         0.1400 
     91 CB         -8.8378  -22.1078  -47.9374 C.3       16 UNK        -0.1800 
     92 C          -7.1647  -20.9484  -49.5201 C.2       16 UNK         0.5000 
     93 O          -8.0666  -20.1781  -49.8517 O.2       16 UNK        -0.5000 
     94 N          -5.9776  -21.0293  -50.1387 N.am      17 UNK        -0.5000 
     95 CA         -5.5213  -20.2915  -51.3213 C.3       17 UNK         0.1400 
     96 CB         -5.5132  -18.7684  -51.0753 C.3       17 UNK        -0.1800 
     97 C          -6.2387  -20.6888  -52.6291 C.2       17 UNK         0.5000 
     98 O          -6.1927  -19.9280  -53.5968 O.2       17 UNK        -0.5000 
     99 N          -6.8471  -21.8847  -52.6681 N.am      18 UNK        -0.5000 
    100 CA        -7.3606  -22.5004  -53.8949 C.3       18 UNK         0.1400 
    101 CB        -8.2724  -23.6844  -53.5442 C.3       18 UNK        -0.1800 
    102 C         -6.2153  -22.9502  -54.8219 C.2       18 UNK         0.5000 
    103 O         -6.3158  -22.7926  -56.0391 O.2       18 UNK        -0.5000 
    104 N         -5.1258  -23.4460  -54.2217 N.am      19 UNK        -0.5000 
    105 CA        -3.8367  -23.6724  -54.8607 C.3       19 UNK         0.1400 
    106 CB        -3.2464  -25.0028  -54.3604 C.3       19 UNK        -0.1800 
    107 C         -2.9539  -22.4620  -54.5205 C.2       19 UNK         0.5000 
    108 O         -2.0908  -22.5418  -53.6452 O.2       19 UNK        -0.5000 
    109 N         -3.2269  -21.3394  -55.1991 N.am      20 UNK        -0.5000 
    110 CA        -2.6536  -20.0091  -54.9566 C.3       20 UNK         0.1400 
    111 CB        -3.3684  -18.9977  -55.8663 C.3       20 UNK        -0.1800 
    112 C         -1.1218  -19.8990  -55.1197 C.2       20 UNK         0.5000 
    113 O         -0.5449  -18.8892  -54.7155 O.2       20 UNK        -0.5000 
    114 N         -0.4859  -20.9316  -55.6899 N.am      21 UNK        -0.5000 
    115 CA         0.9665  -21.1097  -55.7176 C.3       21 UNK         0.1400 
    116 CB         1.3068  -22.2497  -56.6900 C.3       21 UNK        -0.1800 
    117 C          1.5709  -21.3893  -54.3235 C.2       21 UNK         0.5000 
    118 O          2.7577  -21.1236  -54.1262 O.2       21 UNK        -0.5000 
    119 N          0.7487  -21.8975  -53.3922 N.am      22 UNK        -0.5000 
    120 CA         1.0816  -22.2144  -51.9936 C.3       22 UNK         0.1400 
    121 C          2.0847  -23.3988  -51.8307 C.2       22 UNK         0.5000 
    122 N          2.4802  -23.7326  -50.6084 N.am      22 UNK        -0.7600 
    123 O          2.4809  -24.0589  -52.7892 O.2       22 UNK        -0.5000 
    124 C124        1.4790  -20.9497  -51.1741 C.3       23 UNK        -0.0398 
    125 S125        0.1408  -19.7045  -51.1268 S.3       23 UNK        -0.2404 
    126 C126        0.1823  -19.2078  -49.3781 C.3       23 UNK        -0.0205 
    127 H127       -6.2544  -11.4248  -46.1095 H         1 UNK         0.0600 
    128 H128       -6.0656  -10.1030  -44.9538 H         1 UNK         0.0600 
    129 H129       -6.7919   -9.7977  -46.5353 H         1 UNK         0.0600 
    130 H130       -4.3275  -11.9746  -47.0987 H         1 UNK         0.3000 
    131 H131       -2.5773   -9.9979  -48.2611 H         1 UNK         0.0600 
    132 H132       -1.3424  -11.9101  -49.1595 H         1 UNK         0.0800 
    133 H133       -3.0453  -12.0758  -49.4475 H         1 UNK         0.0800 
    134 H134       -1.4972  -14.5139  -50.0119 H         1 UNK         0.0800 
    135 H135       -3.2404  -14.6212  -49.8999 H         1 UNK         0.0800 
    136 H136       -0.2887  -16.5631  -49.8699 H         1 UNK         0.1150 
    137 H137       -2.0262  -20.0141  -48.0345 H         1 UNK         0.1150 
    138 H138       -4.1295  -16.2799  -47.9815 H         1 UNK         0.1150 
    139 H139       -4.6456  -19.7781  -47.6542 H         1 UNK         0.0800 
    140 H140       -5.2138  -18.2197  -47.1233 H         1 UNK         0.0800 
    141 H141       -4.2519  -21.2491  -44.2275 H         1 UNK         0.0800 
    142 H142       -5.2468  -21.1464  -45.6552 H         1 UNK         0.0800 
    143 H143       -3.2578  -21.6242  -47.0918 H         1 UNK         0.0600 
    144 H144       -1.7206  -21.0545  -44.8136 H         1 UNK         0.3000 
    145 H145        1.0274  -22.9481  -45.1716 H         1 UNK         0.0600 
    146 H146        2.5777  -21.2117  -45.9412 H         1 UNK         0.0600 
    147 H147        1.6777  -21.8192  -47.3167 H         1 UNK         0.0600 
    148 H148        1.2562  -20.2605  -46.6175 H         1 UNK         0.0600 
    149 H149        0.8023  -20.2290  -44.2313 H         1 UNK         0.3000 
    150 H150       -0.7160  -19.8159  -42.2097 H         1 UNK         0.0600 
    151 H151       -1.7739  -21.5539  -40.8060 H         1 UNK         0.0600 
    152 H152       -0.8115  -20.4759  -39.8083 H         1 UNK         0.0600 
    153 H153       -0.2077  -22.0828  -40.2095 H         1 UNK         0.0600 
    154 H154        1.3078  -19.0736  -41.7077 H         1 UNK         0.3000 
    155 H155        3.3628  -19.1384  -40.1761 H         1 UNK         0.0600 
    156 H156        4.6235  -21.2014  -39.6085 H         1 UNK         0.0600 
    157 H157        5.6763  -20.0202  -40.3685 H         1 UNK         0.0600 
    158 H158        5.0965  -21.4060  -41.2918 H         1 UNK         0.0600 
    159 H159        4.5572  -19.5810  -42.8260 H         1 UNK         0.3000 
    160 H160        4.4868  -16.6796  -43.8250 H         1 UNK         0.0600 
    161 H161        3.7215  -19.3805  -45.0469 H         1 UNK         0.0600 
    162 H162        4.5866  -18.1101  -45.9016 H         1 UNK         0.0600 
    163 H163        5.3247  -18.8774  -44.5115 H         1 UNK         0.0600 
    164 H164        2.7825  -15.8421  -44.9492 H         1 UNK         0.3000 
    165 H165        0.0296  -17.0926  -46.5845 H         1 UNK         0.0600 
    166 H166       -1.4685  -15.4579  -45.4663 H         1 UNK         0.0600 
    167 H167       -1.2495  -16.8887  -44.4745 H         1 UNK         0.0600 
    168 H168       -0.3966  -15.4037  -44.0670 H         1 UNK         0.0600 
    169 H169        0.7935  -14.3877  -45.9965 H         1 UNK         0.3000 
    170 H170        3.2434  -14.2028  -48.6417 H         1 UNK         0.0600 
    171 H171        0.9431  -13.9017  -49.6309 H         1 UNK         0.0600 
    172 H172        0.5103  -12.9152  -48.2345 H         1 UNK         0.0600 
    173 H173        1.7684  -12.3750  -49.3395 H         1 UNK         0.0600 
    174 H174        2.0496  -12.8112  -46.2658 H         1 UNK         0.3000 
    175 H175        5.2519  -12.0563  -44.9995 H         1 UNK         0.0600 
    176 H176        3.2834  -10.0254  -46.1898 H         1 UNK         0.0600 
    177 H177        4.4875   -9.6928  -44.9436 H         1 UNK         0.0600 
    178 H178        4.9994  -10.1221  -46.5678 H         1 UNK         0.0600 
    179 H179        2.6219  -11.2834  -44.1821 H         1 UNK         0.3000 
    180 H180        1.4555  -14.2787  -42.9033 H         1 UNK         0.0600 
    181 H181        3.0779  -13.9222  -41.0422 H         1 UNK         0.0600 
    182 H182        2.7371  -12.1953  -41.0578 H         1 UNK         0.0600 
    183 H183        1.4779  -13.3472  -40.6077 H         1 UNK         0.0600 
    184 H184        0.5857  -11.7038  -42.2329 H         1 UNK         0.3000 
    185 H185       -1.6319  -11.3344  -43.3192 H         1 UNK         0.0600 
    186 H186        0.0559   -9.6110  -42.8904 H         1 UNK         0.0600 
    187 H187        0.3878   -9.4147  -44.6028 H         1 UNK         0.0600 
    188 H188       -1.1675   -8.9197  -43.9381 H         1 UNK         0.0600 
    189 H189       -2.7338  -11.4731  -45.2121 H         1 UNK         0.3000 
    190 H190       -2.3455  -23.7833  -44.5018 H         1 UNK         0.3000 
    191 H191       -4.3124  -25.8273  -45.0089 H         1 UNK         0.0600 
    192 H192       -2.7350  -27.2411  -43.6780 H         1 UNK         0.0600 
    193 H193       -3.0481  -25.7074  -42.8806 H         1 UNK         0.0600 
    194 H194       -1.5263  -25.9625  -43.7329 H         1 UNK         0.0600 
    195 H195       -1.1338  -25.0357  -46.4103 H         1 UNK         0.3000 
    196 H196       -1.0039  -27.4841  -48.0388 H         1 UNK         0.0600 
    197 H197        1.1374  -26.4917  -48.8207 H         1 UNK         0.0600 
    198 H198        1.0807  -26.5424  -47.0653 H         1 UNK         0.0600 
    199 H199        0.8189  -25.0198  -47.9139 H         1 UNK         0.0600 
    200 H200       -1.6138  -23.9898  -48.4039 H         1 UNK         0.3000 
    201 H201       -1.9798  -24.0322  -51.2557 H         1 UNK         0.0600 
    202 H202       -1.2878  -22.0486  -49.7280 H         1 UNK         0.0600 
    203 H203       -2.9917  -21.8997  -49.3162 H         1 UNK         0.0600 
    204 H204       -2.4649  -21.7024  -50.9806 H         1 UNK         0.0600 
    205 H205       -3.9987  -25.2003  -48.8199 H         1 UNK         0.3000 
    206 H206       -6.1113  -25.8486  -48.6077 H         1 UNK         0.0600 
    207 H207       -5.6270  -27.1426  -50.6727 H         1 UNK         0.0600 
    208 H208       -7.3106  -26.6415  -50.6430 H         1 UNK         0.0600 
    209 H209       -6.1637  -25.7988  -51.6762 H         1 UNK         0.0600 
    210 H210       -5.9283  -23.4131  -47.8752 H         1 UNK         0.3000 
    211 H211       -6.8607  -21.4376  -47.4783 H         1 UNK         0.0600 
    212 H212       -9.4242  -22.5131  -48.7624 H         1 UNK         0.0600 
    213 H213       -9.2950  -21.1611  -47.6474 H         1 UNK         0.0600 
    214 H214       -8.9355  -22.7868  -47.0904 H         1 UNK         0.0600 
    215 H215       -5.3471  -21.7496  -49.8195 H         1 UNK         0.3000 
    216 H216       -4.4838  -20.5915  -51.4681 H         1 UNK         0.0600 
    217 H217       -4.9922  -18.5205  -50.1520 H         1 UNK         0.0600 
    218 H218       -4.9997  -18.2452  -51.8828 H         1 UNK         0.0600 
    219 H219       -6.5218  -18.3600  -51.0134 H         1 UNK         0.0600 
    220 H220       -6.8422  -22.4641  -51.8376 H         1 UNK         0.3000 
    221 H221       -7.9578  -21.7586  -54.4293 H         1 UNK         0.0600 
    222 H222       -7.7251  -24.4763  -53.0324 H         1 UNK         0.0600 
    223 H223       -9.0930  -23.3728  -52.8978 H         1 UNK         0.0600 
    224 H224       -8.7112  -24.1179  -54.4436 H         1 UNK         0.0600 
    225 H225       -5.1092  -23.4888  -53.2038 H         1 UNK         0.3000 
    226 H226       -3.9408  -23.7339  -55.9459 H         1 UNK         0.0600 
    227 H227       -3.8903  -25.8408  -54.6270 H         1 UNK         0.0600 
    228 H228       -2.2688  -25.1867  -54.8073 H         1 UNK         0.0600 
    229 H229       -3.1190  -25.0152  -53.2783 H         1 UNK         0.0600 
    230 H230       -3.9680  -21.3752  -55.8852 H         1 UNK         0.3000 
    231 H231       -2.8761  -19.7486  -53.9197 H         1 UNK         0.0600 
    232 H232       -3.2076  -19.2236  -56.9211 H         1 UNK         0.0600 
    233 H233       -4.4431  -18.9926  -55.6825 H         1 UNK         0.0600 
    234 H234       -3.0073  -17.9839  -55.6881 H         1 UNK         0.0600 
    235 H235       -1.0432  -21.7122  -56.0023 H         1 UNK         0.3000 
    236 H236        1.4169  -20.1894  -56.0953 H         1 UNK         0.0600 
    237 H237        0.8711  -23.1963  -56.3672 H         1 UNK         0.0600 
    238 H238        0.9419  -22.0352  -57.6946 H         1 UNK         0.0600 
    239 H239        2.3858  -22.3929  -56.7605 H         1 UNK         0.0600 
    240 H240       -0.2159  -22.0866  -53.6478 H         1 UNK         0.3000 
    241 H241        0.1512  -22.5986  -51.5775 H         1 UNK         0.0600 
    242 H242        3.1181  -24.5063  -50.5049 H         1 UNK         0.3800 
    243 H243        2.1576  -23.2481  -49.7874 H         1 UNK         0.3800 
    244 H244        2.3755  -20.4841  -51.5844 H         1 UNK         0.0800 
    245 H245        1.7304  -21.2200  -50.1488 H         1 UNK         0.0800 
    246 H246        0.2250  -20.1005  -48.7540 H         1 UNK         0.0800 
    247 H247        1.0940  -18.6427  -49.1793 H         1 UNK         0.0800 
@<TRIPOS>BOND
     1    1    2 1    
     2    1  127 1    
     3    1  128 1    
     4    1  129 1    
     5    2    3 2    
     6    2    4 am   BACKBONE|DICT|INTERRES
     7    4    5 1    
     8    4  130 1    
     9    5    6 1    
    10    5   65 1    
    11    5  131 1    
    12    6    7 1    
    13    6  132 1    
    14    6  133 1    
    15    7    8 1    
    16    8    9 1    
    17    8  134 1    
    18    8  135 1    
    19    9   10 ar   
    20    9   14 ar   
    21   10   11 ar   
    22   10  136 1    
    23   11   12 ar   
    24   11  126 1    
    25   12   13 ar   
    26   12  137 1    
    27   13   14 ar   
    28   13   15 1    
    29   14  138 1    
    30   15   16 1    
    31   15  139 1    
    32   15  140 1    
    33   16   17 1    
    34   17   18 1    
    35   17  141 1    
    36   17  142 1    
    37   18   19 1    
    38   18   67 1    
    39   18  143 1    
    40   19   20 am   BACKBONE|DICT|INTERRES
    41   19  144 1    
    42   20   21 2    
    43   20   22 1    
    44   22   23 1    
    45   22   24 1    
    46   22  145 1    
    47   23  146 1    
    48   23  147 1    
    49   23  148 1    
    50   24   25 am   BACKBONE|DICT|INTERRES
    51   24  149 1    
    52   25   26 2    
    53   25   27 1    
    54   27   28 1    
    55   27   29 1    
    56   27  150 1    
    57   28  151 1    
    58   28  152 1    
    59   28  153 1    
    60   29   30 am   BACKBONE|DICT|INTERRES
    61   29  154 1    
    62   30   31 2    
    63   30   32 1    
    64   32   33 1    
    65   32   34 1    
    66   32  155 1    
    67   33  156 1    
    68   33  157 1    
    69   33  158 1    
    70   34   35 am   BACKBONE|DICT|INTERRES
    71   34  159 1    
    72   35   36 2    
    73   35   37 1    
    74   37   38 1    
    75   37   39 1    
    76   37  160 1    
    77   38  161 1    
    78   38  162 1    
    79   38  163 1    
    80   39   40 am   BACKBONE|DICT|INTERRES
    81   39  164 1    
    82   40   41 2    
    83   40   42 1    
    84   42   43 1    
    85   42   44 1    
    86   42  165 1    
    87   43  166 1    
    88   43  167 1    
    89   43  168 1    
    90   44   45 am   BACKBONE|DICT|INTERRES
    91   44  169 1    
    92   45   46 2    
    93   45   47 1    
    94   47   48 1    
    95   47   49 1    
    96   47  170 1    
    97   48  171 1    
    98   48  172 1    
    99   48  173 1    
   100   49   50 am   BACKBONE|DICT|INTERRES
   101   49  174 1    
   102   50   51 2    
   103   50   52 1    
   104   52   53 1    
   105   52   54 1    
   106   52  175 1    
   107   53  176 1    
   108   53  177 1    
   109   53  178 1    
   110   54   55 am   BACKBONE|DICT|INTERRES
   111   54  179 1    
   112   55   56 2    
   113   55   57 1    
   114   57   58 1    
   115   57   59 1    
   116   57  180 1    
   117   58  181 1    
   118   58  182 1    
   119   58  183 1    
   120   59   60 am   BACKBONE|DICT|INTERRES
   121   59  184 1    
   122   60   61 2    
   123   60   62 1    
   124   62   63 1    
   125   62   64 1    
   126   62  185 1    
   127   63  186 1    
   128   63  187 1    
   129   63  188 1    
   130   64   65 am   BACKBONE|DICT|INTERRES
   131   64  189 1    
   132   65   66 2    
   133   67   68 2    
   134   67   69 am   BACKBONE|DICT|INTERRES
   135   69   70 1    
   136   69  190 1    
   137   70   71 1    
   138   70   72 1    
   139   70  191 1    
   140   71  192 1    
   141   71  193 1    
   142   71  194 1    
   143   72   73 2    
   144   72   74 am   BACKBONE|DICT|INTERRES
   145   74   75 1    
   146   74  195 1    
   147   75   76 1    
   148   75   77 1    
   149   75  196 1    
   150   76  197 1    
   151   76  198 1    
   152   76  199 1    
   153   77   78 2    
   154   77   79 am   BACKBONE|DICT|INTERRES
   155   79   80 1    
   156   79  200 1    
   157   80   81 1    
   158   80   82 1    
   159   80  201 1    
   160   81  202 1    
   161   81  203 1    
   162   81  204 1    
   163   82   83 2    
   164   82   84 am   BACKBONE|DICT|INTERRES
   165   84   85 1    
   166   84  205 1    
   167   85   86 1    
   168   85   87 1    
   169   85  206 1    
   170   86  207 1    
   171   86  208 1    
   172   86  209 1    
   173   87   88 2    
   174   87   89 am   BACKBONE|DICT|INTERRES
   175   89   90 1    
   176   89  210 1    
   177   90   91 1    
   178   90   92 1    
   179   90  211 1    
   180   91  212 1    
   181   91  213 1    
   182   91  214 1    
   183   92   93 2    
   184   92   94 am   BACKBONE|DICT|INTERRES
   185   94   95 1    
   186   94  215 1    
   187   95   96 1    
   188   95   97 1    
   189   95  216 1    
   190   96  217 1    
   191   96  218 1    
   192   96  219 1    
   193   97   98 2    
   194   97   99 am   BACKBONE|DICT|INTERRES
   195   99  100 1    
   196   99  220 1    
   197  100  101 1    
   198  100  102 1    
   199  100  221 1    
   200  101  222 1    
   201  101  223 1    
   202  101  224 1    
   203  102  103 2    
   204  102  104 am   BACKBONE|DICT|INTERRES
   205  104  105 1    
   206  104  225 1    
   207  105  106 1    
   208  105  107 1    
   209  105  226 1    
   210  106  227 1    
   211  106  228 1    
   212  106  229 1    
   213  107  108 2    
   214  107  109 am   BACKBONE|DICT|INTERRES
   215  109  110 1    
   216  109  230 1    
   217  110  111 1    
   218  110  112 1    
   219  110  231 1    
   220  111  232 1    
   221  111  233 1    
   222  111  234 1    
   223  112  113 2    
   224  112  114 am   BACKBONE|DICT|INTERRES
   225  114  115 1    
   226  114  235 1    
   227  115  116 1    
   228  115  117 1    
   229  115  236 1    
   230  116  237 1    
   231  116  238 1    
   232  116  239 1    
   233  117  118 2    
   234  117  119 am   BACKBONE|DICT|INTERRES
   235  119  120 1    
   236  119  240 1    
   237  120  121 1    
   238  120  124 1    
   239  120  241 1    
   240  121  122 am   BACKBONE|DICT|INTERRES
   241  121  123 2    
   242  122  242 1    
   243  122  243 1    
   244  124  125 1    
   245  124  244 1    
   246  124  245 1    
   247  125  126 1    
   248  126  246 1    
   249  126  247 1    
@<TRIPOS>SUBSTRUCTURE
     1 UNK         1 GROUP             0       ****    0 ROOT    
