@<TRIPOS>MOLECULE
3R540
247   249    1
SMALL
USER_CHARGES


@<TRIPOS>ATOM
      1 CA         -0.4214  -11.9370  -46.3329 C.3       0 UNK        -0.1800 
      2 C           0.7044  -12.8844  -46.7180 C.2       0 UNK         0.5000 
      3 O           1.0977  -13.7381  -45.9203 O.2       0 UNK        -0.5000 
      4 N           1.2080  -12.7410  -47.9498 N.am      1 UNK        -0.5000 
      5 CA          2.2581  -13.5383  -48.5949 C.3       1 UNK         0.1400 
      6 C6          1.9290  -15.0547  -48.6546 C.3       23 UNK        -0.0398 
      7 S7          2.7872  -15.9255  -50.0061 S.3       23 UNK        -0.2404 
      8 C8          1.5326  -15.8938  -51.3270 C.3       23 UNK        -0.0205 
      9 C9          0.4179  -16.9072  -51.1011 C.ar      23 UNK        -0.0193 
     10 C10        -0.8626  -16.4892  -50.7254 C.ar      23 UNK        -0.1150 
     11 C11        -1.8941  -17.4194  -50.5335 C.ar      23 UNK        -0.0193 
     12 C12        -1.6153  -18.7799  -50.6979 C.ar      23 UNK        -0.1150 
     13 C13        -0.3405  -19.2120  -51.0759 C.ar      23 UNK        -0.0193 
     14 C14         0.6650  -18.2675  -51.2954 C.ar      23 UNK        -0.1150 
     15 C15        -0.0465  -20.7008  -51.2199 C.3       23 UNK        -0.0205 
     16 S16         1.3407  -21.2601  -50.1721 S.3       23 UNK        -0.2404 
     17 C17         0.8212  -20.7112  -48.5081 C.3       23 UNK        -0.0398 
     18 CA          0.2489  -21.8343  -47.6139 C.3       11 UNK         0.1400 
     19 N           0.0850  -21.3765  -46.2336 N.am      11 UNK        -0.5000 
     20 C          -0.2383  -22.1522  -45.1905 C.2       10 UNK         0.5000 
     21 O          -0.4033  -23.3688  -45.2663 O.2       10 UNK        -0.5000 
     22 CA         -0.4606  -21.4411  -43.8432 C.3       10 UNK         0.1400 
     23 CB          0.8789  -21.0897  -43.1796 C.3       10 UNK        -0.1800 
     24 N          -1.2763  -20.2334  -43.9721 N.am      10 UNK        -0.5000 
     25 C          -2.5475  -20.2173  -44.3978 C.2       9 UNK         0.5000 
     26 O          -3.1824  -21.2253  -44.7043 O.2       9 UNK        -0.5000 
     27 CA         -3.2071  -18.8379  -44.5520 C.3       9 UNK         0.1400 
     28 CB         -3.6974  -18.3044  -43.1974 C.3       9 UNK        -0.1800 
     29 N          -2.3115  -17.8629  -45.1705 N.am      9 UNK        -0.5000 
     30 C          -1.8682  -17.9369  -46.4325 C.2       8 UNK         0.5000 
     31 O          -2.1626  -18.8407  -47.2153 O.2       8 UNK        -0.5000 
     32 CA         -0.9047  -16.8222  -46.8744 C.3       8 UNK         0.1400 
     33 CB         -1.6639  -15.4918  -47.0309 C.3       8 UNK        -0.1800 
     34 N           0.2136  -16.6357  -45.9464 N.am      8 UNK        -0.5000 
     35 C           1.0804  -17.5908  -45.5779 C.2       7 UNK         0.5000 
     36 O           1.0891  -18.7267  -46.0463 O.2       7 UNK        -0.5000 
     37 CA          2.0643  -17.2449  -44.4463 C.3       7 UNK         0.1400 
     38 CB          3.3270  -16.5759  -44.9982 C.3       7 UNK        -0.1800 
     39 N           1.4791  -16.3946  -43.4108 N.am      7 UNK        -0.5000 
     40 C           0.4147  -16.7150  -42.6605 C.2       6 UNK         0.5000 
     41 O          -0.2034  -17.7747  -42.7693 O.2       6 UNK        -0.5000 
     42 CA         -0.0463  -15.6788  -41.6248 C.3       6 UNK         0.1400 
     43 CB          0.4507  -16.0693  -40.2249 C.3       6 UNK        -0.1800 
     44 N           0.4509  -14.3416  -41.9395 N.am      6 UNK        -0.5000 
     45 C          -0.2164  -13.4056  -42.6280 C.2       5 UNK         0.5000 
     46 O          -1.3385  -13.5897  -43.1016 O.2       5 UNK        -0.5000 
     47 CA          0.4870  -12.0399  -42.8250 C.3       5 UNK         0.1400 
     48 CB         -0.4929  -10.8500  -42.7598 C.3       5 UNK        -0.1800 
     49 N           1.6351  -11.8349  -41.9355 N.am      5 UNK        -0.5000 
     50 C           1.6290  -11.7884  -40.5941 C.2       4 UNK         0.5000 
     51 O           0.6013  -11.7117  -39.9196 O.2       4 UNK        -0.5000 
     52 CA          2.9950  -11.8970  -39.8793 C.3       4 UNK         0.1400 
     53 CB          2.9127  -12.8128  -38.6401 C.3       4 UNK        -0.1800 
     54 N           4.1165  -12.3193  -40.7327 N.am      4 UNK        -0.5000 
     55 C           4.2415  -13.4513  -41.4429 C.2       3 UNK         0.5000 
     56 O           3.3619  -14.3097  -41.5535 O.2       3 UNK        -0.5000 
     57 CA          5.5885  -13.6348  -42.1645 C.3       3 UNK         0.1400 
     58 CB          6.3140  -14.8781  -41.6265 C.3       3 UNK        -0.1800 
     59 N           5.5047  -13.7359  -43.6241 N.am      3 UNK        -0.5000 
     60 C           4.7817  -12.9934  -44.4762 C.2       2 UNK         0.5000 
     61 O           3.9367  -12.1632  -44.1327 O.2       2 UNK        -0.5000 
     62 CA          5.0797  -13.1868  -45.9766 C.3       2 UNK         0.1400 
     63 CB          6.0673  -14.3387  -46.2891 C.3       2 UNK        -0.1800 
     64 N           3.8276  -13.3659  -46.7042 N.am      2 UNK        -0.5000 
     65 C           3.6665  -13.2549  -48.0272 C.2       1 UNK         0.5000 
     66 O           4.5693  -12.9224  -48.7970 O.2       1 UNK        -0.5000 
     67 C          -1.0645  -22.4116  -48.1765 C.2       11 UNK         0.5000 
     68 O          -1.0534  -23.5196  -48.7130 O.2       11 UNK        -0.5000 
     69 N          -2.1757  -21.6785  -48.0089 N.am      12 UNK        -0.5000 
     70 CA         -3.5102  -22.1095  -48.4272 C.3       12 UNK         0.1400 
     71 CB         -4.5152  -20.9694  -48.2094 C.3       12 UNK        -0.1800 
     72 C          -3.9720  -23.3972  -47.7194 C.2       12 UNK         0.5000 
     73 O          -4.5247  -24.2787  -48.3770 O.2       12 UNK        -0.5000 
     74 N          -3.7007  -23.5037  -46.4103 N.am      13 UNK        -0.5000 
     75 CA         -3.9679  -24.6921  -45.6002 C.3       13 UNK         0.1400 
     76 CB         -3.7551  -24.3714  -44.1133 C.3       13 UNK        -0.1800 
     77 C          -3.1207  -25.9041  -46.0256 C.2       13 UNK         0.5000 
     78 O          -3.6675  -26.9979  -46.1669 O.2       13 UNK        -0.5000 
     79 N          -1.8182  -25.6899  -46.2637 N.am      14 UNK        -0.5000 
     80 CA         -0.8800  -26.7087  -46.7465 C.3       14 UNK         0.1400 
     81 CB          0.5497  -26.1476  -46.7222 C.3       14 UNK        -0.1800 
     82 C          -1.2339  -27.2350  -48.1503 C.2       14 UNK         0.5000 
     83 O          -1.0972  -28.4316  -48.4064 O.2       14 UNK        -0.5000 
     84 N          -1.7247  -26.3392  -49.0156 N.am      15 UNK        -0.5000 
     85 CA         -2.2499  -26.6485  -50.3453 C.3       15 UNK         0.1400 
     86 CB         -2.2023  -25.3705  -51.1969 C.3       15 UNK        -0.1800 
     87 C          -3.6804  -27.2279  -50.3248 C.2       15 UNK         0.5000 
     88 O          -4.2020  -27.5543  -51.3908 O.2       15 UNK        -0.5000 
     89 N          -4.3111  -27.3105  -49.1418 N.am      16 UNK        -0.5000 
     90 CA         -5.6833  -27.7708  -48.8898 C.3       16 UNK         0.1400 
     91 CB         -5.7880  -29.2918  -49.1234 C.3       16 UNK        -0.1800 
     92 C          -6.7479  -26.9699  -49.6727 C.2       16 UNK         0.5000 
     93 O          -7.7675  -27.5282  -50.0811 O.2       16 UNK        -0.5000 
     94 N          -6.4616  -25.6785  -49.8959 N.am      17 UNK        -0.5000 
     95 CA         -7.2037  -24.7071  -50.7046 C.3       17 UNK         0.1400 
     96 CB         -8.5793  -24.4118  -50.0727 C.3       17 UNK        -0.1800 
     97 C          -7.3095  -25.0605  -52.2071 C.2       17 UNK         0.5000 
     98 O          -8.0901  -24.4245  -52.9174 O.2       17 UNK        -0.5000 
     99 N          -6.5255  -26.0394  -52.6856 N.am      18 UNK        -0.5000 
    100 CA        -6.5092  -26.4717  -54.0862 C.3       18 UNK         0.1400 
    101 CB        -5.9748  -27.9098  -54.1679 C.3       18 UNK        -0.1800 
    102 C         -5.6824  -25.5369  -54.9892 C.2       18 UNK         0.5000 
    103 O         -5.8753  -25.5453  -56.2059 O.2       18 UNK        -0.5000 
    104 N         -4.7865  -24.7488  -54.3863 N.am      19 UNK        -0.5000 
    105 CA        -3.9566  -23.7447  -55.0362 C.3       19 UNK         0.1400 
    106 CB        -2.6592  -24.3940  -55.5479 C.3       19 UNK        -0.1800 
    107 C         -3.6565  -22.6354  -54.0210 C.2       19 UNK         0.5000 
    108 O         -3.6418  -22.8966  -52.8154 O.2       19 UNK        -0.5000 
    109 N         -3.4094  -21.4261  -54.5285 N.am      20 UNK        -0.5000 
    110 CA        -3.0621  -20.2306  -53.7703 C.3       20 UNK         0.1400 
    111 CB        -4.2567  -19.7592  -52.9171 C.3       20 UNK        -0.1800 
    112 C         -2.6563  -19.1321  -54.7605 C.2       20 UNK         0.5000 
    113 O         -3.1542  -19.1229  -55.8896 O.2       20 UNK        -0.5000 
    114 N         -1.7949  -18.2080  -54.3161 N.am      21 UNK        -0.5000 
    115 CA        -1.4831  -16.9782  -55.0534 C.3       21 UNK         0.1400 
    116 CB        -0.0839  -16.4843  -54.6614 C.3       21 UNK        -0.1800 
    117 C         -2.5331  -15.8772  -54.7985 C.2       21 UNK         0.5000 
    118 O         -2.6457  -14.9516  -55.6031 O.2       21 UNK        -0.5000 
    119 N         -3.2733  -15.9985  -53.6873 N.am      22 UNK        -0.5000 
    120 CA        -4.4094  -15.1513  -53.3018 C.3       22 UNK         0.1400 
    121 C         -5.5534  -15.1643  -54.3557 C.2       22 UNK         0.5000 
    122 N         -6.1443  -14.0158  -54.6558 N.am      22 UNK        -0.7600 
    123 O         -5.9401  -16.2134  -54.8658 O.2       22 UNK        -0.5000 
    124 C124       -4.9691  -15.5685  -51.9180 C.3       23 UNK        -0.0398 
    125 S125       -3.7905  -15.3056  -50.5471 S.3       23 UNK        -0.2404 
    126 C126       -3.2955  -17.0043  -50.0808 C.3       23 UNK        -0.0205 
    127 H127       -1.1295  -12.4378  -45.6730 H         1 UNK         0.0600 
    128 H128       -0.0213  -11.0649  -45.8167 H         1 UNK         0.0600 
    129 H129       -0.9690  -11.5935  -47.2107 H         1 UNK         0.0600 
    130 H130        0.8457  -11.9929  -48.5247 H         1 UNK         0.3000 
    131 H131        2.2670  -13.1716  -49.6229 H         1 UNK         0.0600 
    132 H132        2.1729  -15.5486  -47.7142 H         1 UNK         0.0800 
    133 H133        0.8591  -15.1974  -48.7923 H         1 UNK         0.0800 
    134 H134        1.1291  -14.8849  -51.4256 H         1 UNK         0.0800 
    135 H135        2.0255  -16.1161  -52.2745 H         1 UNK         0.0800 
    136 H136       -1.0461  -15.4355  -50.5742 H         1 UNK         0.1150 
    137 H137       -2.3911  -19.5091  -50.5096 H         1 UNK         0.1150 
    138 H138        1.6535  -18.5943  -51.5866 H         1 UNK         0.1150 
    139 H139       -0.9293  -21.2971  -50.9832 H         1 UNK         0.0800 
    140 H140        0.1958  -20.9136  -52.2618 H         1 UNK         0.0800 
    141 H141        0.1236  -19.8754  -48.5684 H         1 UNK         0.0800 
    142 H142        1.7164  -20.3037  -48.0376 H         1 UNK         0.0800 
    143 H143        0.9778  -22.6472  -47.5919 H         1 UNK         0.0600 
    144 H144        0.2392  -20.3833  -46.0756 H         1 UNK         0.3000 
    145 H145       -0.9940  -22.1316  -43.1867 H         1 UNK         0.0600 
    146 H146        0.7271  -20.6212  -42.2070 H         1 UNK         0.0600 
    147 H147        1.4815  -21.9848  -43.0210 H         1 UNK         0.0600 
    148 H148        1.4641  -20.4049  -43.7929 H         1 UNK         0.0600 
    149 H149       -0.8413  -19.3533  -43.7091 H         1 UNK         0.3000 
    150 H150       -4.0752  -18.9562  -45.2040 H         1 UNK         0.0600 
    151 H151       -4.3919  -19.0052  -42.7324 H         1 UNK         0.0600 
    152 H152       -4.2223  -17.3561  -43.3138 H         1 UNK         0.0600 
    153 H153       -2.8741  -18.1484  -42.4997 H         1 UNK         0.0600 
    154 H154       -1.9710  -17.1190  -44.5796 H         1 UNK         0.3000 
    155 H155       -0.4975  -17.1120  -47.8449 H         1 UNK         0.0600 
    156 H156       -1.1395  -14.8145  -47.7011 H         1 UNK         0.0600 
    157 H157       -1.7952  -14.9861  -46.0735 H         1 UNK         0.0600 
    158 H158       -2.6587  -15.6331  -47.4509 H         1 UNK         0.0600 
    159 H159        0.3225  -15.7112  -45.5457 H         1 UNK         0.3000 
    160 H160        2.3606  -18.1815  -43.9710 H         1 UNK         0.0600 
    161 H161        3.7857  -17.1826  -45.7801 H         1 UNK         0.0600 
    162 H162        4.0713  -16.4321  -44.2146 H         1 UNK         0.0600 
    163 H163        3.0983  -15.6025  -45.4258 H         1 UNK         0.0600 
    164 H164        1.9338  -15.5094  -43.2366 H         1 UNK         0.3000 
    165 H165       -1.1383  -15.6791  -41.6138 H         1 UNK         0.0600 
    166 H166        1.5403  -16.0990  -40.1783 H         1 UNK         0.0600 
    167 H167        0.1035  -15.3607  -39.4726 H         1 UNK         0.0600 
    168 H168        0.0815  -17.0552  -39.9394 H         1 UNK         0.0600 
    169 H169        1.3957  -14.1344  -41.6296 H         1 UNK         0.3000 
    170 H170        0.9127  -12.0645  -43.8262 H         1 UNK         0.0600 
    171 H171       -1.2606  -10.9312  -43.5296 H         1 UNK         0.0600 
    172 H172       -1.0054  -10.7962  -41.7993 H         1 UNK         0.0600 
    173 H173        0.0249   -9.9042  -42.9189 H         1 UNK         0.0600 
    174 H174        2.5371  -11.8977  -42.3945 H         1 UNK         0.3000 
    175 H175        3.2347  -10.8902  -39.5346 H         1 UNK         0.0600 
    176 H176        3.8732  -12.8717  -38.1282 H         1 UNK         0.0600 
    177 H177        2.1871  -12.4370  -37.9178 H         1 UNK         0.0600 
    178 H178        2.6125  -13.8268  -38.9071 H         1 UNK         0.0600 
    179 H179        4.8908  -11.6698  -40.7541 H         1 UNK         0.3000 
    180 H180        6.2153  -12.7672  -41.9500 H         1 UNK         0.0600 
    181 H181        5.7747  -15.7939  -41.8727 H         1 UNK         0.0600 
    182 H182        6.4109  -14.8366  -40.5407 H         1 UNK         0.0600 
    183 H183        7.3203  -14.9598  -42.0377 H         1 UNK         0.0600 
    184 H184        6.1429  -14.3995  -44.0371 H         1 UNK         0.3000 
    185 H185        5.5329  -12.2527  -46.3140 H         1 UNK         0.0600 
    186 H186        6.2861  -14.3987  -47.3549 H         1 UNK         0.0600 
    187 H187        7.0254  -14.1899  -45.7898 H         1 UNK         0.0600 
    188 H188        5.6741  -15.3082  -45.9842 H         1 UNK         0.0600 
    189 H189        3.0027  -13.5476  -46.1375 H         1 UNK         0.3000 
    190 H190       -2.1096  -20.7627  -47.5724 H         1 UNK         0.3000 
    191 H191       -3.4668  -22.3208  -49.4981 H         1 UNK         0.0600 
    192 H192       -4.2370  -20.0843  -48.7816 H         1 UNK         0.0600 
    193 H193       -5.5154  -21.2635  -48.5296 H         1 UNK         0.0600 
    194 H194       -4.5751  -20.6822  -47.1591 H         1 UNK         0.0600 
    195 H195       -3.2898  -22.7097  -45.9267 H         1 UNK         0.3000 
    196 H196       -5.0178  -24.9584  -45.7393 H         1 UNK         0.0600 
    197 H197       -3.9542  -25.2452  -43.4918 H         1 UNK         0.0600 
    198 H198       -4.4256  -23.5780  -43.7827 H         1 UNK         0.0600 
    199 H199       -2.7330  -24.0498  -43.9118 H         1 UNK         0.0600 
    200 H200       -1.4299  -24.7672  -46.0851 H         1 UNK         0.3000 
    201 H201       -0.9243  -27.5540  -46.0567 H         1 UNK         0.0600 
    202 H202        0.8420  -25.8586  -45.7126 H         1 UNK         0.0600 
    203 H203        0.6486  -25.2707  -47.3628 H         1 UNK         0.0600 
    204 H204        1.2685  -26.8913  -47.0685 H         1 UNK         0.0600 
    205 H205       -1.7344  -25.3590  -48.7458 H         1 UNK         0.3000 
    206 H206       -1.6044  -27.3939  -50.8138 H         1 UNK         0.0600 
    207 H207       -1.1893  -24.9726  -51.2590 H         1 UNK         0.0600 
    208 H208       -2.5382  -25.5604  -52.2170 H         1 UNK         0.0600 
    209 H209       -2.8405  -24.5903  -50.7802 H         1 UNK         0.0600 
    210 H210       -3.8116  -26.9961  -48.3191 H         1 UNK         0.3000 
    211 H211       -5.8797  -27.5824  -47.8337 H         1 UNK         0.0600 
    212 H212       -5.6584  -29.5490  -50.1752 H         1 UNK         0.0600 
    213 H213       -6.7615  -29.6709  -48.8108 H         1 UNK         0.0600 
    214 H214       -5.0328  -29.8301  -48.5507 H         1 UNK         0.0600 
    215 H215       -5.6174  -25.3092  -49.4609 H         1 UNK         0.3000 
    216 H216       -6.6200  -23.7863  -50.6604 H         1 UNK         0.0600 
    217 H217       -8.4798  -24.1432  -49.0210 H         1 UNK         0.0600 
    218 H218       -9.2483  -25.2701  -50.1389 H         1 UNK         0.0600 
    219 H219       -9.0705  -23.5766  -50.5731 H         1 UNK         0.0600 
    220 H220       -5.8920  -26.5232  -52.0579 H         1 UNK         0.3000 
    221 H221       -7.5344  -26.4745  -54.4626 H         1 UNK         0.0600 
    222 H222       -6.0658  -28.3006  -55.1820 H         1 UNK         0.0600 
    223 H223       -4.9213  -27.9650  -53.8925 H         1 UNK         0.0600 
    224 H224       -6.5306  -28.5779  -53.5096 H         1 UNK         0.0600 
    225 H225       -4.7145  -24.7606  -53.3771 H         1 UNK         0.3000 
    226 H226       -4.5032  -23.3069  -55.8744 H         1 UNK         0.0600 
    227 H227       -2.8695  -25.1742  -56.2795 H         1 UNK         0.0600 
    228 H228       -2.0176  -23.6580  -56.0336 H         1 UNK         0.0600 
    229 H229       -2.0883  -24.8432  -54.7343 H         1 UNK         0.0600 
    230 H230       -3.4393  -21.2768  -55.5300 H         1 UNK         0.3000 
    231 H231       -2.2115  -20.4581  -53.1273 H         1 UNK         0.0600 
    232 H232       -4.0613  -18.7848  -52.4736 H         1 UNK         0.0600 
    233 H233       -4.4653  -20.4488  -52.0992 H         1 UNK         0.0600 
    234 H234       -5.1627  -19.6638  -53.5166 H         1 UNK         0.0600 
    235 H235       -1.3955  -18.2937  -53.3919 H         1 UNK         0.3000 
    236 H236       -1.4730  -17.1926  -56.1243 H         1 UNK         0.0600 
    237 H237        0.2444  -15.6871  -55.3293 H         1 UNK         0.0600 
    238 H238       -0.0761  -16.0790  -53.6519 H         1 UNK         0.0600 
    239 H239        0.6561  -17.2828  -54.7165 H         1 UNK         0.0600 
    240 H240       -3.0902  -16.7817  -53.0820 H         1 UNK         0.3000 
    241 H241       -4.0320  -14.1297  -53.2253 H         1 UNK         0.0600 
    242 H242       -5.8492  -13.1438  -54.2435 H         1 UNK         0.3800 
    243 H243       -6.8983  -14.0139  -55.3255 H         1 UNK         0.3800 
    244 H244       -5.8534  -14.9744  -51.6796 H         1 UNK         0.0800 
    245 H245       -5.3099  -16.6045  -51.9369 H         1 UNK         0.0800 
    246 H246       -4.0370  -17.7176  -50.4383 H         1 UNK         0.0800 
    247 H247       -3.3344  -17.0869  -48.9970 H         1 UNK         0.0800 
@<TRIPOS>BOND
     1    1    2 1    
     2    1  127 1    
     3    1  128 1    
     4    1  129 1    
     5    2    3 2    
     6    2    4 am   BACKBONE|DICT|INTERRES
     7    4    5 1    
     8    4  130 1    
     9    5    6 1    
    10    5   65 1    
    11    5  131 1    
    12    6    7 1    
    13    6  132 1    
    14    6  133 1    
    15    7    8 1    
    16    8    9 1    
    17    8  134 1    
    18    8  135 1    
    19    9   10 ar   
    20    9   14 ar   
    21   10   11 ar   
    22   10  136 1    
    23   11   12 ar   
    24   11  126 1    
    25   12   13 ar   
    26   12  137 1    
    27   13   14 ar   
    28   13   15 1    
    29   14  138 1    
    30   15   16 1    
    31   15  139 1    
    32   15  140 1    
    33   16   17 1    
    34   17   18 1    
    35   17  141 1    
    36   17  142 1    
    37   18   19 1    
    38   18   67 1    
    39   18  143 1    
    40   19   20 am   BACKBONE|DICT|INTERRES
    41   19  144 1    
    42   20   21 2    
    43   20   22 1    
    44   22   23 1    
    45   22   24 1    
    46   22  145 1    
    47   23  146 1    
    48   23  147 1    
    49   23  148 1    
    50   24   25 am   BACKBONE|DICT|INTERRES
    51   24  149 1    
    52   25   26 2    
    53   25   27 1    
    54   27   28 1    
    55   27   29 1    
    56   27  150 1    
    57   28  151 1    
    58   28  152 1    
    59   28  153 1    
    60   29   30 am   BACKBONE|DICT|INTERRES
    61   29  154 1    
    62   30   31 2    
    63   30   32 1    
    64   32   33 1    
    65   32   34 1    
    66   32  155 1    
    67   33  156 1    
    68   33  157 1    
    69   33  158 1    
    70   34   35 am   BACKBONE|DICT|INTERRES
    71   34  159 1    
    72   35   36 2    
    73   35   37 1    
    74   37   38 1    
    75   37   39 1    
    76   37  160 1    
    77   38  161 1    
    78   38  162 1    
    79   38  163 1    
    80   39   40 am   BACKBONE|DICT|INTERRES
    81   39  164 1    
    82   40   41 2    
    83   40   42 1    
    84   42   43 1    
    85   42   44 1    
    86   42  165 1    
    87   43  166 1    
    88   43  167 1    
    89   43  168 1    
    90   44   45 am   BACKBONE|DICT|INTERRES
    91   44  169 1    
    92   45   46 2    
    93   45   47 1    
    94   47   48 1    
    95   47   49 1    
    96   47  170 1    
    97   48  171 1    
    98   48  172 1    
    99   48  173 1    
   100   49   50 am   BACKBONE|DICT|INTERRES
   101   49  174 1    
   102   50   51 2    
   103   50   52 1    
   104   52   53 1    
   105   52   54 1    
   106   52  175 1    
   107   53  176 1    
   108   53  177 1    
   109   53  178 1    
   110   54   55 am   BACKBONE|DICT|INTERRES
   111   54  179 1    
   112   55   56 2    
   113   55   57 1    
   114   57   58 1    
   115   57   59 1    
   116   57  180 1    
   117   58  181 1    
   118   58  182 1    
   119   58  183 1    
   120   59   60 am   BACKBONE|DICT|INTERRES
   121   59  184 1    
   122   60   61 2    
   123   60   62 1    
   124   62   63 1    
   125   62   64 1    
   126   62  185 1    
   127   63  186 1    
   128   63  187 1    
   129   63  188 1    
   130   64   65 am   BACKBONE|DICT|INTERRES
   131   64  189 1    
   132   65   66 2    
   133   67   68 2    
   134   67   69 am   BACKBONE|DICT|INTERRES
   135   69   70 1    
   136   69  190 1    
   137   70   71 1    
   138   70   72 1    
   139   70  191 1    
   140   71  192 1    
   141   71  193 1    
   142   71  194 1    
   143   72   73 2    
   144   72   74 am   BACKBONE|DICT|INTERRES
   145   74   75 1    
   146   74  195 1    
   147   75   76 1    
   148   75   77 1    
   149   75  196 1    
   150   76  197 1    
   151   76  198 1    
   152   76  199 1    
   153   77   78 2    
   154   77   79 am   BACKBONE|DICT|INTERRES
   155   79   80 1    
   156   79  200 1    
   157   80   81 1    
   158   80   82 1    
   159   80  201 1    
   160   81  202 1    
   161   81  203 1    
   162   81  204 1    
   163   82   83 2    
   164   82   84 am   BACKBONE|DICT|INTERRES
   165   84   85 1    
   166   84  205 1    
   167   85   86 1    
   168   85   87 1    
   169   85  206 1    
   170   86  207 1    
   171   86  208 1    
   172   86  209 1    
   173   87   88 2    
   174   87   89 am   BACKBONE|DICT|INTERRES
   175   89   90 1    
   176   89  210 1    
   177   90   91 1    
   178   90   92 1    
   179   90  211 1    
   180   91  212 1    
   181   91  213 1    
   182   91  214 1    
   183   92   93 2    
   184   92   94 am   BACKBONE|DICT|INTERRES
   185   94   95 1    
   186   94  215 1    
   187   95   96 1    
   188   95   97 1    
   189   95  216 1    
   190   96  217 1    
   191   96  218 1    
   192   96  219 1    
   193   97   98 2    
   194   97   99 am   BACKBONE|DICT|INTERRES
   195   99  100 1    
   196   99  220 1    
   197  100  101 1    
   198  100  102 1    
   199  100  221 1    
   200  101  222 1    
   201  101  223 1    
   202  101  224 1    
   203  102  103 2    
   204  102  104 am   BACKBONE|DICT|INTERRES
   205  104  105 1    
   206  104  225 1    
   207  105  106 1    
   208  105  107 1    
   209  105  226 1    
   210  106  227 1    
   211  106  228 1    
   212  106  229 1    
   213  107  108 2    
   214  107  109 am   BACKBONE|DICT|INTERRES
   215  109  110 1    
   216  109  230 1    
   217  110  111 1    
   218  110  112 1    
   219  110  231 1    
   220  111  232 1    
   221  111  233 1    
   222  111  234 1    
   223  112  113 2    
   224  112  114 am   BACKBONE|DICT|INTERRES
   225  114  115 1    
   226  114  235 1    
   227  115  116 1    
   228  115  117 1    
   229  115  236 1    
   230  116  237 1    
   231  116  238 1    
   232  116  239 1    
   233  117  118 2    
   234  117  119 am   BACKBONE|DICT|INTERRES
   235  119  120 1    
   236  119  240 1    
   237  120  121 1    
   238  120  124 1    
   239  120  241 1    
   240  121  122 am   BACKBONE|DICT|INTERRES
   241  121  123 2    
   242  122  242 1    
   243  122  243 1    
   244  124  125 1    
   245  124  244 1    
   246  124  245 1    
   247  125  126 1    
   248  126  246 1    
   249  126  247 1    
@<TRIPOS>SUBSTRUCTURE
     1 UNK         1 GROUP             0       ****    0 ROOT    
