@<TRIPOS>MOLECULE
3R540
247   249    1
SMALL
USER_CHARGES


@<TRIPOS>ATOM
      1 CA          0.0088  -11.9374  -50.9931 C.3       0 UNK        -0.1800 
      2 C           1.4247  -11.7330  -50.4739 C.2       0 UNK         0.5000 
      3 O           1.6137  -11.0925  -49.4399 O.2       0 UNK        -0.5000 
      4 N           2.4182  -12.2896  -51.1774 N.am      1 UNK        -0.5000 
      5 CA          3.8487  -12.2588  -50.8386 C.3       1 UNK         0.1400 
      6 C6          4.7548  -12.7480  -52.0018 C.3       23 UNK        -0.0398 
      7 S7          4.1002  -14.1888  -52.9088 S.3       23 UNK        -0.2404 
      8 C8          4.7945  -15.6138  -51.9955 C.3       23 UNK        -0.0205 
      9 C9          3.9079  -16.8599  -52.0374 C.ar      23 UNK        -0.0193 
     10 C10         3.0187  -17.0917  -53.0921 C.ar      23 UNK        -0.1150 
     11 C11         2.1818  -18.2059  -53.0973 C.ar      23 UNK        -0.0193 
     12 C12         2.2705  -19.1390  -52.0598 C.ar      23 UNK        -0.1150 
     13 C13         3.1787  -18.9454  -51.0127 C.ar      23 UNK        -0.0193 
     14 C14         3.9846  -17.8004  -51.0040 C.ar      23 UNK        -0.1150 
     15 C15         3.3235  -19.9848  -49.9083 C.3       23 UNK        -0.0205 
     16 S16         2.4339  -19.5226  -48.3880 S.3       23 UNK        -0.2404 
     17 C17         0.7563  -20.1541  -48.7233 C.3       23 UNK        -0.0398 
     18 CA          0.4570  -21.4964  -48.0127 C.3       11 UNK         0.1400 
     19 N           0.4606  -21.3930  -46.5492 N.am      11 UNK        -0.5000 
     20 C           0.3709  -22.4383  -45.7130 C.2       10 UNK         0.5000 
     21 O           0.3888  -23.6132  -46.0827 O.2       10 UNK        -0.5000 
     22 CA          0.1736  -22.1245  -44.2176 C.3       10 UNK         0.1400 
     23 CB          1.5171  -21.8532  -43.5241 C.3       10 UNK        -0.1800 
     24 N          -0.7462  -21.0067  -43.9911 N.am      10 UNK        -0.5000 
     25 C          -2.0522  -21.0352  -44.2949 C.2       9 UNK         0.5000 
     26 O          -2.6206  -22.0259  -44.7495 O.2       9 UNK        -0.5000 
     27 CA         -2.8587  -19.7392  -44.0963 C.3       9 UNK         0.1400 
     28 CB         -3.3107  -19.5982  -42.6356 C.3       9 UNK        -0.1800 
     29 N          -2.1252  -18.5440  -44.5108 N.am      9 UNK        -0.5000 
     30 C          -1.7388  -18.2878  -45.7694 C.2       8 UNK         0.5000 
     31 O          -2.0221  -19.0037  -46.7285 O.2       8 UNK        -0.5000 
     32 CA         -0.8283  -17.0644  -45.9831 C.3       8 UNK         0.1400 
     33 CB         -1.6497  -15.7706  -46.0681 C.3       8 UNK        -0.1800 
     34 N           0.1866  -16.9336  -44.9369 N.am      8 UNK        -0.5000 
     35 C           1.1303  -17.8503  -44.6790 C.2       7 UNK         0.5000 
     36 O           1.2671  -18.8876  -45.3232 O.2       7 UNK        -0.5000 
     37 CA          2.0319  -17.5962  -43.4613 C.3       7 UNK         0.1400 
     38 CB          3.1286  -16.5722  -43.7834 C.3       7 UNK        -0.1800 
     39 N           1.2566  -17.1499  -42.3052 N.am      7 UNK        -0.5000 
     40 C           0.4247  -17.9388  -41.6109 C.2       6 UNK         0.5000 
     41 O           0.2602  -19.1349  -41.8488 O.2       6 UNK        -0.5000 
     42 CA         -0.3841  -17.2700  -40.4846 C.3       6 UNK         0.1400 
     43 CB          0.4373  -17.2146  -39.1879 C.3       6 UNK        -0.1800 
     44 N          -0.8282  -15.9201  -40.8351 N.am      6 UNK        -0.5000 
     45 C          -1.7267  -15.6433  -41.7909 C.2       5 UNK         0.5000 
     46 O          -2.2980  -16.5006  -42.4621 O.2       5 UNK        -0.5000 
     47 CA         -1.9909  -14.1546  -42.0789 C.3       5 UNK         0.1400 
     48 CB         -3.0450  -13.5940  -41.1128 C.3       5 UNK        -0.1800 
     49 N          -0.7788  -13.3337  -42.0108 N.am      5 UNK        -0.5000 
     50 C           0.2793  -13.4817  -42.8179 C.2       4 UNK         0.5000 
     51 O           0.3611  -14.3527  -43.6871 O.2       4 UNK        -0.5000 
     52 CA          1.4643  -12.5353  -42.5762 C.3       4 UNK         0.1400 
     53 CB          2.5039  -13.1980  -41.6597 C.3       4 UNK        -0.1800 
     54 N           2.1017  -12.1759  -43.8387 N.am      4 UNK        -0.5000 
     55 C           1.6174  -11.2887  -44.7127 C.2       3 UNK         0.5000 
     56 O           0.5985  -10.6247  -44.5148 O.2       3 UNK        -0.5000 
     57 CA          2.4039  -11.0923  -46.0217 C.3       3 UNK         0.1400 
     58 CB          3.7539  -10.3937  -45.7693 C.3       3 UNK        -0.1800 
     59 N           2.5779  -12.3044  -46.8296 N.am      3 UNK        -0.5000 
     60 C           3.2692  -13.4229  -46.5561 C.2       2 UNK         0.5000 
     61 O           3.8366  -13.6391  -45.4847 O.2       2 UNK        -0.5000 
     62 CA          3.3918  -14.4596  -47.6957 C.3       2 UNK         0.1400 
     63 CB          2.3173  -15.5462  -47.5666 C.3       2 UNK        -0.1800 
     64 N           3.3101  -13.8613  -49.0305 N.am      2 UNK        -0.5000 
     65 C           4.1936  -12.9747  -49.5152 C.2       1 UNK         0.5000 
     66 O           5.2448  -12.6851  -48.9418 O.2       1 UNK        -0.5000 
     67 C          -0.8718  -22.0913  -48.5214 C.2       11 UNK         0.5000 
     68 O          -0.8443  -23.0251  -49.3223 O.2       11 UNK        -0.5000 
     69 N          -2.0029  -21.5761  -48.0164 N.am      12 UNK        -0.5000 
     70 CA         -3.3479  -22.0220  -48.3769 C.3       12 UNK         0.1400 
     71 CB         -4.3951  -21.0836  -47.7613 C.3       12 UNK        -0.1800 
     72 C          -3.6233  -23.4862  -47.9972 C.2       12 UNK         0.5000 
     73 O          -4.2110  -24.2196  -48.7920 O.2       12 UNK        -0.5000 
     74 N          -3.1605  -23.9058  -46.8116 N.am      13 UNK        -0.5000 
     75 CA         -3.2850  -25.2677  -46.2866 C.3       13 UNK         0.1400 
     76 CB         -2.7094  -25.3239  -44.8642 C.3       13 UNK        -0.1800 
     77 C          -2.6334  -26.3449  -47.1744 C.2       13 UNK         0.5000 
     78 O          -3.1392  -27.4664  -47.2237 O.2       13 UNK        -0.5000 
     79 N          -1.5703  -25.9825  -47.9076 N.am      14 UNK        -0.5000 
     80 CA         -0.9133  -26.8456  -48.8946 C.3       14 UNK         0.1400 
     81 CB          0.4261  -26.2192  -49.3102 C.3       14 UNK        -0.1800 
     82 C          -1.7897  -27.1370  -50.1325 C.2       14 UNK         0.5000 
     83 O          -1.5598  -28.1394  -50.8096 O.2       14 UNK        -0.5000 
     84 N          -2.7897  -26.2825  -50.3852 N.am      15 UNK        -0.5000 
     85 CA         -3.8182  -26.4396  -51.4132 C.3       15 UNK         0.1400 
     86 CB         -3.8691  -25.1525  -52.2531 C.3       15 UNK        -0.1800 
     87 C          -5.1902  -26.7569  -50.7814 C.2       15 UNK         0.5000 
     88 O          -6.2195  -26.5200  -51.4152 O.2       15 UNK        -0.5000 
     89 N          -5.1938  -27.2516  -49.5317 N.am      16 UNK        -0.5000 
     90 CA         -6.3617  -27.6242  -48.7212 C.3       16 UNK         0.1400 
     91 CB         -7.0425  -28.8764  -49.3115 C.3       16 UNK        -0.1800 
     92 C          -7.3575  -26.4659  -48.4827 C.2       16 UNK         0.5000 
     93 O          -8.5507  -26.7103  -48.2985 O.2       16 UNK        -0.5000 
     94 N          -6.8479  -25.2254  -48.5126 N.am      17 UNK        -0.5000 
     95 CA         -7.5635  -23.9493  -48.4223 C.3       17 UNK         0.1400 
     96 CB         -8.2670  -23.7982  -47.0581 C.3       17 UNK        -0.1800 
     97 C          -8.4984  -23.6550  -49.6163 C.2       17 UNK         0.5000 
     98 O          -9.3000  -22.7228  -49.5366 O.2       17 UNK        -0.5000 
     99 N          -8.3719  -24.4172  -50.7129 N.am      18 UNK        -0.5000 
    100 CA        -9.1271  -24.2122  -51.9514 C.3       18 UNK         0.1400 
    101 CB        -9.2413  -25.5528  -52.6937 C.3       18 UNK        -0.1800 
    102 C         -8.4869  -23.1453  -52.8611 C.2       18 UNK         0.5000 
    103 O         -9.1588  -22.6303  -53.7559 O.2       18 UNK        -0.5000 
    104 N         -7.2080  -22.8368  -52.6226 N.am      19 UNK        -0.5000 
    105 CA        -6.3880  -21.8730  -53.3466 C.3       19 UNK         0.1400 
    106 CB        -5.9772  -22.4553  -54.7170 C.3       19 UNK        -0.1800 
    107 C         -5.1740  -21.5192  -52.4677 C.2       19 UNK         0.5000 
    108 O         -5.1769  -21.8294  -51.2749 O.2       19 UNK        -0.5000 
    109 N         -4.1578  -20.8946  -53.0787 N.am      20 UNK        -0.5000 
    110 CA        -2.8293  -20.5958  -52.5266 C.3       20 UNK         0.1400 
    111 CB        -2.0454  -21.8897  -52.2296 C.3       20 UNK        -0.1800 
    112 C         -2.8086  -19.5815  -51.3609 C.2       20 UNK         0.5000 
    113 O         -1.8396  -19.5326  -50.6021 O.2       20 UNK        -0.5000 
    114 N         -3.8357  -18.7215  -51.2877 N.am      21 UNK        -0.5000 
    115 CA        -3.9555  -17.6128  -50.3281 C.3       21 UNK         0.1400 
    116 CB        -5.3758  -17.0345  -50.4194 C.3       21 UNK        -0.1800 
    117 C         -2.8946  -16.4998  -50.5013 C.2       21 UNK         0.5000 
    118 O         -2.7614  -15.6419  -49.6289 O.2       21 UNK        -0.5000 
    119 N         -2.1531  -16.5518  -51.6135 N.am      22 UNK        -0.5000 
    120 CA        -0.9015  -15.8316  -51.8913 C.3       22 UNK         0.1400 
    121 C          0.2324  -16.0568  -50.8476 C.2       22 UNK         0.5000 
    122 N          0.2494  -17.1753  -50.1337 N.am      22 UNK        -0.7600 
    123 O          1.0906  -15.1949  -50.6755 O.2       22 UNK        -0.5000 
    124 C124       -0.4050  -16.1359  -53.3363 C.3       23 UNK        -0.0398 
    125 S125       -0.5011  -17.9143  -53.7937 S.3       23 UNK        -0.2404 
    126 C126        1.1984  -18.3887  -54.2415 C.3       23 UNK        -0.0205 
    127 H127       -0.5635  -12.5406  -50.2880 H         1 UNK         0.0600 
    128 H128       -0.4923  -10.9768  -51.1105 H         1 UNK         0.0600 
    129 H129        0.0029  -12.4451  -51.9579 H         1 UNK         0.0600 
    130 H130        2.1935  -12.8541  -51.9854 H         1 UNK         0.3000 
    131 H131        4.0972  -11.2094  -50.6659 H         1 UNK         0.0600 
    132 H132        4.8457  -11.9413  -52.7303 H         1 UNK         0.0800 
    133 H133        5.7764  -12.9487  -51.6728 H         1 UNK         0.0800 
    134 H134        5.7724  -15.8588  -52.4110 H         1 UNK         0.0800 
    135 H135        4.9602  -15.3322  -50.9560 H         1 UNK         0.0800 
    136 H136        2.9534  -16.3943  -53.9136 H         1 UNK         0.1150 
    137 H137        1.6338  -20.0122  -52.0710 H         1 UNK         0.1150 
    138 H138        4.6775  -17.6450  -50.1890 H         1 UNK         0.1150 
    139 H139        2.9880  -20.9646  -50.2516 H         1 UNK         0.0800 
    140 H140        4.3810  -20.1000  -49.6662 H         1 UNK         0.0800 
    141 H141        0.6318  -20.2543  -49.8027 H         1 UNK         0.0800 
    142 H142        0.0389  -19.3961  -48.4077 H         1 UNK         0.0800 
    143 H143        1.2457  -22.1998  -48.2882 H         1 UNK         0.0600 
    144 H144        0.5217  -20.4565  -46.1576 H         1 UNK         0.3000 
    145 H145       -0.2660  -23.0097  -43.7531 H         1 UNK         0.0600 
    146 H146        1.3824  -21.6871  -42.4552 H         1 UNK         0.0600 
    147 H147        2.1914  -22.7026  -43.6390 H         1 UNK         0.0600 
    148 H148        2.0200  -20.9799  -43.9376 H         1 UNK         0.0600 
    149 H149       -0.3532  -20.1677  -43.5799 H         1 UNK         0.3000 
    150 H150       -3.7534  -19.8083  -44.7177 H         1 UNK         0.0600 
    151 H151       -3.8695  -20.4776  -42.3131 H         1 UNK         0.0600 
    152 H152       -3.9629  -18.7344  -42.5070 H         1 UNK         0.0600 
    153 H153       -2.4632  -19.4816  -41.9603 H         1 UNK         0.0600 
    154 H154       -1.9082  -17.8697  -43.7828 H         1 UNK         0.3000 
    155 H155       -0.3094  -17.2003  -46.9344 H         1 UNK         0.0600 
    156 H156       -1.0127  -14.9143  -46.2908 H         1 UNK         0.0600 
    157 H157       -2.1741  -15.5646  -45.1349 H         1 UNK         0.0600 
    158 H158       -2.3970  -15.8355  -46.8596 H         1 UNK         0.0600 
    159 H159        0.1656  -16.0799  -44.3838 H         1 UNK         0.3000 
    160 H160        2.5194  -18.5389  -43.2033 H         1 UNK         0.0600 
    161 H161        2.7080  -15.6028  -44.0482 H         1 UNK         0.0600 
    162 H162        3.7375  -16.9049  -44.6249 H         1 UNK         0.0600 
    163 H163        3.7976  -16.4284  -42.9352 H         1 UNK         0.0600 
    164 H164        1.2934  -16.1669  -42.0829 H         1 UNK         0.3000 
    165 H165       -1.2696  -17.8824  -40.3019 H         1 UNK         0.0600 
    166 H166        1.3267  -16.5930  -39.2989 H         1 UNK         0.0600 
    167 H167       -0.1531  -16.8128  -38.3642 H         1 UNK         0.0600 
    168 H168        0.7679  -18.2115  -38.8932 H         1 UNK         0.0600 
    169 H169       -0.4073  -15.1533  -40.3318 H         1 UNK         0.3000 
    170 H170       -2.3864  -14.0806  -43.0940 H         1 UNK         0.0600 
    171 H171       -3.9648  -14.1788  -41.1574 H         1 UNK         0.0600 
    172 H172       -2.6958  -13.6097  -40.0797 H         1 UNK         0.0600 
    173 H173       -3.3035  -12.5653  -41.3648 H         1 UNK         0.0600 
    174 H174       -0.7689  -12.6017  -41.3151 H         1 UNK         0.3000 
    175 H175        1.1029  -11.6258  -42.0915 H         1 UNK         0.0600 
    176 H176        2.0628  -13.4787  -40.7025 H         1 UNK         0.0600 
    177 H177        3.3300  -12.5186  -41.4489 H         1 UNK         0.0600 
    178 H178        2.9219  -14.0997  -42.1072 H         1 UNK         0.0600 
    179 H179        2.8857  -12.7467  -44.1441 H         1 UNK         0.3000 
    180 H180        1.8083  -10.4197  -46.6410 H         1 UNK         0.0600 
    181 H181        4.4257  -11.0037  -45.1649 H         1 UNK         0.0600 
    182 H182        3.6106   -9.4488  -45.2438 H         1 UNK         0.0600 
    183 H183        4.2605  -10.1703  -46.7084 H         1 UNK         0.0600 
    184 H184        2.1701  -12.2339  -47.7553 H         1 UNK         0.3000 
    185 H185        4.3694  -14.9365  -47.6016 H         1 UNK         0.0600 
    186 H186        2.4568  -16.3243  -48.3167 H         1 UNK         0.0600 
    187 H187        2.3693  -16.0265  -46.5915 H         1 UNK         0.0600 
    188 H188        1.3123  -15.1389  -47.6834 H         1 UNK         0.0600 
    189 H189        2.4979  -14.1019  -49.5920 H         1 UNK         0.3000 
    190 H190       -1.9446  -20.7685  -47.4013 H         1 UNK         0.3000 
    191 H191       -3.4270  -21.9441  -49.4587 H         1 UNK         0.0600 
    192 H192       -4.2154  -20.0497  -48.0541 H         1 UNK         0.0600 
    193 H193       -5.3975  -21.3417  -48.1013 H         1 UNK         0.0600 
    194 H194       -4.3913  -21.1312  -46.6728 H         1 UNK         0.0600 
    195 H195       -2.7427  -23.2197  -46.1869 H         1 UNK         0.3000 
    196 H196       -4.3512  -25.4968  -46.2308 H         1 UNK         0.0600 
    197 H197       -2.7918  -26.3281  -44.4465 H         1 UNK         0.0600 
    198 H198       -3.2455  -24.6508  -44.1952 H         1 UNK         0.0600 
    199 H199       -1.6555  -25.0451  -44.8468 H         1 UNK         0.0600 
    200 H200       -1.2251  -25.0341  -47.8296 H         1 UNK         0.3000 
    201 H201       -0.7020  -27.8017  -48.4113 H         1 UNK         0.0600 
    202 H202        1.0446  -25.9904  -48.4420 H         1 UNK         0.0600 
    203 H203        0.2833  -25.2980  -49.8744 H         1 UNK         0.0600 
    204 H204        0.9931  -26.9023  -49.9437 H         1 UNK         0.0600 
    205 H205       -2.9265  -25.4948  -49.7602 H         1 UNK         0.3000 
    206 H206       -3.5740  -27.2706  -52.0773 H         1 UNK         0.0600 
    207 H207       -2.8973  -24.9296  -52.6932 H         1 UNK         0.0600 
    208 H208       -4.5838  -25.2400  -53.0720 H         1 UNK         0.0600 
    209 H209       -4.1661  -24.2986  -51.6450 H         1 UNK         0.0600 
    210 H210       -4.3000  -27.3806  -49.0731 H         1 UNK         0.3000 
    211 H211       -5.9738  -27.8921  -47.7375 H         1 UNK         0.0600 
    212 H212       -7.5113  -28.6656  -50.2733 H         1 UNK         0.0600 
    213 H213       -7.8188  -29.2535  -48.6448 H         1 UNK         0.0600 
    214 H214       -6.3244  -29.6832  -49.4579 H         1 UNK         0.0600 
    215 H215       -5.8506  -25.1256  -48.6889 H         1 UNK         0.3000 
    216 H216       -6.7911  -23.1826  -48.4720 H         1 UNK         0.0600 
    217 H217       -7.5776  -23.9918  -46.2363 H         1 UNK         0.0600 
    218 H218       -9.1114  -24.4803  -46.9581 H         1 UNK         0.0600 
    219 H219       -8.6501  -22.7858  -46.9254 H         1 UNK         0.0600 
    220 H220       -7.6847  -25.1636  -50.7227 H         1 UNK         0.3000 
    221 H221      -10.1370  -23.8773  -51.7053 H         1 UNK         0.0600 
    222 H222       -8.2675  -25.9147  -53.0250 H         1 UNK         0.0600 
    223 H223       -9.6867  -26.3196  -52.0596 H         1 UNK         0.0600 
    224 H224       -9.8712  -25.4553  -53.5787 H         1 UNK         0.0600 
    225 H225       -6.7460  -23.2481  -51.8215 H         1 UNK         0.3000 
    226 H226       -6.9664  -20.9594  -53.4961 H         1 UNK         0.0600 
    227 H227       -6.8466  -22.7610  -55.2989 H         1 UNK         0.0600 
    228 H228       -5.4409  -21.7229  -55.3204 H         1 UNK         0.0600 
    229 H229       -5.3326  -23.3277  -54.6031 H         1 UNK         0.0600 
    230 H230       -4.2705  -20.6673  -54.0568 H         1 UNK         0.3000 
    231 H231       -2.2979  -20.1002  -53.3376 H         1 UNK         0.0600 
    232 H232       -1.0286  -21.6712  -51.9011 H         1 UNK         0.0600 
    233 H233       -1.9669  -22.5120  -53.1206 H         1 UNK         0.0600 
    234 H234       -2.5177  -22.4863  -51.4516 H         1 UNK         0.0600 
    235 H235       -4.5849  -18.8211  -51.9564 H         1 UNK         0.3000 
    236 H236       -3.8167  -18.0240  -49.3263 H         1 UNK         0.0600 
    237 H237       -5.5204  -16.2337  -49.6930 H         1 UNK         0.0600 
    238 H238       -5.5782  -16.6215  -51.4084 H         1 UNK         0.0600 
    239 H239       -6.1263  -17.7976  -50.2120 H         1 UNK         0.0600 
    240 H240       -2.3509  -17.3001  -52.2605 H         1 UNK         0.3000 
    241 H241       -1.1402  -14.7682  -51.8412 H         1 UNK         0.0600 
    242 H242       -0.4437  -17.8950  -50.2946 H         1 UNK         0.3800 
    243 H243        1.0109  -17.3336  -49.4960 H         1 UNK         0.3800 
    244 H244       -1.0362  -15.5958  -54.0428 H         1 UNK         0.0800 
    245 H245        0.6006  -15.7480  -53.5024 H         1 UNK         0.0800 
    246 H246        1.1991  -19.4346  -54.5515 H         1 UNK         0.0800 
    247 H247        1.5095  -17.8146  -55.1157 H         1 UNK         0.0800 
@<TRIPOS>BOND
     1    1    2 1    
     2    1  127 1    
     3    1  128 1    
     4    1  129 1    
     5    2    3 2    
     6    2    4 am   BACKBONE|DICT|INTERRES
     7    4    5 1    
     8    4  130 1    
     9    5    6 1    
    10    5   65 1    
    11    5  131 1    
    12    6    7 1    
    13    6  132 1    
    14    6  133 1    
    15    7    8 1    
    16    8    9 1    
    17    8  134 1    
    18    8  135 1    
    19    9   10 ar   
    20    9   14 ar   
    21   10   11 ar   
    22   10  136 1    
    23   11   12 ar   
    24   11  126 1    
    25   12   13 ar   
    26   12  137 1    
    27   13   14 ar   
    28   13   15 1    
    29   14  138 1    
    30   15   16 1    
    31   15  139 1    
    32   15  140 1    
    33   16   17 1    
    34   17   18 1    
    35   17  141 1    
    36   17  142 1    
    37   18   19 1    
    38   18   67 1    
    39   18  143 1    
    40   19   20 am   BACKBONE|DICT|INTERRES
    41   19  144 1    
    42   20   21 2    
    43   20   22 1    
    44   22   23 1    
    45   22   24 1    
    46   22  145 1    
    47   23  146 1    
    48   23  147 1    
    49   23  148 1    
    50   24   25 am   BACKBONE|DICT|INTERRES
    51   24  149 1    
    52   25   26 2    
    53   25   27 1    
    54   27   28 1    
    55   27   29 1    
    56   27  150 1    
    57   28  151 1    
    58   28  152 1    
    59   28  153 1    
    60   29   30 am   BACKBONE|DICT|INTERRES
    61   29  154 1    
    62   30   31 2    
    63   30   32 1    
    64   32   33 1    
    65   32   34 1    
    66   32  155 1    
    67   33  156 1    
    68   33  157 1    
    69   33  158 1    
    70   34   35 am   BACKBONE|DICT|INTERRES
    71   34  159 1    
    72   35   36 2    
    73   35   37 1    
    74   37   38 1    
    75   37   39 1    
    76   37  160 1    
    77   38  161 1    
    78   38  162 1    
    79   38  163 1    
    80   39   40 am   BACKBONE|DICT|INTERRES
    81   39  164 1    
    82   40   41 2    
    83   40   42 1    
    84   42   43 1    
    85   42   44 1    
    86   42  165 1    
    87   43  166 1    
    88   43  167 1    
    89   43  168 1    
    90   44   45 am   BACKBONE|DICT|INTERRES
    91   44  169 1    
    92   45   46 2    
    93   45   47 1    
    94   47   48 1    
    95   47   49 1    
    96   47  170 1    
    97   48  171 1    
    98   48  172 1    
    99   48  173 1    
   100   49   50 am   BACKBONE|DICT|INTERRES
   101   49  174 1    
   102   50   51 2    
   103   50   52 1    
   104   52   53 1    
   105   52   54 1    
   106   52  175 1    
   107   53  176 1    
   108   53  177 1    
   109   53  178 1    
   110   54   55 am   BACKBONE|DICT|INTERRES
   111   54  179 1    
   112   55   56 2    
   113   55   57 1    
   114   57   58 1    
   115   57   59 1    
   116   57  180 1    
   117   58  181 1    
   118   58  182 1    
   119   58  183 1    
   120   59   60 am   BACKBONE|DICT|INTERRES
   121   59  184 1    
   122   60   61 2    
   123   60   62 1    
   124   62   63 1    
   125   62   64 1    
   126   62  185 1    
   127   63  186 1    
   128   63  187 1    
   129   63  188 1    
   130   64   65 am   BACKBONE|DICT|INTERRES
   131   64  189 1    
   132   65   66 2    
   133   67   68 2    
   134   67   69 am   BACKBONE|DICT|INTERRES
   135   69   70 1    
   136   69  190 1    
   137   70   71 1    
   138   70   72 1    
   139   70  191 1    
   140   71  192 1    
   141   71  193 1    
   142   71  194 1    
   143   72   73 2    
   144   72   74 am   BACKBONE|DICT|INTERRES
   145   74   75 1    
   146   74  195 1    
   147   75   76 1    
   148   75   77 1    
   149   75  196 1    
   150   76  197 1    
   151   76  198 1    
   152   76  199 1    
   153   77   78 2    
   154   77   79 am   BACKBONE|DICT|INTERRES
   155   79   80 1    
   156   79  200 1    
   157   80   81 1    
   158   80   82 1    
   159   80  201 1    
   160   81  202 1    
   161   81  203 1    
   162   81  204 1    
   163   82   83 2    
   164   82   84 am   BACKBONE|DICT|INTERRES
   165   84   85 1    
   166   84  205 1    
   167   85   86 1    
   168   85   87 1    
   169   85  206 1    
   170   86  207 1    
   171   86  208 1    
   172   86  209 1    
   173   87   88 2    
   174   87   89 am   BACKBONE|DICT|INTERRES
   175   89   90 1    
   176   89  210 1    
   177   90   91 1    
   178   90   92 1    
   179   90  211 1    
   180   91  212 1    
   181   91  213 1    
   182   91  214 1    
   183   92   93 2    
   184   92   94 am   BACKBONE|DICT|INTERRES
   185   94   95 1    
   186   94  215 1    
   187   95   96 1    
   188   95   97 1    
   189   95  216 1    
   190   96  217 1    
   191   96  218 1    
   192   96  219 1    
   193   97   98 2    
   194   97   99 am   BACKBONE|DICT|INTERRES
   195   99  100 1    
   196   99  220 1    
   197  100  101 1    
   198  100  102 1    
   199  100  221 1    
   200  101  222 1    
   201  101  223 1    
   202  101  224 1    
   203  102  103 2    
   204  102  104 am   BACKBONE|DICT|INTERRES
   205  104  105 1    
   206  104  225 1    
   207  105  106 1    
   208  105  107 1    
   209  105  226 1    
   210  106  227 1    
   211  106  228 1    
   212  106  229 1    
   213  107  108 2    
   214  107  109 am   BACKBONE|DICT|INTERRES
   215  109  110 1    
   216  109  230 1    
   217  110  111 1    
   218  110  112 1    
   219  110  231 1    
   220  111  232 1    
   221  111  233 1    
   222  111  234 1    
   223  112  113 2    
   224  112  114 am   BACKBONE|DICT|INTERRES
   225  114  115 1    
   226  114  235 1    
   227  115  116 1    
   228  115  117 1    
   229  115  236 1    
   230  116  237 1    
   231  116  238 1    
   232  116  239 1    
   233  117  118 2    
   234  117  119 am   BACKBONE|DICT|INTERRES
   235  119  120 1    
   236  119  240 1    
   237  120  121 1    
   238  120  124 1    
   239  120  241 1    
   240  121  122 am   BACKBONE|DICT|INTERRES
   241  121  123 2    
   242  122  242 1    
   243  122  243 1    
   244  124  125 1    
   245  124  244 1    
   246  124  245 1    
   247  125  126 1    
   248  126  246 1    
   249  126  247 1    
@<TRIPOS>SUBSTRUCTURE
     1 UNK         1 GROUP             0       ****    0 ROOT    
