@<TRIPOS>MOLECULE
3R540
247   249    1
SMALL
USER_CHARGES


@<TRIPOS>ATOM
      1 CA         -3.1240  -16.8977  -48.2729 C.3       0 UNK        -0.1800 
      2 C          -2.6080  -15.5818  -47.7131 C.2       0 UNK         0.5000 
      3 O          -3.3435  -14.8909  -47.0070 O.2       0 UNK        -0.5000 
      4 N          -1.3535  -15.2262  -48.0201 N.am      1 UNK        -0.5000 
      5 CA         -0.6920  -13.9966  -47.5687 C.3       1 UNK         0.1400 
      6 C6          0.4933  -13.5891  -48.4798 C.3       23 UNK        -0.0398 
      7 S7         -0.0371  -13.2556  -50.1949 S.3       23 UNK        -0.2404 
      8 C8          1.0022  -14.4058  -51.1495 C.3       23 UNK        -0.0205 
      9 C9          0.6585  -15.8614  -50.8735 C.ar      23 UNK        -0.0193 
     10 C10        -0.4990  -16.4259  -51.4178 C.ar      23 UNK        -0.1150 
     11 C11        -0.8105  -17.7679  -51.1844 C.ar      23 UNK        -0.0193 
     12 C12         0.0469  -18.5449  -50.4014 C.ar      23 UNK        -0.1150 
     13 C13         1.1990  -17.9884  -49.8383 C.ar      23 UNK        -0.0193 
     14 C14         1.5031  -16.6476  -50.0838 C.ar      23 UNK        -0.1150 
     15 C15         2.1138  -18.8359  -48.9651 C.3       23 UNK        -0.0205 
     16 S16         1.8486  -18.5597  -47.1783 S.3       23 UNK        -0.2404 
     17 C17         0.0543  -18.8264  -46.9873 C.3       23 UNK        -0.0398 
     18 CA         -0.3690  -20.3006  -47.1911 C.3       11 UNK         0.1400 
     19 N           0.0265  -21.1600  -46.0730 N.am      11 UNK        -0.5000 
     20 C          -0.1102  -22.4925  -46.0606 C.2       10 UNK         0.5000 
     21 O          -0.5320  -23.1434  -47.0145 O.2       10 UNK        -0.5000 
     22 CA          0.2145  -23.2148  -44.7439 C.3       10 UNK         0.1400 
     23 CB          1.7272  -23.4199  -44.5781 C.3       10 UNK        -0.1800 
     24 N          -0.3288  -22.4996  -43.5905 N.am      10 UNK        -0.5000 
     25 C          -1.6372  -22.4068  -43.3129 C.2       9 UNK         0.5000 
     26 O          -2.5179  -22.9538  -43.9767 O.2       9 UNK        -0.5000 
     27 CA         -2.0308  -21.5231  -42.1163 C.3       9 UNK         0.1400 
     28 CB         -1.9625  -22.3237  -40.8077 C.3       9 UNK        -0.1800 
     29 N          -1.1964  -20.3264  -41.9995 N.am      9 UNK        -0.5000 
     30 C          -1.1943  -19.3166  -42.8809 C.2       8 UNK         0.5000 
     31 O          -1.9049  -19.2801  -43.8851 O.2       8 UNK        -0.5000 
     32 CA         -0.1900  -18.1805  -42.6167 C.3       8 UNK         0.1400 
     33 CB         -0.7428  -17.2092  -41.5627 C.3       8 UNK        -0.1800 
     34 N           1.1298  -18.6533  -42.1896 N.am      8 UNK        -0.5000 
     35 C           1.9263  -19.4714  -42.8938 C.2       7 UNK         0.5000 
     36 O           1.5879  -19.9841  -43.9605 O.2       7 UNK        -0.5000 
     37 CA          3.3085  -19.8057  -42.2895 C.3       7 UNK         0.1400 
     38 CB          4.3755  -20.0716  -43.3724 C.3       7 UNK        -0.1800 
     39 N           3.7900  -18.8251  -41.3048 N.am      7 UNK        -0.5000 
     40 C           4.1076  -17.5395  -41.5235 C.2       6 UNK         0.5000 
     41 O           4.0037  -16.9858  -42.6203 O.2       6 UNK        -0.5000 
     42 CA          4.5603  -16.7306  -40.2872 C.3       6 UNK         0.1400 
     43 CB          5.4466  -17.5386  -39.3123 C.3       6 UNK        -0.1800 
     44 N           5.1933  -15.4600  -40.6510 N.am      6 UNK        -0.5000 
     45 C           6.3641  -15.2672  -41.2722 C.2       5 UNK         0.5000 
     46 O           7.1495  -16.1686  -41.5732 O.2       5 UNK        -0.5000 
     47 CA          6.6860  -13.8023  -41.6385 C.3       5 UNK         0.1400 
     48 CB          8.1859  -13.5774  -41.9017 C.3       5 UNK        -0.1800 
     49 N           5.9325  -13.3626  -42.8140 N.am      5 UNK        -0.5000 
     50 C           4.6147  -13.1267  -42.8540 C.2       4 UNK         0.5000 
     51 O           3.8788  -13.2126  -41.8663 O.2       4 UNK        -0.5000 
     52 CA          4.0408  -12.7508  -44.2373 C.3       4 UNK         0.1400 
     53 CB          4.0687  -13.9658  -45.1799 C.3       4 UNK        -0.1800 
     54 N           2.6689  -12.2424  -44.1715 N.am      4 UNK        -0.5000 
     55 C           2.2952  -11.0942  -43.5855 C.2       3 UNK         0.5000 
     56 O           3.0958  -10.2798  -43.1221 O.2       3 UNK        -0.5000 
     57 CA          0.7839  -10.7787  -43.5114 C.3       3 UNK         0.1400 
     58 CB          0.4322   -9.6038  -44.4384 C.3       3 UNK        -0.1800 
     59 N          -0.0767  -11.9119  -43.8546 N.am      3 UNK        -0.5000 
     60 C          -0.2769  -13.0007  -43.0993 C.2       2 UNK         0.5000 
     61 O           0.1651  -13.1283  -41.9579 O.2       2 UNK        -0.5000 
     62 CA         -1.0929  -14.1513  -43.7284 C.3       2 UNK         0.1400 
     63 CB         -2.4845  -14.2455  -43.0845 C.3       2 UNK        -0.1800 
     64 N          -1.2541  -14.0669  -45.1840 N.am      2 UNK        -0.5000 
     65 C          -0.2683  -14.1134  -46.0889 C.2       1 UNK         0.5000 
     66 O           0.9191  -14.2278  -45.7861 O.2       1 UNK        -0.5000 
     67 C          -1.8769  -20.3955  -47.4983 C.2       11 UNK         0.5000 
     68 O          -2.2504  -20.4230  -48.6696 O.2       11 UNK        -0.5000 
     69 N          -2.7104  -20.4584  -46.4531 N.am      12 UNK        -0.5000 
     70 CA         -4.1532  -20.6269  -46.5723 C.3       12 UNK         0.1400 
     71 CB         -4.8239  -20.2899  -45.2308 C.3       12 UNK        -0.1800 
     72 C          -4.5444  -22.0323  -47.0647 C.2       12 UNK         0.5000 
     73 O          -5.1353  -22.1552  -48.1392 O.2       12 UNK        -0.5000 
     74 N          -4.2411  -23.0574  -46.2578 N.am      13 UNK        -0.5000 
     75 CA         -4.7775  -24.4062  -46.4233 C.3       13 UNK         0.1400 
     76 CB         -4.9596  -25.0559  -45.0418 C.3       13 UNK        -0.1800 
     77 C          -3.9146  -25.2934  -47.3306 C.2       13 UNK         0.5000 
     78 O          -4.4412  -25.8670  -48.2837 O.2       13 UNK        -0.5000 
     79 N          -2.6182  -25.4174  -47.0137 N.am      14 UNK        -0.5000 
     80 CA         -1.7052  -26.3598  -47.6716 C.3       14 UNK         0.1400 
     81 CB         -0.4365  -26.5485  -46.8246 C.3       14 UNK        -0.1800 
     82 C          -1.3583  -25.9485  -49.1125 C.2       14 UNK         0.5000 
     83 O          -1.3561  -26.7967  -50.0053 O.2       14 UNK        -0.5000 
     84 N          -1.1119  -24.6488  -49.3170 N.am      15 UNK        -0.5000 
     85 CA         -0.8981  -24.0377  -50.6306 C.3       15 UNK         0.1400 
     86 CB         -0.0791  -22.7507  -50.4553 C.3       15 UNK        -0.1800 
     87 C          -2.2189  -23.7630  -51.3822 C.2       15 UNK         0.5000 
     88 O          -2.1712  -23.4407  -52.5680 O.2       15 UNK        -0.5000 
     89 N          -3.3564  -23.9162  -50.6861 N.am      16 UNK        -0.5000 
     90 CA         -4.7370  -23.8227  -51.1622 C.3       16 UNK         0.1400 
     91 CB         -5.0779  -25.0172  -52.0726 C.3       16 UNK        -0.1800 
     92 C          -5.0610  -22.4596  -51.8003 C.2       16 UNK         0.5000 
     93 O          -5.2798  -22.3622  -53.0118 O.2       16 UNK        -0.5000 
     94 N          -5.1127  -21.4273  -50.9487 N.am      17 UNK        -0.5000 
     95 CA         -5.4850  -20.0577  -51.3107 C.3       17 UNK         0.1400 
     96 CB         -5.2931  -19.1396  -50.0965 C.3       17 UNK        -0.1800 
     97 C          -6.9304  -19.9402  -51.8265 C.2       17 UNK         0.5000 
     98 O          -7.1929  -19.1222  -52.7070 O.2       17 UNK        -0.5000 
     99 N          -7.8303  -20.7826  -51.2977 N.am      18 UNK        -0.5000 
    100 CA        -9.2356  -20.8719  -51.7030 C.3       18 UNK         0.1400 
    101 CB        -9.9910  -21.7584  -50.7013 C.3       18 UNK        -0.1800 
    102 C         -9.4192  -21.4012  -53.1390 C.2       18 UNK         0.5000 
    103 O        -10.3564  -20.9894  -53.8233 O.2       18 UNK        -0.5000 
    104 N         -8.5097  -22.2845  -53.5732 N.am      19 UNK        -0.5000 
    105 CA        -8.4375  -22.8000  -54.9420 C.3       19 UNK         0.1400 
    106 CB        -7.8160  -24.2055  -54.9047 C.3       19 UNK        -0.1800 
    107 C         -7.6141  -21.8842  -55.8690 C.2       19 UNK         0.5000 
    108 O         -7.6724  -22.0551  -57.0871 O.2       19 UNK        -0.5000 
    109 N         -6.8444  -20.9591  -55.2740 N.am      20 UNK        -0.5000 
    110 CA        -5.8490  -20.0790  -55.8921 C.3       20 UNK         0.1400 
    111 CB        -6.5229  -19.0531  -56.8264 C.3       20 UNK        -0.1800 
    112 C         -4.7110  -20.8715  -56.5699 C.2       20 UNK         0.5000 
    113 O         -4.2210  -20.4728  -57.6280 O.2       20 UNK        -0.5000 
    114 N         -4.3238  -21.9967  -55.9520 N.am      21 UNK        -0.5000 
    115 CA        -3.2998  -22.9093  -56.4659 C.3       21 UNK         0.1400 
    116 CB        -3.5599  -24.3120  -55.8992 C.3       21 UNK        -0.1800 
    117 C         -1.8657  -22.4495  -56.1400 C.2       21 UNK         0.5000 
    118 O         -0.9184  -22.9486  -56.7501 O.2       21 UNK        -0.5000 
    119 N         -1.7312  -21.5257  -55.1823 N.am      22 UNK        -0.5000 
    120 CA        -0.4708  -20.9187  -54.7420 C.3       22 UNK         0.1400 
    121 C          0.2483  -20.0727  -55.8341 C.2       22 UNK         0.5000 
    122 N          1.5618  -19.9151  -55.7329 N.am      22 UNK        -0.7600 
    123 O         -0.3657  -19.5368  -56.7545 O.2       22 UNK        -0.5000 
    124 C124       -0.6675  -20.1253  -53.4256 C.3       23 UNK        -0.0398 
    125 S125       -1.9174  -18.7953  -53.5164 S.3       23 UNK        -0.2404 
    126 C126       -2.0844  -18.3734  -51.7556 C.3       23 UNK        -0.0205 
    127 H127       -3.4120  -17.5642  -47.4602 H         1 UNK         0.0600 
    128 H128       -2.3773  -17.4050  -48.8809 H         1 UNK         0.0600 
    129 H129       -4.0004  -16.7161  -48.8939 H         1 UNK         0.0600 
    130 H130       -0.7985  -15.8178  -48.6224 H         1 UNK         0.3000 
    131 H131       -1.4201  -13.1838  -47.6204 H         1 UNK         0.0600 
    132 H132        1.2724  -14.3517  -48.4642 H         1 UNK         0.0800 
    133 H133        0.9619  -12.6775  -48.1046 H         1 UNK         0.0800 
    134 H134        0.8665  -14.2019  -52.2126 H         1 UNK         0.0800 
    135 H135        2.0534  -14.2069  -50.9349 H         1 UNK         0.0800 
    136 H136       -1.1574  -15.8201  -52.0247 H         1 UNK         0.1150 
    137 H137       -0.1927  -19.5824  -50.2211 H         1 UNK         0.1150 
    138 H138        2.3981  -16.2182  -49.6557 H         1 UNK         0.1150 
    139 H139        1.9898  -19.8947  -49.1956 H         1 UNK         0.0800 
    140 H140        3.1532  -18.6034  -49.2006 H         1 UNK         0.0800 
    141 H141       -0.4566  -18.1612  -47.6820 H         1 UNK         0.0800 
    142 H142       -0.2374  -18.4838  -45.9936 H         1 UNK         0.0800 
    143 H143        0.1392  -20.6879  -48.0740 H         1 UNK         0.0600 
    144 H144        0.4431  -20.6997  -45.2669 H         1 UNK         0.3000 
    145 H145       -0.2540  -24.2004  -44.7786 H         1 UNK         0.0600 
    146 H146        1.9540  -23.9614  -43.6597 H         1 UNK         0.0600 
    147 H147        2.1313  -24.0024  -45.4070 H         1 UNK         0.0600 
    148 H148        2.2664  -22.4736  -44.5524 H         1 UNK         0.0600 
    149 H149        0.3249  -21.9710  -43.0328 H         1 UNK         0.3000 
    150 H150       -3.0640  -21.2028  -42.2663 H         1 UNK         0.0600 
    151 H151       -2.5916  -23.2132  -40.8618 H         1 UNK         0.0600 
    152 H152       -2.3137  -21.7298  -39.9636 H         1 UNK         0.0600 
    153 H153       -0.9462  -22.6530  -40.5876 H         1 UNK         0.0600 
    154 H154       -0.5743  -20.2766  -41.2062 H         1 UNK         0.3000 
    155 H155       -0.0572  -17.6338  -43.5526 H         1 UNK         0.0600 
    156 H156       -0.0928  -16.3421  -41.4427 H         1 UNK         0.0600 
    157 H157       -0.8452  -17.6870  -40.5877 H         1 UNK         0.0600 
    158 H158       -1.7284  -16.8416  -41.8499 H         1 UNK         0.0600 
    159 H159        1.4812  -18.2870  -41.3180 H         1 UNK         0.3000 
    160 H160        3.1692  -20.7370  -41.7391 H         1 UNK         0.0600 
    161 H161        4.5082  -19.2121  -44.0302 H         1 UNK         0.0600 
    162 H162        4.0967  -20.9182  -44.0002 H         1 UNK         0.0600 
    163 H163        5.3418  -20.3058  -42.9261 H         1 UNK         0.0600 
    164 H164        3.8960  -19.1799  -40.3645 H         1 UNK         0.3000 
    165 H165        3.6480  -16.4592  -39.7544 H         1 UNK         0.0600 
    166 H166        6.3047  -17.9848  -39.8160 H         1 UNK         0.0600 
    167 H167        5.8242  -16.9064  -38.5084 H         1 UNK         0.0600 
    168 H168        4.8865  -18.3467  -38.8412 H         1 UNK         0.0600 
    169 H169        4.5861  -14.6487  -40.5938 H         1 UNK         0.3000 
    170 H170        6.4031  -13.1764  -40.7893 H         1 UNK         0.0600 
    171 H171        8.7834  -13.8930  -41.0455 H         1 UNK         0.0600 
    172 H172        8.5340  -14.1382  -42.7702 H         1 UNK         0.0600 
    173 H173        8.4016  -12.5230  -42.0756 H         1 UNK         0.0600 
    174 H174        6.4596  -13.2983  -43.6727 H         1 UNK         0.3000 
    175 H175        4.6695  -11.9652  -44.6614 H         1 UNK         0.0600 
    176 H176        3.4720  -14.7903  -44.7861 H         1 UNK         0.0600 
    177 H177        3.6782  -13.7115  -46.1656 H         1 UNK         0.0600 
    178 H178        5.0837  -14.3378  -45.3227 H         1 UNK         0.0600 
    179 H179        1.9520  -12.8613  -44.5315 H         1 UNK         0.3000 
    180 H180        0.5652  -10.4818  -42.4836 H         1 UNK         0.0600 
    181 H181        0.6267   -9.8449  -45.4842 H         1 UNK         0.0600 
    182 H182        1.0205   -8.7192  -44.1909 H         1 UNK         0.0600 
    183 H183       -0.6185   -9.3282  -44.3458 H         1 UNK         0.0600 
    184 H184       -0.4952  -11.8948  -44.7723 H         1 UNK         0.3000 
    185 H185       -0.5511  -15.0742  -43.5174 H         1 UNK         0.0600 
    186 H186       -2.4109  -14.3405  -42.0003 H         1 UNK         0.0600 
    187 H187       -3.0845  -13.3598  -43.2965 H         1 UNK         0.0600 
    188 H188       -3.0297  -15.1162  -43.4498 H         1 UNK         0.0600 
    189 H189       -2.2059  -14.0448  -45.5361 H         1 UNK         0.3000 
    190 H190       -2.3356  -20.3617  -45.5150 H         1 UNK         0.3000 
    191 H191       -4.5177  -19.9077  -47.3076 H         1 UNK         0.0600 
    192 H192       -4.4593  -20.9225  -44.4213 H         1 UNK         0.0600 
    193 H193       -5.9052  -20.4200  -45.2901 H         1 UNK         0.0600 
    194 H194       -4.6361  -19.2533  -44.9499 H         1 UNK         0.0600 
    195 H195       -3.6899  -22.8900  -45.4188 H         1 UNK         0.3000 
    196 H196       -5.7685  -24.3387  -46.8784 H         1 UNK         0.0600 
    197 H197       -5.3943  -26.0521  -45.1334 H         1 UNK         0.0600 
    198 H198       -5.6291  -24.4659  -44.4157 H         1 UNK         0.0600 
    199 H199       -4.0128  -25.1596  -44.5108 H         1 UNK         0.0600 
    200 H200       -2.2425  -24.8608  -46.2595 H         1 UNK         0.3000 
    201 H201       -2.2106  -27.3270  -47.7211 H         1 UNK         0.0600 
    202 H202       -0.6809  -26.8385  -45.8027 H         1 UNK         0.0600 
    203 H203        0.1685  -25.6438  -46.7835 H         1 UNK         0.0600 
    204 H204        0.1915  -27.3356  -47.2435 H         1 UNK         0.0600 
    205 H205       -1.0675  -24.0310  -48.5074 H         1 UNK         0.3000 
    206 H206       -0.3109  -24.7255  -51.2425 H         1 UNK         0.0600 
    207 H207        0.8063  -22.9207  -49.8424 H         1 UNK         0.0600 
    208 H208        0.2628  -22.3742  -51.4190 H         1 UNK         0.0600 
    209 H209       -0.6688  -21.9676  -49.9837 H         1 UNK         0.0600 
    210 H210       -3.2593  -24.1802  -49.7163 H         1 UNK         0.3000 
    211 H211       -5.3696  -23.9100  -50.2777 H         1 UNK         0.0600 
    212 H212       -4.4786  -25.0238  -52.9806 H         1 UNK         0.0600 
    213 H213       -6.1270  -24.9951  -52.3680 H         1 UNK         0.0600 
    214 H214       -4.9077  -25.9618  -51.5557 H         1 UNK         0.0600 
    215 H215       -4.9409  -21.6062  -49.9619 H         1 UNK         0.3000 
    216 H216       -4.8164  -19.7280  -52.1084 H         1 UNK         0.0600 
    217 H217       -4.2668  -19.1701  -49.7370 H         1 UNK         0.0600 
    218 H218       -5.9452  -19.4241  -49.2700 H         1 UNK         0.0600 
    219 H219       -5.5177  -18.1034  -50.3519 H         1 UNK         0.0600 
    220 H220       -7.5255  -21.4109  -50.5685 H         1 UNK         0.3000 
    221 H221       -9.6635  -19.8679  -51.6631 H         1 UNK         0.0600 
    222 H222       -9.5914  -22.7731  -50.6791 H         1 UNK         0.0600 
    223 H223       -9.9321  -21.3515  -49.6916 H         1 UNK         0.0600 
    224 H224      -11.0482  -21.8275  -50.9612 H         1 UNK         0.0600 
    225 H225       -7.7616  -22.5562  -52.9518 H         1 UNK         0.3000 
    226 H226       -9.4444  -22.8811  -55.3569 H         1 UNK         0.0600 
    227 H227       -8.3742  -24.8696  -54.2446 H         1 UNK         0.0600 
    228 H228       -7.8167  -24.6582  -55.8970 H         1 UNK         0.0600 
    229 H229       -6.7814  -24.1784  -54.5613 H         1 UNK         0.0600 
    230 H230       -6.8801  -20.9151  -54.2653 H         1 UNK         0.3000 
    231 H231       -5.3853  -19.5244  -55.0748 H         1 UNK         0.0600 
    232 H232       -5.8027  -18.3131  -57.1771 H         1 UNK         0.0600 
    233 H233       -7.3160  -18.5130  -56.3091 H         1 UNK         0.0600 
    234 H234       -6.9578  -19.5281  -57.7062 H         1 UNK         0.0600 
    235 H235       -4.7507  -22.2409  -55.0640 H         1 UNK         0.3000 
    236 H236       -3.3898  -22.9644  -57.5529 H         1 UNK         0.0600 
    237 H237       -4.5767  -24.6453  -56.1075 H         1 UNK         0.0600 
    238 H238       -2.8790  -25.0424  -56.3376 H         1 UNK         0.0600 
    239 H239       -3.4094  -24.3328  -54.8212 H         1 UNK         0.0600 
    240 H240       -2.5668  -21.1745  -54.7402 H         1 UNK         0.3000 
    241 H241        0.1956  -21.7528  -54.5134 H         1 UNK         0.0600 
    242 H242        2.0940  -20.3406  -54.9898 H         1 UNK         0.3800 
    243 H243        2.0407  -19.3616  -56.4265 H         1 UNK         0.3800 
    244 H244       -0.9790  -20.8145  -52.6407 H         1 UNK         0.0800 
    245 H245        0.2798  -19.6996  -53.0911 H         1 UNK         0.0800 
    246 H246       -2.3652  -19.2685  -51.1985 H         1 UNK         0.0800 
    247 H247       -2.9073  -17.6674  -51.6361 H         1 UNK         0.0800 
@<TRIPOS>BOND
     1    1    2 1    
     2    1  127 1    
     3    1  128 1    
     4    1  129 1    
     5    2    3 2    
     6    2    4 am   BACKBONE|DICT|INTERRES
     7    4    5 1    
     8    4  130 1    
     9    5    6 1    
    10    5   65 1    
    11    5  131 1    
    12    6    7 1    
    13    6  132 1    
    14    6  133 1    
    15    7    8 1    
    16    8    9 1    
    17    8  134 1    
    18    8  135 1    
    19    9   10 ar   
    20    9   14 ar   
    21   10   11 ar   
    22   10  136 1    
    23   11   12 ar   
    24   11  126 1    
    25   12   13 ar   
    26   12  137 1    
    27   13   14 ar   
    28   13   15 1    
    29   14  138 1    
    30   15   16 1    
    31   15  139 1    
    32   15  140 1    
    33   16   17 1    
    34   17   18 1    
    35   17  141 1    
    36   17  142 1    
    37   18   19 1    
    38   18   67 1    
    39   18  143 1    
    40   19   20 am   BACKBONE|DICT|INTERRES
    41   19  144 1    
    42   20   21 2    
    43   20   22 1    
    44   22   23 1    
    45   22   24 1    
    46   22  145 1    
    47   23  146 1    
    48   23  147 1    
    49   23  148 1    
    50   24   25 am   BACKBONE|DICT|INTERRES
    51   24  149 1    
    52   25   26 2    
    53   25   27 1    
    54   27   28 1    
    55   27   29 1    
    56   27  150 1    
    57   28  151 1    
    58   28  152 1    
    59   28  153 1    
    60   29   30 am   BACKBONE|DICT|INTERRES
    61   29  154 1    
    62   30   31 2    
    63   30   32 1    
    64   32   33 1    
    65   32   34 1    
    66   32  155 1    
    67   33  156 1    
    68   33  157 1    
    69   33  158 1    
    70   34   35 am   BACKBONE|DICT|INTERRES
    71   34  159 1    
    72   35   36 2    
    73   35   37 1    
    74   37   38 1    
    75   37   39 1    
    76   37  160 1    
    77   38  161 1    
    78   38  162 1    
    79   38  163 1    
    80   39   40 am   BACKBONE|DICT|INTERRES
    81   39  164 1    
    82   40   41 2    
    83   40   42 1    
    84   42   43 1    
    85   42   44 1    
    86   42  165 1    
    87   43  166 1    
    88   43  167 1    
    89   43  168 1    
    90   44   45 am   BACKBONE|DICT|INTERRES
    91   44  169 1    
    92   45   46 2    
    93   45   47 1    
    94   47   48 1    
    95   47   49 1    
    96   47  170 1    
    97   48  171 1    
    98   48  172 1    
    99   48  173 1    
   100   49   50 am   BACKBONE|DICT|INTERRES
   101   49  174 1    
   102   50   51 2    
   103   50   52 1    
   104   52   53 1    
   105   52   54 1    
   106   52  175 1    
   107   53  176 1    
   108   53  177 1    
   109   53  178 1    
   110   54   55 am   BACKBONE|DICT|INTERRES
   111   54  179 1    
   112   55   56 2    
   113   55   57 1    
   114   57   58 1    
   115   57   59 1    
   116   57  180 1    
   117   58  181 1    
   118   58  182 1    
   119   58  183 1    
   120   59   60 am   BACKBONE|DICT|INTERRES
   121   59  184 1    
   122   60   61 2    
   123   60   62 1    
   124   62   63 1    
   125   62   64 1    
   126   62  185 1    
   127   63  186 1    
   128   63  187 1    
   129   63  188 1    
   130   64   65 am   BACKBONE|DICT|INTERRES
   131   64  189 1    
   132   65   66 2    
   133   67   68 2    
   134   67   69 am   BACKBONE|DICT|INTERRES
   135   69   70 1    
   136   69  190 1    
   137   70   71 1    
   138   70   72 1    
   139   70  191 1    
   140   71  192 1    
   141   71  193 1    
   142   71  194 1    
   143   72   73 2    
   144   72   74 am   BACKBONE|DICT|INTERRES
   145   74   75 1    
   146   74  195 1    
   147   75   76 1    
   148   75   77 1    
   149   75  196 1    
   150   76  197 1    
   151   76  198 1    
   152   76  199 1    
   153   77   78 2    
   154   77   79 am   BACKBONE|DICT|INTERRES
   155   79   80 1    
   156   79  200 1    
   157   80   81 1    
   158   80   82 1    
   159   80  201 1    
   160   81  202 1    
   161   81  203 1    
   162   81  204 1    
   163   82   83 2    
   164   82   84 am   BACKBONE|DICT|INTERRES
   165   84   85 1    
   166   84  205 1    
   167   85   86 1    
   168   85   87 1    
   169   85  206 1    
   170   86  207 1    
   171   86  208 1    
   172   86  209 1    
   173   87   88 2    
   174   87   89 am   BACKBONE|DICT|INTERRES
   175   89   90 1    
   176   89  210 1    
   177   90   91 1    
   178   90   92 1    
   179   90  211 1    
   180   91  212 1    
   181   91  213 1    
   182   91  214 1    
   183   92   93 2    
   184   92   94 am   BACKBONE|DICT|INTERRES
   185   94   95 1    
   186   94  215 1    
   187   95   96 1    
   188   95   97 1    
   189   95  216 1    
   190   96  217 1    
   191   96  218 1    
   192   96  219 1    
   193   97   98 2    
   194   97   99 am   BACKBONE|DICT|INTERRES
   195   99  100 1    
   196   99  220 1    
   197  100  101 1    
   198  100  102 1    
   199  100  221 1    
   200  101  222 1    
   201  101  223 1    
   202  101  224 1    
   203  102  103 2    
   204  102  104 am   BACKBONE|DICT|INTERRES
   205  104  105 1    
   206  104  225 1    
   207  105  106 1    
   208  105  107 1    
   209  105  226 1    
   210  106  227 1    
   211  106  228 1    
   212  106  229 1    
   213  107  108 2    
   214  107  109 am   BACKBONE|DICT|INTERRES
   215  109  110 1    
   216  109  230 1    
   217  110  111 1    
   218  110  112 1    
   219  110  231 1    
   220  111  232 1    
   221  111  233 1    
   222  111  234 1    
   223  112  113 2    
   224  112  114 am   BACKBONE|DICT|INTERRES
   225  114  115 1    
   226  114  235 1    
   227  115  116 1    
   228  115  117 1    
   229  115  236 1    
   230  116  237 1    
   231  116  238 1    
   232  116  239 1    
   233  117  118 2    
   234  117  119 am   BACKBONE|DICT|INTERRES
   235  119  120 1    
   236  119  240 1    
   237  120  121 1    
   238  120  124 1    
   239  120  241 1    
   240  121  122 am   BACKBONE|DICT|INTERRES
   241  121  123 2    
   242  122  242 1    
   243  122  243 1    
   244  124  125 1    
   245  124  244 1    
   246  124  245 1    
   247  125  126 1    
   248  126  246 1    
   249  126  247 1    
@<TRIPOS>SUBSTRUCTURE
     1 UNK         1 GROUP             0       ****    0 ROOT    
