@<TRIPOS>MOLECULE
3R540
247   249    1
SMALL
USER_CHARGES


@<TRIPOS>ATOM
      1 CA         -0.1332  -11.7130  -44.8482 C.3       0 UNK        -0.1800 
      2 C           0.8150  -11.4946  -46.0191 C.2       0 UNK         0.5000 
      3 O           1.6523  -10.5941  -45.9690 O.2       0 UNK        -0.5000 
      4 N           0.6837  -12.3043  -47.0793 N.am      1 UNK        -0.5000 
      5 CA          1.5309  -12.2389  -48.2776 C.3       1 UNK         0.1400 
      6 C6          0.8393  -12.8652  -49.5146 C.3       23 UNK        -0.0398 
      7 S7          0.5526  -14.6728  -49.4288 S.3       23 UNK        -0.2404 
      8 C8          1.8732  -15.2594  -50.5381 C.3       23 UNK        -0.0205 
      9 C9          1.6939  -16.7190  -50.9234 C.ar      23 UNK        -0.0193 
     10 C10         0.9227  -17.0521  -52.0397 C.ar      23 UNK        -0.1150 
     11 C11         0.7966  -18.3834  -52.4417 C.ar      23 UNK        -0.0193 
     12 C12         1.4292  -19.3872  -51.7052 C.ar      23 UNK        -0.1150 
     13 C13         2.2012  -19.0747  -50.5823 C.ar      23 UNK        -0.0193 
     14 C14         2.3341  -17.7315  -50.2019 C.ar      23 UNK        -0.1150 
     15 C15         2.9091  -20.2171  -49.8526 C.3       23 UNK        -0.0205 
     16 S16         3.3673  -19.8965  -48.1156 S.3       23 UNK        -0.2404 
     17 C17         1.7374  -19.6742  -47.3346 C.3       23 UNK        -0.0398 
     18 CA          1.0768  -21.0161  -46.9129 C.3       11 UNK         0.1400 
     19 N           0.6767  -21.0148  -45.5023 N.am      11 UNK        -0.5000 
     20 C           0.2163  -22.0745  -44.8239 C.2       10 UNK         0.5000 
     21 O           0.1459  -23.2080  -45.2970 O.2       10 UNK        -0.5000 
     22 CA         -0.3092  -21.8121  -43.3984 C.3       10 UNK         0.1400 
     23 CB          0.8279  -21.8656  -42.3678 C.3       10 UNK        -0.1800 
     24 N          -1.0225  -20.5365  -43.2927 N.am      10 UNK        -0.5000 
     25 C          -2.1717  -20.2674  -43.9295 C.2       9 UNK         0.5000 
     26 O          -2.7856  -21.0974  -44.5983 O.2       9 UNK        -0.5000 
     27 CA         -2.6970  -18.8223  -43.8622 C.3       9 UNK         0.1400 
     28 CB         -3.4957  -18.5906  -42.5716 C.3       9 UNK        -0.1800 
     29 N          -1.6297  -17.8270  -43.9797 N.am      9 UNK        -0.5000 
     30 C          -0.8591  -17.6636  -45.0655 C.2       8 UNK         0.5000 
     31 O          -1.0102  -18.2996  -46.1083 O.2       8 UNK        -0.5000 
     32 CA          0.3138  -16.6717  -44.9499 C.3       8 UNK         0.1400 
     33 CB         -0.1532  -15.2302  -45.1785 C.3       8 UNK        -0.1800 
     34 N           0.9981  -16.7637  -43.6614 N.am      8 UNK        -0.5000 
     35 C           1.6617  -17.8439  -43.2290 C.2       7 UNK         0.5000 
     36 O           1.8095  -18.8653  -43.8981 O.2       7 UNK        -0.5000 
     37 CA          2.1786  -17.8090  -41.7810 C.3       7 UNK         0.1400 
     38 CB          3.5171  -17.0643  -41.6743 C.3       7 UNK        -0.1800 
     39 N           1.2011  -17.2072  -40.8744 N.am      7 UNK        -0.5000 
     40 C           0.0503  -17.7912  -40.5132 C.2       6 UNK         0.5000 
     41 O          -0.2832  -18.9199  -40.8739 O.2       6 UNK        -0.5000 
     42 CA         -0.9002  -16.9634  -39.6273 C.3       6 UNK         0.1400 
     43 CB         -0.5241  -17.1135  -38.1458 C.3       6 UNK        -0.1800 
     44 N          -0.9112  -15.5428  -39.9814 N.am      6 UNK        -0.5000 
     45 C          -1.4088  -15.0508  -41.1252 C.2       5 UNK         0.5000 
     46 O          -1.9506  -15.7419  -41.9861 O.2       5 UNK        -0.5000 
     47 CA         -1.2158  -13.5418  -41.3745 C.3       5 UNK         0.1400 
     48 CB         -2.3598  -12.7362  -40.7419 C.3       5 UNK        -0.1800 
     49 N           0.0701  -13.0319  -40.8858 N.am      5 UNK        -0.5000 
     50 C           1.2634  -13.4711  -41.3070 C.2       4 UNK         0.5000 
     51 O           1.3942  -14.3578  -42.1520 O.2       4 UNK        -0.5000 
     52 CA          2.5015  -12.8725  -40.6133 C.3       4 UNK         0.1400 
     53 CB          2.6893  -13.5109  -39.2272 C.3       4 UNK        -0.1800 
     54 N           3.7291  -13.0773  -41.3828 N.am      4 UNK        -0.5000 
     55 C           4.0088  -12.5026  -42.5593 C.2       3 UNK         0.5000 
     56 O           3.2830  -11.6628  -43.0947 O.2       3 UNK        -0.5000 
     57 CA          5.3392  -12.8896  -43.2435 C.3       3 UNK         0.1400 
     58 CB          6.1515  -13.9808  -42.5069 C.3       3 UNK        -0.1800 
     59 N           5.1449  -13.2441  -44.6530 N.am      3 UNK        -0.5000 
     60 C           4.4233  -14.2663  -45.1329 C.2       2 UNK         0.5000 
     61 O           3.8255  -15.0861  -44.4371 O.2       2 UNK        -0.5000 
     62 CA          4.3210  -14.3581  -46.6587 C.3       2 UNK         0.1400 
     63 CB          4.2995  -15.8147  -47.1574 C.3       2 UNK        -0.1800 
     64 N           3.0851  -13.6966  -47.0498 N.am      2 UNK        -0.5000 
     65 C           2.9460  -12.8185  -48.0494 C.2       1 UNK         0.5000 
     66 O           3.8699  -12.4657  -48.7839 O.2       1 UNK        -0.5000 
     67 C          -0.1040  -21.3783  -47.8412 C.2       11 UNK         0.5000 
     68 O           0.0539  -22.2074  -48.7368 O.2       11 UNK        -0.5000 
     69 N          -1.2780  -20.7842  -47.5828 N.am      12 UNK        -0.5000 
     70 CA         -2.5278  -21.0901  -48.2787 C.3       12 UNK         0.1400 
     71 CB         -3.6014  -20.0571  -47.9073 C.3       12 UNK        -0.1800 
     72 C          -3.0183  -22.5227  -48.0025 C.2       12 UNK         0.5000 
     73 O          -3.4414  -23.2038  -48.9349 O.2       12 UNK        -0.5000 
     74 N          -2.9145  -22.9813  -46.7472 N.am      13 UNK        -0.5000 
     75 CA         -3.2394  -24.3494  -46.3327 C.3       13 UNK         0.1400 
     76 CB         -3.1808  -24.4604  -44.8029 C.3       13 UNK        -0.1800 
     77 C          -2.3387  -25.4102  -46.9948 C.2       13 UNK         0.5000 
     78 O          -2.8295  -26.4826  -47.3474 O.2       13 UNK        -0.5000 
     79 N          -1.0581  -25.0774  -47.2139 N.am      14 UNK        -0.5000 
     80 CA         -0.1042  -25.8868  -47.9793 C.3       14 UNK         0.1400 
     81 CB          1.3169  -25.3405  -47.7753 C.3       14 UNK        -0.1800 
     82 C          -0.4533  -25.9814  -49.4808 C.2       14 UNK         0.5000 
     83 O          -0.0863  -26.9647  -50.1239 O.2       14 UNK        -0.5000 
     84 N          -1.2034  -24.9975  -49.9967 N.am      15 UNK        -0.5000 
     85 CA         -1.8231  -24.9929  -51.3247 C.3       15 UNK         0.1400 
     86 CB         -1.7814  -23.5625  -51.8948 C.3       15 UNK        -0.1800 
     87 C          -3.2611  -25.5637  -51.2891 C.2       15 UNK         0.5000 
     88 O          -4.0711  -25.2401  -52.1590 O.2       15 UNK        -0.5000 
     89 N          -3.5665  -26.3855  -50.2716 N.am      16 UNK        -0.5000 
     90 CA         -4.8306  -27.0876  -50.0174 C.3       16 UNK         0.1400 
     91 CB         -5.1184  -28.1085  -51.1383 C.3       16 UNK        -0.1800 
     92 C          -6.0290  -26.1529  -49.7479 C.2       16 UNK         0.5000 
     93 O          -7.1746  -26.5691  -49.9254 O.2       16 UNK        -0.5000 
     94 N          -5.7459  -24.9045  -49.3436 N.am      17 UNK        -0.5000 
     95 CA         -6.6795  -23.7913  -49.1352 C.3       17 UNK         0.1400 
     96 CB         -7.7013  -24.1114  -48.0254 C.3       17 UNK        -0.1800 
     97 C          -7.3483  -23.2872  -50.4324 C.2       17 UNK         0.5000 
     98 O          -8.2591  -22.4606  -50.3635 O.2       17 UNK        -0.5000 
     99 N          -6.8670  -23.7395  -51.5989 N.am      18 UNK        -0.5000 
    100 CA        -7.3562  -23.3664  -52.9246 C.3       18 UNK         0.1400 
    101 CB        -7.1426  -24.5527  -53.8819 C.3       18 UNK        -0.1800 
    102 C         -6.6685  -22.0792  -53.4155 C.2       18 UNK         0.5000 
    103 O         -6.1265  -22.0489  -54.5207 O.2       18 UNK        -0.5000 
    104 N         -6.6919  -21.0330  -52.5787 N.am      19 UNK        -0.5000 
    105 CA        -5.9789  -19.7619  -52.7522 C.3       19 UNK         0.1400 
    106 CB        -6.1496  -18.9240  -51.4761 C.3       19 UNK        -0.1800 
    107 C         -6.3793  -18.9470  -53.9997 C.2       19 UNK         0.5000 
    108 O         -5.6247  -18.0646  -54.4081 O.2       19 UNK        -0.5000 
    109 N         -7.5354  -19.2649  -54.5995 N.am      20 UNK        -0.5000 
    110 CA        -7.9778  -18.7348  -55.8910 C.3       20 UNK         0.1400 
    111 CB        -9.4396  -19.1435  -56.1274 C.3       20 UNK        -0.1800 
    112 C         -7.0890  -19.1985  -57.0645 C.2       20 UNK         0.5000 
    113 O         -6.9216  -18.4485  -58.0270 O.2       20 UNK        -0.5000 
    114 N         -6.5271  -20.4101  -56.9539 N.am      21 UNK        -0.5000 
    115 CA        -5.5319  -20.9594  -57.8735 C.3       21 UNK         0.1400 
    116 CB        -5.8490  -22.4401  -58.1393 C.3       21 UNK        -0.1800 
    117 C         -4.1218  -20.8013  -57.2812 C.2       21 UNK         0.5000 
    118 O         -3.2099  -20.3629  -57.9826 O.2       21 UNK        -0.5000 
    119 N         -3.9841  -21.1370  -55.9911 N.am      22 UNK        -0.5000 
    120 CA        -2.7645  -21.0333  -55.1764 C.3       22 UNK         0.1400 
    121 C         -1.6186  -22.0112  -55.5868 C.2       22 UNK         0.5000 
    122 N         -1.9036  -23.0859  -56.3125 N.am      22 UNK        -0.7600 
    123 O         -0.4610  -21.8183  -55.2290 O.2       22 UNK        -0.5000 
    124 C124       -2.3095  -19.5560  -55.0016 C.3       23 UNK        -0.0398 
    125 S125       -1.6991  -19.1936  -53.3200 S.3       23 UNK        -0.2404 
    126 C126        0.0176  -18.7350  -53.6971 C.3       23 UNK        -0.0205 
    127 H127        0.4102  -12.1431  -44.0068 H         1 UNK         0.0600 
    128 H128       -0.9529  -12.3824  -45.1088 H         1 UNK         0.0600 
    129 H129       -0.5625  -10.7640  -44.5275 H         1 UNK         0.0600 
    130 H130       -0.0343  -13.0145  -47.0896 H         1 UNK         0.3000 
    131 H131        1.6752  -11.1815  -48.5111 H         1 UNK         0.0600 
    132 H132       -0.1297  -12.3866  -49.6629 H         1 UNK         0.0800 
    133 H133        1.4093  -12.6255  -50.4136 H         1 UNK         0.0800 
    134 H134        2.8420  -15.1122  -50.0595 H         1 UNK         0.0800 
    135 H135        1.8874  -14.6530  -51.4451 H         1 UNK         0.0800 
    136 H136        0.4370  -16.2714  -52.6084 H         1 UNK         0.1150 
    137 H137        1.3322  -20.4169  -52.0211 H         1 UNK         0.1150 
    138 H138        2.9437  -17.4646  -49.3517 H         1 UNK         0.1150 
    139 H139        2.2908  -21.1153  -49.8837 H         1 UNK         0.0800 
    140 H140        3.8193  -20.4559  -50.4038 H         1 UNK         0.0800 
    141 H141        1.0939  -19.0698  -47.9768 H         1 UNK         0.0800 
    142 H142        1.9176  -19.0460  -46.4639 H         1 UNK         0.0800 
    143 H143        1.8089  -21.8207  -47.0113 H         1 UNK         0.0600 
    144 H144        0.7695  -20.1344  -45.0056 H         1 UNK         0.3000 
    145 H145       -1.0160  -22.6070  -43.1540 H         1 UNK         0.0600 
    146 H146        0.4488  -21.7250  -41.3554 H         1 UNK         0.0600 
    147 H147        1.3317  -22.8325  -42.3959 H         1 UNK         0.0600 
    148 H148        1.5808  -21.1001  -42.5513 H         1 UNK         0.0600 
    149 H149       -0.6017  -19.8206  -42.7105 H         1 UNK         0.3000 
    150 H150       -3.3748  -18.6794  -44.7062 H         1 UNK         0.0600 
    151 H151       -4.3078  -19.3130  -42.4806 H         1 UNK         0.0600 
    152 H152       -3.9430  -17.5966  -42.5583 H         1 UNK         0.0600 
    153 H153       -2.8692  -18.6883  -41.6855 H         1 UNK         0.0600 
    154 H154       -1.4906  -17.2138  -43.1820 H         1 UNK         0.3000 
    155 H155        1.0391  -16.9152  -45.7284 H         1 UNK         0.0600 
    156 H156       -0.8986  -14.9266  -44.4434 H         1 UNK         0.0600 
    157 H157        0.6867  -14.5397  -45.1079 H         1 UNK         0.0600 
    158 H158       -0.5967  -15.1167  -46.1684 H         1 UNK         0.0600 
    159 H159        0.9939  -15.9325  -43.0746 H         1 UNK         0.3000 
    160 H160        2.3464  -18.8412  -41.4658 H         1 UNK         0.0600 
    161 H161        3.4145  -16.0116  -41.9333 H         1 UNK         0.0600 
    162 H162        4.2572  -17.4941  -42.3505 H         1 UNK         0.0600 
    163 H163        3.9228  -17.1230  -40.6645 H         1 UNK         0.0600 
    164 H164        1.3693  -16.2517  -40.5985 H         1 UNK         0.3000 
    165 H165       -1.9098  -17.3564  -39.7640 H         1 UNK         0.0600 
    166 H166       -1.2360  -16.5944  -37.5038 H         1 UNK         0.0600 
    167 H167       -0.5250  -18.1630  -37.8479 H         1 UNK         0.0600 
    168 H168        0.4694  -16.7140  -37.9384 H         1 UNK         0.0600 
    169 H169       -0.4846  -14.9039  -39.3272 H         1 UNK         0.3000 
    170 H170       -1.2464  -13.3834  -42.4541 H         1 UNK         0.0600 
    171 H171       -3.3283  -13.0845  -41.1035 H         1 UNK         0.0600 
    172 H172       -2.3634  -12.8253  -39.6549 H         1 UNK         0.0600 
    173 H173       -2.2826  -11.6782  -40.9929 H         1 UNK         0.0600 
    174 H174        0.0308  -12.3105  -40.1801 H         1 UNK         0.3000 
    175 H175        2.3452  -11.7985  -40.4933 H         1 UNK         0.0600 
    176 H176        2.8515  -14.5875  -39.2978 H         1 UNK         0.0600 
    177 H177        3.5439  -13.0778  -38.7069 H         1 UNK         0.0600 
    178 H178        1.8151  -13.3512  -38.5949 H         1 UNK         0.0600 
    179 H179        4.3678  -13.7738  -41.0305 H         1 UNK         0.3000 
    180 H180        5.9450  -11.9824  -43.2425 H         1 UNK         0.0600 
    181 H181        5.6073  -14.9223  -42.4317 H         1 UNK         0.0600 
    182 H182        6.4150  -13.6647  -41.4969 H         1 UNK         0.0600 
    183 H183        7.0870  -14.1849  -43.0278 H         1 UNK         0.0600 
    184 H184        5.5436  -12.5938  -45.3154 H         1 UNK         0.3000 
    185 H185        5.1887  -13.8576  -47.0939 H         1 UNK         0.0600 
    186 H186        5.1658  -16.3664  -46.7907 H         1 UNK         0.0600 
    187 H187        3.4064  -16.3467  -46.8261 H         1 UNK         0.0600 
    188 H188        4.3286  -15.8533  -48.2455 H         1 UNK         0.0600 
    189 H189        2.2840  -13.8933  -46.4675 H         1 UNK         0.3000 
    190 H190       -1.3120  -20.0637  -46.8670 H         1 UNK         0.3000 
    191 H191       -2.3396  -21.0074  -49.3513 H         1 UNK         0.0600 
    192 H192       -3.8346  -20.0787  -46.8430 H         1 UNK         0.0600 
    193 H193       -4.5282  -20.2473  -48.4497 H         1 UNK         0.0600 
    194 H194       -3.2780  -19.0466  -48.1578 H         1 UNK         0.0600 
    195 H195       -2.6244  -22.3384  -46.0147 H         1 UNK         0.3000 
    196 H196       -4.2665  -24.5502  -46.6444 H         1 UNK         0.0600 
    197 H197       -3.4917  -25.4523  -44.4731 H         1 UNK         0.0600 
    198 H198       -3.8435  -23.7368  -44.3280 H         1 UNK         0.0600 
    199 H199       -2.1730  -24.2920  -44.4252 H         1 UNK         0.0600 
    200 H200       -0.7093  -24.2062  -46.8264 H         1 UNK         0.3000 
    201 H201       -0.1332  -26.9009  -47.5756 H         1 UNK         0.0600 
    202 H202        1.5817  -25.3146  -46.7181 H         1 UNK         0.0600 
    203 H203        1.4256  -24.3318  -48.1715 H         1 UNK         0.0600 
    204 H204        2.0515  -25.9695  -48.2794 H         1 UNK         0.0600 
    205 H205       -1.4672  -24.2304  -49.3909 H         1 UNK         0.3000 
    206 H206       -1.2468  -25.6318  -51.9963 H         1 UNK         0.0600 
    207 H207       -0.7651  -23.1680  -51.9007 H         1 UNK         0.0600 
    208 H208       -2.1406  -23.5425  -52.9241 H         1 UNK         0.0600 
    209 H209       -2.4019  -22.8753  -51.3201 H         1 UNK         0.0600 
    210 H210       -2.8594  -26.5330  -49.5628 H         1 UNK         0.3000 
    211 H211       -4.6803  -27.6495  -49.0947 H         1 UNK         0.0600 
    212 H212       -5.3604  -27.6174  -52.0814 H         1 UNK         0.0600 
    213 H213       -5.9621  -28.7491  -50.8790 H         1 UNK         0.0600 
    214 H214       -4.2610  -28.7595  -51.3088 H         1 UNK         0.0600 
    215 H215       -4.7679  -24.6413  -49.2631 H         1 UNK         0.3000 
    216 H216       -6.0747  -22.9573  -48.7789 H         1 UNK         0.0600 
    217 H217       -8.2755  -23.2240  -47.7566 H         1 UNK         0.0600 
    218 H218       -7.2037  -24.4598  -47.1204 H         1 UNK         0.0600 
    219 H219       -8.4144  -24.8759  -48.3341 H         1 UNK         0.0600 
    220 H220       -6.0670  -24.3610  -51.5826 H         1 UNK         0.3000 
    221 H221       -8.4285  -23.1664  -52.8758 H         1 UNK         0.0600 
    222 H222       -6.0842  -24.7861  -54.0042 H         1 UNK         0.0600 
    223 H223       -7.6419  -25.4497  -53.5150 H         1 UNK         0.0600 
    224 H224       -7.5481  -24.3366  -54.8711 H         1 UNK         0.0600 
    225 H225       -7.1933  -21.1526  -51.7065 H         1 UNK         0.3000 
    226 H226       -4.9185  -19.9989  -52.8604 H         1 UNK         0.0600 
    227 H227       -5.7701  -19.4540  -50.6024 H         1 UNK         0.0600 
    228 H228       -5.5996  -17.9845  -51.5472 H         1 UNK         0.0600 
    229 H229       -7.1969  -18.6799  -51.2938 H         1 UNK         0.0600 
    230 H230       -8.1026  -19.9891  -54.1848 H         1 UNK         0.3000 
    231 H231       -7.9287  -17.6448  -55.8465 H         1 UNK         0.0600 
    232 H232       -9.8083  -18.7434  -57.0729 H         1 UNK         0.0600 
    233 H233      -10.0887  -18.7616  -55.3391 H         1 UNK         0.0600 
    234 H234       -9.5545  -20.2276  -56.1626 H         1 UNK         0.0600 
    235 H235       -6.6854  -20.9398  -56.1041 H         1 UNK         0.3000 
    236 H236       -5.5601  -20.4309  -58.8287 H         1 UNK         0.0600 
    237 H237       -6.8270  -22.5523  -58.6074 H         1 UNK         0.0600 
    238 H238       -5.1136  -22.8821  -58.8127 H         1 UNK         0.0600 
    239 H239       -5.8508  -23.0280  -57.2204 H         1 UNK         0.0600 
    240 H240       -4.7929  -21.5153  -55.5002 H         1 UNK         0.3000 
    241 H241       -3.0838  -21.3968  -54.1991 H         1 UNK         0.0600 
    242 H242       -2.8486  -23.2698  -56.6080 H         1 UNK         0.3800 
    243 H243       -1.1632  -23.7188  -56.5710 H         1 UNK         0.3800 
    244 H244       -1.5713  -19.2811  -55.7568 H         1 UNK         0.0800 
    245 H245       -3.1493  -18.8799  -55.1652 H         1 UNK         0.0800 
    246 H246        0.5114  -19.5584  -54.2146 H         1 UNK         0.0800 
    247 H247        0.0222  -17.8912  -54.3888 H         1 UNK         0.0800 
@<TRIPOS>BOND
     1    1    2 1    
     2    1  127 1    
     3    1  128 1    
     4    1  129 1    
     5    2    3 2    
     6    2    4 am   BACKBONE|DICT|INTERRES
     7    4    5 1    
     8    4  130 1    
     9    5    6 1    
    10    5   65 1    
    11    5  131 1    
    12    6    7 1    
    13    6  132 1    
    14    6  133 1    
    15    7    8 1    
    16    8    9 1    
    17    8  134 1    
    18    8  135 1    
    19    9   10 ar   
    20    9   14 ar   
    21   10   11 ar   
    22   10  136 1    
    23   11   12 ar   
    24   11  126 1    
    25   12   13 ar   
    26   12  137 1    
    27   13   14 ar   
    28   13   15 1    
    29   14  138 1    
    30   15   16 1    
    31   15  139 1    
    32   15  140 1    
    33   16   17 1    
    34   17   18 1    
    35   17  141 1    
    36   17  142 1    
    37   18   19 1    
    38   18   67 1    
    39   18  143 1    
    40   19   20 am   BACKBONE|DICT|INTERRES
    41   19  144 1    
    42   20   21 2    
    43   20   22 1    
    44   22   23 1    
    45   22   24 1    
    46   22  145 1    
    47   23  146 1    
    48   23  147 1    
    49   23  148 1    
    50   24   25 am   BACKBONE|DICT|INTERRES
    51   24  149 1    
    52   25   26 2    
    53   25   27 1    
    54   27   28 1    
    55   27   29 1    
    56   27  150 1    
    57   28  151 1    
    58   28  152 1    
    59   28  153 1    
    60   29   30 am   BACKBONE|DICT|INTERRES
    61   29  154 1    
    62   30   31 2    
    63   30   32 1    
    64   32   33 1    
    65   32   34 1    
    66   32  155 1    
    67   33  156 1    
    68   33  157 1    
    69   33  158 1    
    70   34   35 am   BACKBONE|DICT|INTERRES
    71   34  159 1    
    72   35   36 2    
    73   35   37 1    
    74   37   38 1    
    75   37   39 1    
    76   37  160 1    
    77   38  161 1    
    78   38  162 1    
    79   38  163 1    
    80   39   40 am   BACKBONE|DICT|INTERRES
    81   39  164 1    
    82   40   41 2    
    83   40   42 1    
    84   42   43 1    
    85   42   44 1    
    86   42  165 1    
    87   43  166 1    
    88   43  167 1    
    89   43  168 1    
    90   44   45 am   BACKBONE|DICT|INTERRES
    91   44  169 1    
    92   45   46 2    
    93   45   47 1    
    94   47   48 1    
    95   47   49 1    
    96   47  170 1    
    97   48  171 1    
    98   48  172 1    
    99   48  173 1    
   100   49   50 am   BACKBONE|DICT|INTERRES
   101   49  174 1    
   102   50   51 2    
   103   50   52 1    
   104   52   53 1    
   105   52   54 1    
   106   52  175 1    
   107   53  176 1    
   108   53  177 1    
   109   53  178 1    
   110   54   55 am   BACKBONE|DICT|INTERRES
   111   54  179 1    
   112   55   56 2    
   113   55   57 1    
   114   57   58 1    
   115   57   59 1    
   116   57  180 1    
   117   58  181 1    
   118   58  182 1    
   119   58  183 1    
   120   59   60 am   BACKBONE|DICT|INTERRES
   121   59  184 1    
   122   60   61 2    
   123   60   62 1    
   124   62   63 1    
   125   62   64 1    
   126   62  185 1    
   127   63  186 1    
   128   63  187 1    
   129   63  188 1    
   130   64   65 am   BACKBONE|DICT|INTERRES
   131   64  189 1    
   132   65   66 2    
   133   67   68 2    
   134   67   69 am   BACKBONE|DICT|INTERRES
   135   69   70 1    
   136   69  190 1    
   137   70   71 1    
   138   70   72 1    
   139   70  191 1    
   140   71  192 1    
   141   71  193 1    
   142   71  194 1    
   143   72   73 2    
   144   72   74 am   BACKBONE|DICT|INTERRES
   145   74   75 1    
   146   74  195 1    
   147   75   76 1    
   148   75   77 1    
   149   75  196 1    
   150   76  197 1    
   151   76  198 1    
   152   76  199 1    
   153   77   78 2    
   154   77   79 am   BACKBONE|DICT|INTERRES
   155   79   80 1    
   156   79  200 1    
   157   80   81 1    
   158   80   82 1    
   159   80  201 1    
   160   81  202 1    
   161   81  203 1    
   162   81  204 1    
   163   82   83 2    
   164   82   84 am   BACKBONE|DICT|INTERRES
   165   84   85 1    
   166   84  205 1    
   167   85   86 1    
   168   85   87 1    
   169   85  206 1    
   170   86  207 1    
   171   86  208 1    
   172   86  209 1    
   173   87   88 2    
   174   87   89 am   BACKBONE|DICT|INTERRES
   175   89   90 1    
   176   89  210 1    
   177   90   91 1    
   178   90   92 1    
   179   90  211 1    
   180   91  212 1    
   181   91  213 1    
   182   91  214 1    
   183   92   93 2    
   184   92   94 am   BACKBONE|DICT|INTERRES
   185   94   95 1    
   186   94  215 1    
   187   95   96 1    
   188   95   97 1    
   189   95  216 1    
   190   96  217 1    
   191   96  218 1    
   192   96  219 1    
   193   97   98 2    
   194   97   99 am   BACKBONE|DICT|INTERRES
   195   99  100 1    
   196   99  220 1    
   197  100  101 1    
   198  100  102 1    
   199  100  221 1    
   200  101  222 1    
   201  101  223 1    
   202  101  224 1    
   203  102  103 2    
   204  102  104 am   BACKBONE|DICT|INTERRES
   205  104  105 1    
   206  104  225 1    
   207  105  106 1    
   208  105  107 1    
   209  105  226 1    
   210  106  227 1    
   211  106  228 1    
   212  106  229 1    
   213  107  108 2    
   214  107  109 am   BACKBONE|DICT|INTERRES
   215  109  110 1    
   216  109  230 1    
   217  110  111 1    
   218  110  112 1    
   219  110  231 1    
   220  111  232 1    
   221  111  233 1    
   222  111  234 1    
   223  112  113 2    
   224  112  114 am   BACKBONE|DICT|INTERRES
   225  114  115 1    
   226  114  235 1    
   227  115  116 1    
   228  115  117 1    
   229  115  236 1    
   230  116  237 1    
   231  116  238 1    
   232  116  239 1    
   233  117  118 2    
   234  117  119 am   BACKBONE|DICT|INTERRES
   235  119  120 1    
   236  119  240 1    
   237  120  121 1    
   238  120  124 1    
   239  120  241 1    
   240  121  122 am   BACKBONE|DICT|INTERRES
   241  121  123 2    
   242  122  242 1    
   243  122  243 1    
   244  124  125 1    
   245  124  244 1    
   246  124  245 1    
   247  125  126 1    
   248  126  246 1    
   249  126  247 1    
@<TRIPOS>SUBSTRUCTURE
     1 UNK         1 GROUP             0       ****    0 ROOT    
