@<TRIPOS>MOLECULE
3R540
247   249    1
SMALL
USER_CHARGES


@<TRIPOS>ATOM
      1 CA          4.3166  -17.8108  -46.7328 C.3       0 UNK        -0.1800 
      2 C           3.1306  -17.2481  -47.5001 C.2       0 UNK         0.5000 
      3 O           3.2658  -16.9189  -48.6775 O.2       0 UNK        -0.5000 
      4 N           1.9799  -17.1137  -46.8256 N.am      1 UNK        -0.5000 
      5 CA          0.7043  -16.5991  -47.3539 C.3       1 UNK         0.1400 
      6 C6          0.1093  -17.4713  -48.4929 C.3       23 UNK        -0.0398 
      7 S7         -0.4868  -19.0848  -47.8893 S.3       23 UNK        -0.2404 
      8 C8         -2.2495  -18.6922  -47.6540 C.3       23 UNK        -0.0205 
      9 C9         -3.0583  -19.9419  -47.3647 C.ar      23 UNK        -0.0193 
     10 C10        -3.6953  -20.6235  -48.4057 C.ar      23 UNK        -0.1150 
     11 C11        -4.4027  -21.8026  -48.1516 C.ar      23 UNK        -0.0193 
     12 C12        -4.4720  -22.2905  -46.8434 C.ar      23 UNK        -0.1150 
     13 C13        -3.8450  -21.6121  -45.7941 C.ar      23 UNK        -0.0193 
     14 C14        -3.1509  -20.4298  -46.0596 C.ar      23 UNK        -0.1150 
     15 C15        -3.8982  -22.1800  -44.3853 C.3       23 UNK        -0.0205 
     16 S16        -2.8319  -23.6480  -44.2303 S.3       23 UNK        -0.2404 
     17 C17        -1.2457  -22.9335  -43.6646 C.3       23 UNK        -0.0398 
     18 CA         -0.2729  -22.3518  -44.7307 C.3       11 UNK         0.1400 
     19 N           1.0692  -22.2184  -44.1629 N.am      11 UNK        -0.5000 
     20 C           2.1007  -21.5874  -44.7357 C.2       10 UNK         0.5000 
     21 O           2.0107  -20.9234  -45.7688 O.2       10 UNK        -0.5000 
     22 CA          3.4374  -21.7185  -43.9899 C.3       10 UNK         0.1400 
     23 CB          4.6143  -21.0349  -44.7059 C.3       10 UNK        -0.1800 
     24 N           3.2725  -21.1326  -42.6662 N.am      10 UNK        -0.5000 
     25 C           3.5305  -21.7340  -41.5013 C.2       9 UNK         0.5000 
     26 O           4.0028  -22.8670  -41.4014 O.2       9 UNK        -0.5000 
     27 CA          3.1768  -20.9426  -40.2285 C.3       9 UNK         0.1400 
     28 CB          4.3154  -19.9813  -39.8555 C.3       9 UNK        -0.1800 
     29 N           1.9290  -20.1844  -40.3404 N.am      9 UNK        -0.5000 
     30 C           0.7076  -20.7205  -40.4807 C.2       8 UNK         0.5000 
     31 O           0.4928  -21.9293  -40.5750 O.2       8 UNK        -0.5000 
     32 CA         -0.4700  -19.7347  -40.5383 C.3       8 UNK         0.1400 
     33 CB         -0.7951  -19.1779  -39.1425 C.3       8 UNK        -0.1800 
     34 N          -0.1684  -18.6327  -41.4503 N.am      8 UNK        -0.5000 
     35 C          -0.5171  -18.6187  -42.7429 C.2       7 UNK         0.5000 
     36 O          -1.2211  -19.4827  -43.2603 O.2       7 UNK        -0.5000 
     37 CA         -0.0094  -17.4555  -43.6184 C.3       7 UNK         0.1400 
     38 CB         -1.1267  -16.4240  -43.8396 C.3       7 UNK        -0.1800 
     39 N           1.1697  -16.7662  -43.0908 N.am      7 UNK        -0.5000 
     40 C           2.3855  -17.3066  -42.9498 C.2       6 UNK         0.5000 
     41 O           2.6664  -18.4450  -43.3136 O.2       6 UNK        -0.5000 
     42 CA          3.4470  -16.4553  -42.2270 C.3       6 UNK         0.1400 
     43 CB          4.1874  -15.5456  -43.2195 C.3       6 UNK        -0.1800 
     44 N           2.9086  -15.6531  -41.1205 N.am      6 UNK        -0.5000 
     45 C           2.2544  -16.1489  -40.0589 C.2       5 UNK         0.5000 
     46 O           2.0037  -17.3465  -39.9259 O.2       5 UNK        -0.5000 
     47 CA          1.7844  -15.1696  -38.9645 C.3       5 UNK         0.1400 
     48 CB          2.4747  -15.4996  -37.6318 C.3       5 UNK        -0.1800 
     49 N           2.0445  -13.7624  -39.2825 N.am      5 UNK        -0.5000 
     50 C           1.2874  -12.9169  -39.9956 C.2       4 UNK         0.5000 
     51 O           1.6394  -11.7489  -40.1657 O.2       4 UNK        -0.5000 
     52 CA         -0.0592  -13.3839  -40.6020 C.3       4 UNK         0.1400 
     53 CB         -1.2206  -13.0840  -39.6423 C.3       4 UNK        -0.1800 
     54 N          -0.3057  -12.7054  -41.8758 N.am      4 UNK        -0.5000 
     55 C           0.3808  -12.9761  -42.9907 C.2       3 UNK         0.5000 
     56 O           1.1398  -13.9443  -43.0913 O.2       3 UNK        -0.5000 
     57 CA          0.2228  -12.0055  -44.1718 C.3       3 UNK         0.1400 
     58 CB          0.7878  -10.6164  -43.8055 C.3       3 UNK        -0.1800 
     59 N           0.9496  -12.5774  -45.3013 N.am      3 UNK        -0.5000 
     60 C           1.0254  -12.1155  -46.5537 C.2       2 UNK         0.5000 
     61 O           0.4328  -11.1158  -46.9610 O.2       2 UNK        -0.5000 
     62 CA          1.9152  -12.9236  -47.5168 C.3       2 UNK         0.1400 
     63 CB          3.3906  -12.5263  -47.3530 C.3       2 UNK        -0.1800 
     64 N           1.7830  -14.3682  -47.3167 N.am      2 UNK        -0.5000 
     65 C           0.7250  -15.0914  -47.7094 C.2       1 UNK         0.5000 
     66 O          -0.2365  -14.5979  -48.3003 O.2       1 UNK        -0.5000 
     67 C          -0.2145  -23.1455  -46.0572 C.2       11 UNK         0.5000 
     68 O           0.4833  -24.1600  -46.1357 O.2       11 UNK        -0.5000 
     69 N          -0.9418  -22.6466  -47.0650 N.am      12 UNK        -0.5000 
     70 CA         -1.0631  -23.1658  -48.4287 C.3       12 UNK         0.1400 
     71 CB         -1.6925  -24.5741  -48.4403 C.3       12 UNK        -0.1800 
     72 C           0.2301  -23.0647  -49.2612 C.2       12 UNK         0.5000 
     73 O           0.4073  -23.8302  -50.2101 O.2       12 UNK        -0.5000 
     74 N           1.1025  -22.1082  -48.9165 N.am      13 UNK        -0.5000 
     75 CA          2.3366  -21.8265  -49.6481 C.3       13 UNK         0.1400 
     76 CB          3.2876  -21.0277  -48.7472 C.3       13 UNK        -0.1800 
     77 C           2.0992  -21.0732  -50.9696 C.2       13 UNK         0.5000 
     78 O           2.8482  -21.2903  -51.9232 O.2       13 UNK        -0.5000 
     79 N           1.0847  -20.1993  -51.0061 N.am      14 UNK        -0.5000 
     80 CA          0.7657  -19.3253  -52.1332 C.3       14 UNK         0.1400 
     81 CB          1.8432  -18.2245  -52.2867 C.3       14 UNK        -0.1800 
     82 C          -0.6534  -18.7537  -51.9592 C.2       14 UNK         0.5000 
     83 O          -1.4773  -19.3573  -51.2658 O.2       14 UNK        -0.5000 
     84 N          -0.9141  -17.6047  -52.6009 N.am      15 UNK        -0.5000 
     85 CA         -2.1737  -16.8560  -52.6189 C.3       15 UNK         0.1400 
     86 CB         -2.4380  -16.2018  -51.2458 C.3       15 UNK        -0.1800 
     87 C          -3.3278  -17.7347  -53.1337 C.2       15 UNK         0.5000 
     88 O          -3.2774  -18.1631  -54.2876 O.2       15 UNK        -0.5000 
     89 N          -4.3106  -18.0350  -52.2738 N.am      16 UNK        -0.5000 
     90 CA         -5.4637  -18.8895  -52.5629 C.3       16 UNK         0.1400 
     91 CB         -6.3540  -18.9776  -51.3148 C.3       16 UNK        -0.1800 
     92 C          -5.0913  -20.3020  -53.0479 C.2       16 UNK         0.5000 
     93 O          -5.8226  -20.8639  -53.8639 O.2       16 UNK        -0.5000 
     94 N          -3.9551  -20.8382  -52.5759 N.am      17 UNK        -0.5000 
     95 CA         -3.4317  -22.1437  -52.9855 C.3       17 UNK         0.1400 
     96 CB         -2.2997  -22.5649  -52.0391 C.3       17 UNK        -0.1800 
     97 C          -2.9402  -22.1665  -54.4435 C.2       17 UNK         0.5000 
     98 O          -3.0009  -23.2163  -55.0824 O.2       17 UNK        -0.5000 
     99 N          -2.4781  -21.0147  -54.9443 N.am      18 UNK        -0.5000 
    100 CA        -2.0463  -20.8366  -56.3273 C.3       18 UNK         0.1400 
    101 CB        -0.8987  -19.8143  -56.3674 C.3       18 UNK        -0.1800 
    102 C         -3.2154  -20.3812  -57.2157 C.2       18 UNK         0.5000 
    103 O         -3.3607  -20.8774  -58.3331 O.2       18 UNK        -0.5000 
    104 N         -4.0177  -19.4369  -56.7071 N.am      19 UNK        -0.5000 
    105 CA        -5.0849  -18.7692  -57.4475 C.3       19 UNK         0.1400 
    106 CB        -5.4599  -17.4697  -56.7182 C.3       19 UNK        -0.1800 
    107 C         -6.3371  -19.6345  -57.6676 C.2       19 UNK         0.5000 
    108 O         -6.9541  -19.5249  -58.7285 O.2       19 UNK        -0.5000 
    109 N         -6.7153  -20.4422  -56.6674 N.am      20 UNK        -0.5000 
    110 CA        -8.0054  -21.1384  -56.6362 C.3       20 UNK         0.1400 
    111 CB        -9.0179  -20.2583  -55.8777 C.3       20 UNK        -0.1800 
    112 C         -7.9234  -22.5487  -56.0272 C.2       20 UNK         0.5000 
    113 O         -8.9687  -23.1287  -55.7278 O.2       20 UNK        -0.5000 
    114 N         -6.7052  -23.0689  -55.8075 N.am      21 UNK        -0.5000 
    115 CA        -6.4093  -24.3455  -55.1360 C.3       21 UNK         0.1400 
    116 CB        -6.8212  -25.5339  -56.0293 C.3       21 UNK        -0.1800 
    117 C         -7.0022  -24.4348  -53.7090 C.2       21 UNK         0.5000 
    118 O         -7.3802  -25.5165  -53.2567 O.2       21 UNK        -0.5000 
    119 N         -7.0896  -23.2779  -53.0399 N.am      22 UNK        -0.5000 
    120 CA        -7.7585  -23.0461  -51.7515 C.3       22 UNK         0.1400 
    121 C         -9.3173  -23.1217  -51.7941 C.2       22 UNK         0.5000 
    122 N         -9.9572  -23.1739  -52.9570 N.am      22 UNK        -0.7600 
    123 O         -9.9695  -23.1021  -50.7540 O.2       22 UNK        -0.5000 
    124 C124       -7.1324  -23.8682  -50.5864 C.3       23 UNK        -0.0398 
    125 S125       -6.8072  -22.8453  -49.1094 S.3       23 UNK        -0.2404 
    126 C126       -5.0167  -22.5915  -49.2981 C.3       23 UNK        -0.0205 
    127 H127        4.5564  -18.8121  -47.0895 H         1 UNK         0.0600 
    128 H128        4.1092  -17.8667  -45.6652 H         1 UNK         0.0600 
    129 H129        5.1924  -17.1775  -46.8733 H         1 UNK         0.0600 
    130 H130        1.9489  -17.4388  -45.8698 H         1 UNK         0.3000 
    131 H131        0.0024  -16.6504  -46.5236 H         1 UNK         0.0600 
    132 H132        0.8453  -17.6455  -49.2762 H         1 UNK         0.0800 
    133 H133       -0.7218  -16.9716  -48.9886 H         1 UNK         0.0800 
    134 H134       -2.3583  -17.9762  -46.8380 H         1 UNK         0.0800 
    135 H135       -2.6437  -18.2084  -48.5471 H         1 UNK         0.0800 
    136 H136       -3.6079  -20.2520  -49.4172 H         1 UNK         0.1150 
    137 H137       -4.9960  -23.2151  -46.6447 H         1 UNK         0.1150 
    138 H138       -2.6613  -19.8996  -45.2568 H         1 UNK         0.1150 
    139 H139       -3.6191  -21.4272  -43.6461 H         1 UNK         0.0800 
    140 H140       -4.9258  -22.4663  -44.1570 H         1 UNK         0.0800 
    141 H141       -0.7442  -23.7414  -43.1292 H         1 UNK         0.0800 
    142 H142       -1.4501  -22.1770  -42.9061 H         1 UNK         0.0800 
    143 H143       -0.6125  -21.3440  -44.9738 H         1 UNK         0.0600 
    144 H144        1.2388  -22.7187  -43.3027 H         1 UNK         0.3000 
    145 H145        3.6574  -22.7856  -43.9195 H         1 UNK         0.0600 
    146 H146        5.5499  -21.2102  -44.1751 H         1 UNK         0.0600 
    147 H147        4.4676  -19.9586  -44.7717 H         1 UNK         0.0600 
    148 H148        4.7369  -21.4183  -45.7190 H         1 UNK         0.0600 
    149 H149        2.8926  -20.1884  -42.6678 H         1 UNK         0.3000 
    150 H150        3.0566  -21.6605  -39.4146 H         1 UNK         0.0600 
    151 H151        5.2536  -20.5206  -39.7191 H         1 UNK         0.0600 
    152 H152        4.1013  -19.4580  -38.9233 H         1 UNK         0.0600 
    153 H153        4.4767  -19.2316  -40.6302 H         1 UNK         0.0600 
    154 H154        2.0056  -19.1751  -40.2444 H         1 UNK         0.3000 
    155 H155       -1.3494  -20.2817  -40.8853 H         1 UNK         0.0600 
    156 H156       -1.0553  -19.9839  -38.4553 H         1 UNK         0.0600 
    157 H157       -1.6451  -18.4966  -39.1806 H         1 UNK         0.0600 
    158 H158        0.0461  -18.6381  -38.7076 H         1 UNK         0.0600 
    159 H159        0.4547  -17.9160  -41.0993 H         1 UNK         0.3000 
    160 H160        0.2587  -17.8924  -44.5813 H         1 UNK         0.0600 
    161 H161       -1.4388  -15.9661  -42.9000 H         1 UNK         0.0600 
    162 H162       -2.0059  -16.8888  -44.2880 H         1 UNK         0.0600 
    163 H163       -0.8056  -15.6243  -44.5068 H         1 UNK         0.0600 
    164 H164        1.0582  -15.7860  -42.8434 H         1 UNK         0.3000 
    165 H165        4.1767  -17.1446  -41.7991 H         1 UNK         0.0600 
    166 H166        4.9796  -14.9846  -42.7238 H         1 UNK         0.0600 
    167 H167        4.6558  -16.1317  -44.0107 H         1 UNK         0.0600 
    168 H168        3.5187  -14.8293  -43.6961 H         1 UNK         0.0600 
    169 H169        3.0523  -14.6553  -41.1762 H         1 UNK         0.3000 
    170 H170        0.7143  -15.3258  -38.8212 H         1 UNK         0.0600 
    171 H171        3.5573  -15.3847  -37.6987 H         1 UNK         0.0600 
    172 H172        2.1171  -14.8515  -36.8313 H         1 UNK         0.0600 
    173 H173        2.2725  -16.5276  -37.3271 H         1 UNK         0.0600 
    174 H174        2.9098  -13.4015  -38.9083 H         1 UNK         0.3000 
    175 H175       -0.0391  -14.4565  -40.7974 H         1 UNK         0.0600 
    176 H176       -1.3051  -12.0167  -39.4337 H         1 UNK         0.0600 
    177 H177       -2.1710  -13.4212  -40.0564 H         1 UNK         0.0600 
    178 H178       -1.0836  -13.5937  -38.6880 H         1 UNK         0.0600 
    179 H179       -0.8853  -11.8796  -41.8416 H         1 UNK         0.3000 
    180 H180       -0.8355  -11.9300  -44.4272 H         1 UNK         0.0600 
    181 H181        0.6601   -9.9000  -44.6163 H         1 UNK         0.0600 
    182 H182        1.8517  -10.6684  -43.5703 H         1 UNK         0.0600 
    183 H183        0.2816  -10.1976  -42.9353 H         1 UNK         0.0600 
    184 H184        1.4489  -13.4226  -45.0528 H         1 UNK         0.3000 
    185 H185        1.6109  -12.6830  -48.5379 H         1 UNK         0.0600 
    186 H186        3.5260  -11.4559  -47.5136 H         1 UNK         0.0600 
    187 H187        3.7642  -12.7582  -46.3547 H         1 UNK         0.0600 
    188 H188        4.0205  -13.0450  -48.0760 H         1 UNK         0.0600 
    189 H189        2.5428  -14.8419  -46.8521 H         1 UNK         0.3000 
    190 H190       -1.4862  -21.8122  -46.8868 H         1 UNK         0.3000 
    191 H191       -1.7623  -22.4966  -48.9236 H         1 UNK         0.0600 
    192 H192       -1.0110  -25.3257  -48.0418 H         1 UNK         0.0600 
    193 H193       -1.9556  -24.8764  -49.4545 H         1 UNK         0.0600 
    194 H194       -2.6066  -24.6017  -47.8470 H         1 UNK         0.0600 
    195 H195        0.9056  -21.5287  -48.1109 H         1 UNK         0.3000 
    196 H196        2.8223  -22.7741  -49.8908 H         1 UNK         0.0600 
    197 H197        3.5812  -21.6115  -47.8755 H         1 UNK         0.0600 
    198 H198        2.8213  -20.1072  -48.3951 H         1 UNK         0.0600 
    199 H199        4.2011  -20.7546  -49.2770 H         1 UNK         0.0600 
    200 H200        0.4603  -20.1191  -50.2132 H         1 UNK         0.3000 
    201 H201        0.7484  -19.9319  -53.0407 H         1 UNK         0.0600 
    202 H202        2.8442  -18.6467  -52.3697 H         1 UNK         0.0600 
    203 H203        1.8471  -17.5422  -51.4361 H         1 UNK         0.0600 
    204 H204        1.6880  -17.6321  -53.1886 H         1 UNK         0.0600 
    205 H205       -0.1771  -17.2079  -53.1658 H         1 UNK         0.3000 
    206 H206       -2.0515  -16.0549  -53.3492 H         1 UNK         0.0600 
    207 H207       -1.6034  -15.5656  -50.9504 H         1 UNK         0.0600 
    208 H208       -3.3262  -15.5694  -51.2759 H         1 UNK         0.0600 
    209 H209       -2.5825  -16.9409  -50.4599 H         1 UNK         0.0600 
    210 H210       -4.2526  -17.6604  -51.3386 H         1 UNK         0.3000 
    211 H211       -6.0361  -18.4109  -53.3594 H         1 UNK         0.0600 
    212 H212       -6.6765  -17.9887  -50.9887 H         1 UNK         0.0600 
    213 H213       -5.8370  -19.4544  -50.4809 H         1 UNK         0.0600 
    214 H214       -7.2548  -19.5580  -51.5178 H         1 UNK         0.0600 
    215 H215       -3.3728  -20.2890  -51.9539 H         1 UNK         0.3000 
    216 H216       -4.2361  -22.8758  -52.8943 H         1 UNK         0.0600 
    217 H217       -1.9421  -23.5673  -52.2780 H         1 UNK         0.0600 
    218 H218       -2.6392  -22.5825  -51.0068 H         1 UNK         0.0600 
    219 H219       -1.4441  -21.8922  -52.1011 H         1 UNK         0.0600 
    220 H220       -2.5271  -20.1798  -54.3747 H         1 UNK         0.3000 
    221 H221       -1.6667  -21.7807  -56.7242 H         1 UNK         0.0600 
    222 H222       -1.2052  -18.8416  -55.9807 H         1 UNK         0.0600 
    223 H223       -0.0485  -20.1552  -55.7764 H         1 UNK         0.0600 
    224 H224       -0.5457  -19.6649  -57.3886 H         1 UNK         0.0600 
    225 H225       -3.7967  -19.0505  -55.7922 H         1 UNK         0.3000 
    226 H226       -4.6951  -18.4988  -58.4313 H         1 UNK         0.0600 
    227 H227       -4.5986  -16.8081  -56.6235 H         1 UNK         0.0600 
    228 H228       -6.2315  -16.9233  -57.2621 H         1 UNK         0.0600 
    229 H229       -5.8412  -17.6667  -55.7159 H         1 UNK         0.0600 
    230 H230       -6.1744  -20.4668  -55.8088 H         1 UNK         0.3000 
    231 H231       -8.3754  -21.2868  -57.6526 H         1 UNK         0.0600 
    232 H232      -10.0114  -20.7082  -55.8709 H         1 UNK         0.0600 
    233 H233       -9.1148  -19.2769  -56.3420 H         1 UNK         0.0600 
    234 H234       -8.7157  -20.1096  -54.8400 H         1 UNK         0.0600 
    235 H235       -5.9027  -22.5198  -56.0793 H         1 UNK         0.3000 
    236 H236       -5.3279  -24.3904  -55.0138 H         1 UNK         0.0600 
    237 H237       -7.9034  -25.5970  -56.1470 H         1 UNK         0.0600 
    238 H238       -6.3799  -25.4511  -57.0225 H         1 UNK         0.0600 
    239 H239       -6.4831  -26.4795  -55.6040 H         1 UNK         0.0600 
    240 H240       -6.7401  -22.4395  -53.4974 H         1 UNK         0.3000 
    241 H241       -7.5587  -21.9916  -51.5623 H         1 UNK         0.0600 
    242 H242      -10.9639  -23.2119  -52.9586 H         1 UNK         0.3800 
    243 H243       -9.4602  -23.1953  -53.8419 H         1 UNK         0.3800 
    244 H244       -6.1934  -24.3272  -50.8977 H         1 UNK         0.0800 
    245 H245       -7.7699  -24.7071  -50.3019 H         1 UNK         0.0800 
    246 H246       -4.8456  -22.0846  -50.2470 H         1 UNK         0.0800 
    247 H247       -4.5160  -23.5585  -49.3617 H         1 UNK         0.0800 
@<TRIPOS>BOND
     1    1    2 1    
     2    1  127 1    
     3    1  128 1    
     4    1  129 1    
     5    2    3 2    
     6    2    4 am   BACKBONE|DICT|INTERRES
     7    4    5 1    
     8    4  130 1    
     9    5    6 1    
    10    5   65 1    
    11    5  131 1    
    12    6    7 1    
    13    6  132 1    
    14    6  133 1    
    15    7    8 1    
    16    8    9 1    
    17    8  134 1    
    18    8  135 1    
    19    9   10 ar   
    20    9   14 ar   
    21   10   11 ar   
    22   10  136 1    
    23   11   12 ar   
    24   11  126 1    
    25   12   13 ar   
    26   12  137 1    
    27   13   14 ar   
    28   13   15 1    
    29   14  138 1    
    30   15   16 1    
    31   15  139 1    
    32   15  140 1    
    33   16   17 1    
    34   17   18 1    
    35   17  141 1    
    36   17  142 1    
    37   18   19 1    
    38   18   67 1    
    39   18  143 1    
    40   19   20 am   BACKBONE|DICT|INTERRES
    41   19  144 1    
    42   20   21 2    
    43   20   22 1    
    44   22   23 1    
    45   22   24 1    
    46   22  145 1    
    47   23  146 1    
    48   23  147 1    
    49   23  148 1    
    50   24   25 am   BACKBONE|DICT|INTERRES
    51   24  149 1    
    52   25   26 2    
    53   25   27 1    
    54   27   28 1    
    55   27   29 1    
    56   27  150 1    
    57   28  151 1    
    58   28  152 1    
    59   28  153 1    
    60   29   30 am   BACKBONE|DICT|INTERRES
    61   29  154 1    
    62   30   31 2    
    63   30   32 1    
    64   32   33 1    
    65   32   34 1    
    66   32  155 1    
    67   33  156 1    
    68   33  157 1    
    69   33  158 1    
    70   34   35 am   BACKBONE|DICT|INTERRES
    71   34  159 1    
    72   35   36 2    
    73   35   37 1    
    74   37   38 1    
    75   37   39 1    
    76   37  160 1    
    77   38  161 1    
    78   38  162 1    
    79   38  163 1    
    80   39   40 am   BACKBONE|DICT|INTERRES
    81   39  164 1    
    82   40   41 2    
    83   40   42 1    
    84   42   43 1    
    85   42   44 1    
    86   42  165 1    
    87   43  166 1    
    88   43  167 1    
    89   43  168 1    
    90   44   45 am   BACKBONE|DICT|INTERRES
    91   44  169 1    
    92   45   46 2    
    93   45   47 1    
    94   47   48 1    
    95   47   49 1    
    96   47  170 1    
    97   48  171 1    
    98   48  172 1    
    99   48  173 1    
   100   49   50 am   BACKBONE|DICT|INTERRES
   101   49  174 1    
   102   50   51 2    
   103   50   52 1    
   104   52   53 1    
   105   52   54 1    
   106   52  175 1    
   107   53  176 1    
   108   53  177 1    
   109   53  178 1    
   110   54   55 am   BACKBONE|DICT|INTERRES
   111   54  179 1    
   112   55   56 2    
   113   55   57 1    
   114   57   58 1    
   115   57   59 1    
   116   57  180 1    
   117   58  181 1    
   118   58  182 1    
   119   58  183 1    
   120   59   60 am   BACKBONE|DICT|INTERRES
   121   59  184 1    
   122   60   61 2    
   123   60   62 1    
   124   62   63 1    
   125   62   64 1    
   126   62  185 1    
   127   63  186 1    
   128   63  187 1    
   129   63  188 1    
   130   64   65 am   BACKBONE|DICT|INTERRES
   131   64  189 1    
   132   65   66 2    
   133   67   68 2    
   134   67   69 am   BACKBONE|DICT|INTERRES
   135   69   70 1    
   136   69  190 1    
   137   70   71 1    
   138   70   72 1    
   139   70  191 1    
   140   71  192 1    
   141   71  193 1    
   142   71  194 1    
   143   72   73 2    
   144   72   74 am   BACKBONE|DICT|INTERRES
   145   74   75 1    
   146   74  195 1    
   147   75   76 1    
   148   75   77 1    
   149   75  196 1    
   150   76  197 1    
   151   76  198 1    
   152   76  199 1    
   153   77   78 2    
   154   77   79 am   BACKBONE|DICT|INTERRES
   155   79   80 1    
   156   79  200 1    
   157   80   81 1    
   158   80   82 1    
   159   80  201 1    
   160   81  202 1    
   161   81  203 1    
   162   81  204 1    
   163   82   83 2    
   164   82   84 am   BACKBONE|DICT|INTERRES
   165   84   85 1    
   166   84  205 1    
   167   85   86 1    
   168   85   87 1    
   169   85  206 1    
   170   86  207 1    
   171   86  208 1    
   172   86  209 1    
   173   87   88 2    
   174   87   89 am   BACKBONE|DICT|INTERRES
   175   89   90 1    
   176   89  210 1    
   177   90   91 1    
   178   90   92 1    
   179   90  211 1    
   180   91  212 1    
   181   91  213 1    
   182   91  214 1    
   183   92   93 2    
   184   92   94 am   BACKBONE|DICT|INTERRES
   185   94   95 1    
   186   94  215 1    
   187   95   96 1    
   188   95   97 1    
   189   95  216 1    
   190   96  217 1    
   191   96  218 1    
   192   96  219 1    
   193   97   98 2    
   194   97   99 am   BACKBONE|DICT|INTERRES
   195   99  100 1    
   196   99  220 1    
   197  100  101 1    
   198  100  102 1    
   199  100  221 1    
   200  101  222 1    
   201  101  223 1    
   202  101  224 1    
   203  102  103 2    
   204  102  104 am   BACKBONE|DICT|INTERRES
   205  104  105 1    
   206  104  225 1    
   207  105  106 1    
   208  105  107 1    
   209  105  226 1    
   210  106  227 1    
   211  106  228 1    
   212  106  229 1    
   213  107  108 2    
   214  107  109 am   BACKBONE|DICT|INTERRES
   215  109  110 1    
   216  109  230 1    
   217  110  111 1    
   218  110  112 1    
   219  110  231 1    
   220  111  232 1    
   221  111  233 1    
   222  111  234 1    
   223  112  113 2    
   224  112  114 am   BACKBONE|DICT|INTERRES
   225  114  115 1    
   226  114  235 1    
   227  115  116 1    
   228  115  117 1    
   229  115  236 1    
   230  116  237 1    
   231  116  238 1    
   232  116  239 1    
   233  117  118 2    
   234  117  119 am   BACKBONE|DICT|INTERRES
   235  119  120 1    
   236  119  240 1    
   237  120  121 1    
   238  120  124 1    
   239  120  241 1    
   240  121  122 am   BACKBONE|DICT|INTERRES
   241  121  123 2    
   242  122  242 1    
   243  122  243 1    
   244  124  125 1    
   245  124  244 1    
   246  124  245 1    
   247  125  126 1    
   248  126  246 1    
   249  126  247 1    
@<TRIPOS>SUBSTRUCTURE
     1 UNK         1 GROUP             0       ****    0 ROOT    
