@<TRIPOS>MOLECULE
3R540
247   249    1
SMALL
USER_CHARGES


@<TRIPOS>ATOM
      1 CA          6.0946  -15.3182  -50.1243 C.3       0 UNK        -0.1800 
      2 C           4.9383  -14.4340  -49.6796 C.2       0 UNK         0.5000 
      3 O           4.6841  -13.4017  -50.2992 O.2       0 UNK        -0.5000 
      4 N           4.2447  -14.8345  -48.6044 N.am      1 UNK        -0.5000 
      5 CA          3.0831  -14.1486  -48.0168 C.3       1 UNK         0.1400 
      6 C6          1.9023  -13.9908  -49.0178 C.3       23 UNK        -0.0398 
      7 S7          0.2410  -13.9938  -48.2545 S.3       23 UNK        -0.2404 
      8 C8          0.0669  -15.6808  -47.5867 C.3       23 UNK        -0.0205 
      9 C9          0.2424  -16.7662  -48.6363 C.ar      23 UNK        -0.0193 
     10 C10        -0.8345  -17.1511  -49.4380 C.ar      23 UNK        -0.1150 
     11 C11        -0.6802  -18.1548  -50.3985 C.ar      23 UNK        -0.0193 
     12 C12         0.5646  -18.7698  -50.5603 C.ar      23 UNK        -0.1150 
     13 C13         1.6476  -18.3970  -49.7592 C.ar      23 UNK        -0.0193 
     14 C14         1.4775  -17.4004  -48.7940 C.ar      23 UNK        -0.1150 
     15 C15         3.0044  -19.0647  -49.9364 C.3       23 UNK        -0.0205 
     16 S16         3.0017  -20.8127  -49.4222 S.3       23 UNK        -0.2404 
     17 C17         2.5469  -20.6874  -47.6575 C.3       23 UNK        -0.0398 
     18 CA          1.8524  -21.9545  -47.1039 C.3       11 UNK         0.1400 
     19 N           1.7190  -21.8722  -45.6494 N.am      11 UNK        -0.5000 
     20 C           1.4648  -22.9007  -44.8320 C.2       10 UNK         0.5000 
     21 O           1.1252  -24.0152  -45.2235 O.2       10 UNK        -0.5000 
     22 CA          1.6322  -22.6435  -43.3263 C.3       10 UNK         0.1400 
     23 CB          3.0657  -22.1991  -42.9879 C.3       10 UNK        -0.1800 
     24 N           0.6949  -21.6182  -42.8870 N.am      10 UNK        -0.5000 
     25 C          -0.3899  -21.8431  -42.1347 C.2       9 UNK         0.5000 
     26 O          -0.6499  -22.9300  -41.6177 O.2       9 UNK        -0.5000 
     27 CA         -1.3660  -20.6655  -41.9228 C.3       9 UNK         0.1400 
     28 CB         -1.2231  -20.1014  -40.5006 C.3       9 UNK        -0.1800 
     29 N          -1.2228  -19.5654  -42.8797 N.am      9 UNK        -0.5000 
     30 C          -1.3468  -19.6606  -44.2108 C.2       8 UNK         0.5000 
     31 O          -1.6013  -20.7074  -44.8050 O.2       8 UNK        -0.5000 
     32 CA         -1.0601  -18.3798  -45.0143 C.3       8 UNK         0.1400 
     33 CB         -2.3094  -17.4846  -45.0256 C.3       8 UNK        -0.1800 
     34 N           0.0927  -17.6329  -44.4980 N.am      8 UNK        -0.5000 
     35 C           1.3402  -18.1158  -44.3790 C.2       7 UNK         0.5000 
     36 O           1.6678  -19.2527  -44.7181 O.2       7 UNK        -0.5000 
     37 CA          2.3890  -17.1994  -43.7288 C.3       7 UNK         0.1400 
     38 CB          2.9920  -16.2231  -44.7502 C.3       7 UNK        -0.1800 
     39 N           1.8187  -16.4658  -42.6003 N.am      7 UNK        -0.5000 
     40 C           1.6537  -16.9902  -41.3770 C.2       6 UNK         0.5000 
     41 O           2.0826  -18.0953  -41.0451 O.2       6 UNK        -0.5000 
     42 CA          0.8448  -16.1624  -40.3603 C.3       6 UNK         0.1400 
     43 CB          1.7707  -15.3412  -39.4528 C.3       6 UNK        -0.1800 
     44 N          -0.1285  -15.2751  -41.0002 N.am      6 UNK        -0.5000 
     45 C          -1.2606  -15.7081  -41.5734 C.2       5 UNK         0.5000 
     46 O          -1.5968  -16.8920  -41.6000 O.2       5 UNK        -0.5000 
     47 CA         -2.1452  -14.6574  -42.2723 C.3       5 UNK         0.1400 
     48 CB         -3.1674  -14.0756  -41.2851 C.3       5 UNK        -0.1800 
     49 N          -1.3968  -13.5612  -42.8914 N.am      5 UNK        -0.5000 
     50 C          -0.4659  -13.6979  -43.8453 C.2       4 UNK         0.5000 
     51 O          -0.1146  -14.7889  -44.2959 O.2       4 UNK        -0.5000 
     52 CA          0.2199  -12.4173  -44.3636 C.3       4 UNK         0.1400 
     53 CB         -0.4306  -11.1062  -43.8691 C.3       4 UNK        -0.1800 
     54 N           1.6563  -12.4073  -44.0720 N.am      4 UNK        -0.5000 
     55 C           2.2466  -12.5403  -42.8722 C.2       3 UNK         0.5000 
     56 O           1.6231  -12.7342  -41.8273 O.2       3 UNK        -0.5000 
     57 CA          3.7878  -12.4534  -42.8197 C.3       3 UNK         0.1400 
     58 CB          4.3941  -13.6212  -42.0233 C.3       3 UNK        -0.1800 
     59 N           4.3960  -12.4242  -44.1522 N.am      3 UNK        -0.5000 
     60 C           4.7425  -11.3119  -44.8143 C.2       2 UNK         0.5000 
     61 O           4.6249  -10.1749  -44.3566 O.2       2 UNK        -0.5000 
     62 CA          5.2890  -11.5023  -46.2432 C.3       2 UNK         0.1400 
     63 CB          6.8218  -11.6016  -46.2248 C.3       2 UNK        -0.1800 
     64 N           4.7426  -12.6754  -46.9336 N.am      2 UNK        -0.5000 
     65 C           3.4552  -12.8413  -47.2742 C.2       1 UNK         0.5000 
     66 O           2.5799  -12.0270  -46.9800 O.2       1 UNK        -0.5000 
     67 C           0.5137  -22.2586  -47.8064 C.2       11 UNK         0.5000 
     68 O           0.4229  -23.2467  -48.5374 O.2       11 UNK        -0.5000 
     69 N          -0.5093  -21.4277  -47.5591 N.am      12 UNK        -0.5000 
     70 CA         -1.8382  -21.5848  -48.1585 C.3       12 UNK         0.1400 
     71 CB         -2.6809  -20.3190  -47.9396 C.3       12 UNK        -0.1800 
     72 C          -2.5656  -22.8306  -47.6253 C.2       12 UNK         0.5000 
     73 O          -3.2864  -23.4803  -48.3827 O.2       12 UNK        -0.5000 
     74 N          -2.3218  -23.1587  -46.3485 N.am      13 UNK        -0.5000 
     75 CA         -2.7854  -24.3735  -45.6836 C.3       13 UNK         0.1400 
     76 CB         -2.4573  -24.2938  -44.1864 C.3       13 UNK        -0.1800 
     77 C          -2.1995  -25.6516  -46.3116 C.2       13 UNK         0.5000 
     78 O          -2.9576  -26.5757  -46.6048 O.2       13 UNK        -0.5000 
     79 N          -0.8795  -25.6719  -46.5547 N.am      14 UNK        -0.5000 
     80 CA         -0.1771  -26.7700  -47.2287 C.3       14 UNK         0.1400 
     81 CB          1.3411  -26.5603  -47.1282 C.3       14 UNK        -0.1800 
     82 C          -0.6015  -26.9400  -48.6990 C.2       14 UNK         0.5000 
     83 O          -0.7004  -28.0701  -49.1777 O.2       14 UNK        -0.5000 
     84 N          -0.8875  -25.8180  -49.3729 N.am      15 UNK        -0.5000 
     85 CA         -1.4555  -25.7725  -50.7217 C.3       15 UNK         0.1400 
     86 CB         -1.2165  -24.3725  -51.3102 C.3       15 UNK        -0.1800 
     87 C          -2.9581  -26.1249  -50.7703 C.2       15 UNK         0.5000 
     88 O          -3.5092  -26.2278  -51.8662 O.2       15 UNK        -0.5000 
     89 N          -3.6072  -26.2535  -49.6014 N.am      16 UNK        -0.5000 
     90 CA         -5.0345  -26.5229  -49.3824 C.3       16 UNK         0.1400 
     91 CB         -5.3749  -27.9636  -49.8152 C.3       16 UNK        -0.1800 
     92 C          -5.9706  -25.4755  -50.0264 C.2       16 UNK         0.5000 
     93 O          -7.1175  -25.7925  -50.3466 O.2       16 UNK        -0.5000 
     94 N          -5.4470  -24.2567  -50.2345 N.am      17 UNK        -0.5000 
     95 CA         -6.0365  -23.1384  -50.9783 C.3       17 UNK         0.1400 
     96 CB         -7.1971  -22.5151  -50.1775 C.3       17 UNK        -0.1800 
     97 C          -6.4371  -23.4890  -52.4325 C.2       17 UNK         0.5000 
     98 O          -7.3321  -22.8487  -52.9871 O.2       17 UNK        -0.5000 
     99 N          -5.7686  -24.4852  -53.0391 N.am      18 UNK        -0.5000 
    100 CA        -6.1090  -25.0650  -54.3458 C.3       18 UNK         0.1400 
    101 CB        -5.2330  -26.3021  -54.5926 C.3       18 UNK        -0.1800 
    102 C         -6.0113  -24.0913  -55.5370 C.2       18 UNK         0.5000 
    103 O         -6.6445  -24.3285  -56.5663 O.2       18 UNK        -0.5000 
    104 N         -5.2452  -23.0051  -55.3716 N.am      19 UNK        -0.5000 
    105 CA        -5.1418  -21.8966  -56.3218 C.3       19 UNK         0.1400 
    106 CB        -3.9358  -21.0295  -55.9302 C.3       19 UNK        -0.1800 
    107 C         -6.4189  -21.0329  -56.4070 C.2       19 UNK         0.5000 
    108 O         -6.5719  -20.2931  -57.3798 O.2       19 UNK        -0.5000 
    109 N         -7.2949  -21.1242  -55.3924 N.am      20 UNK        -0.5000 
    110 CA        -8.5708  -20.4241  -55.1993 C.3       20 UNK         0.1400 
    111 CB        -9.5722  -20.7398  -56.3271 C.3       20 UNK        -0.1800 
    112 C         -8.4166  -18.9087  -54.9772 C.2       20 UNK         0.5000 
    113 O         -8.7905  -18.4082  -53.9157 O.2       20 UNK        -0.5000 
    114 N         -7.8285  -18.2098  -55.9562 N.am      21 UNK        -0.5000 
    115 CA        -7.5620  -16.7678  -55.9430 C.3       21 UNK         0.1400 
    116 CB        -7.0515  -16.3454  -57.3288 C.3       21 UNK        -0.1800 
    117 C         -6.5697  -16.3334  -54.8457 C.2       21 UNK         0.5000 
    118 O         -6.6101  -15.1825  -54.4094 O.2       21 UNK        -0.5000 
    119 N         -5.7175  -17.2692  -54.4096 N.am      22 UNK        -0.5000 
    120 CA        -4.8102  -17.1238  -53.2626 C.3       22 UNK         0.1400 
    121 C         -5.5186  -17.2199  -51.8743 C.2       22 UNK         0.5000 
    122 N         -6.7872  -17.6073  -51.7892 N.am      22 UNK        -0.7600 
    123 O         -4.9140  -16.9202  -50.8498 O.2       22 UNK        -0.5000 
    124 C124       -3.6197  -18.1130  -53.3873 C.3       23 UNK        -0.0398 
    125 S125       -2.0661  -17.4732  -52.6799 S.3       23 UNK        -0.2404 
    126 C126       -1.8641  -18.5771  -51.2505 C.3       23 UNK        -0.0205 
    127 H127        7.0306  -14.7612  -50.0828 H         1 UNK         0.0600 
    128 H128        5.9390  -15.6496  -51.1510 H         1 UNK         0.0600 
    129 H129        6.1960  -16.2024  -49.4945 H         1 UNK         0.0600 
    130 H130        4.5260  -15.6859  -48.1389 H         1 UNK         0.3000 
    131 H131        2.7566  -14.8231  -47.2298 H         1 UNK         0.0600 
    132 H132        2.0123  -13.0728  -49.5973 H         1 UNK         0.0800 
    133 H133        1.9203  -14.7931  -49.7559 H         1 UNK         0.0800 
    134 H134       -0.9297  -15.7602  -47.1570 H         1 UNK         0.0800 
    135 H135        0.7576  -15.8314  -46.7588 H         1 UNK         0.0800 
    136 H136       -1.7948  -16.6689  -49.3171 H         1 UNK         0.1150 
    137 H137        0.6912  -19.5439  -51.3042 H         1 UNK         0.1150 
    138 H138        2.3096  -17.1141  -48.1679 H         1 UNK         0.1150 
    139 H139        3.2939  -19.0072  -50.9866 H         1 UNK         0.0800 
    140 H140        3.7761  -18.5318  -49.3788 H         1 UNK         0.0800 
    141 H141        1.9138  -19.8169  -47.4885 H         1 UNK         0.0800 
    142 H142        3.4652  -20.4973  -47.1001 H         1 UNK         0.0800 
    143 H143        2.5133  -22.8000  -47.3083 H         1 UNK         0.0600 
    144 H144        1.8960  -20.9561  -45.2427 H         1 UNK         0.3000 
    145 H145        1.4468  -23.5878  -42.8102 H         1 UNK         0.0600 
    146 H146        3.2017  -22.1136  -41.9097 H         1 UNK         0.0600 
    147 H147        3.7958  -22.9235  -43.3511 H         1 UNK         0.0600 
    148 H148        3.3118  -21.2323  -43.4286 H         1 UNK         0.0600 
    149 H149        0.8134  -20.6991  -43.2930 H         1 UNK         0.3000 
    150 H150       -2.3759  -21.0647  -42.0343 H         1 UNK         0.0600 
    151 H151       -1.3428  -20.8853  -39.7516 H         1 UNK         0.0600 
    152 H152       -1.9802  -19.3436  -40.2986 H         1 UNK         0.0600 
    153 H153       -0.2438  -19.6462  -40.3476 H         1 UNK         0.0600 
    154 H154       -1.0644  -18.6454  -42.4811 H         1 UNK         0.3000 
    155 H155       -0.8270  -18.6605  -46.0430 H         1 UNK         0.0600 
    156 H156       -2.7110  -17.3394  -44.0231 H         1 UNK         0.0600 
    157 H157       -3.1003  -17.9361  -45.6255 H         1 UNK         0.0600 
    158 H158       -2.1075  -16.4996  -45.4404 H         1 UNK         0.0600 
    159 H159       -0.0719  -16.6617  -44.2469 H         1 UNK         0.3000 
    160 H160        3.1986  -17.8393  -43.3706 H         1 UNK         0.0600 
    161 H161        2.3047  -15.4155  -44.9960 H         1 UNK         0.0600 
    162 H162        3.2528  -16.7365  -45.6766 H         1 UNK         0.0600 
    163 H163        3.9078  -15.7746  -44.3681 H         1 UNK         0.0600 
    164 H164        1.3797  -15.5791  -42.8088 H         1 UNK         0.3000 
    165 H165        0.3011  -16.8680  -39.7281 H         1 UNK         0.0600 
    166 H166        1.2054  -14.8294  -38.6739 H         1 UNK         0.0600 
    167 H167        2.5022  -15.9809  -38.9573 H         1 UNK         0.0600 
    168 H168        2.3198  -14.5886  -40.0153 H         1 UNK         0.0600 
    169 H169        0.1148  -14.2937  -41.0616 H         1 UNK         0.3000 
    170 H170       -2.6940  -15.1653  -43.0667 H         1 UNK         0.0600 
    171 H171       -3.7595  -14.8674  -40.8241 H         1 UNK         0.0600 
    172 H172       -2.6806  -13.5198  -40.4827 H         1 UNK         0.0600 
    173 H173       -3.8628  -13.4027  -41.7871 H         1 UNK         0.0600 
    174 H174       -1.6007  -12.6315  -42.5552 H         1 UNK         0.3000 
    175 H175        0.1254  -12.4442  -45.4500 H         1 UNK         0.0600 
    176 H176       -0.3486  -10.9851  -42.7883 H         1 UNK         0.0600 
    177 H177        0.0464  -10.2418  -44.3314 H         1 UNK         0.0600 
    178 H178       -1.4879  -11.0644  -44.1341 H         1 UNK         0.0600 
    179 H179        2.2473  -12.2573  -44.8806 H         1 UNK         0.3000 
    180 H180        4.0338  -11.5328  -42.2868 H         1 UNK         0.0600 
    181 H181        4.0401  -14.5881  -42.3782 H         1 UNK         0.0600 
    182 H182        4.1344  -13.5431  -40.9679 H         1 UNK         0.0600 
    183 H183        5.4826  -13.6186  -42.0817 H         1 UNK         0.0600 
    184 H184        4.5333  -13.3138  -44.6082 H         1 UNK         0.3000 
    185 H185        5.0111  -10.6176  -46.8200 H         1 UNK         0.0600 
    186 H186        7.2642  -10.7296  -45.7410 H         1 UNK         0.0600 
    187 H187        7.1620  -12.4852  -45.6834 H         1 UNK         0.0600 
    188 H188        7.2264  -11.6499  -47.2360 H         1 UNK         0.0600 
    189 H189        5.4037  -13.3866  -47.2096 H         1 UNK         0.3000 
    190 H190       -0.3960  -20.6931  -46.8771 H         1 UNK         0.3000 
    191 H191       -1.7018  -21.7086  -49.2346 H         1 UNK         0.0600 
    192 H192       -3.0039  -20.2137  -46.9048 H         1 UNK         0.0600 
    193 H193       -2.1302  -19.4201  -48.2116 H         1 UNK         0.0600 
    194 H194       -3.5814  -20.3477  -48.5542 H         1 UNK         0.0600 
    195 H195       -1.7712  -22.5124  -45.7935 H         1 UNK         0.3000 
    196 H196       -3.8712  -24.4155  -45.7919 H         1 UNK         0.0600 
    197 H197       -2.8340  -25.1693  -43.6562 H         1 UNK         0.0600 
    198 H198       -2.9112  -23.4147  -43.7286 H         1 UNK         0.0600 
    199 H199       -1.3823  -24.2427  -44.0119 H         1 UNK         0.0600 
    200 H200       -0.3031  -24.8941  -46.2464 H         1 UNK         0.3000 
    201 H201       -0.4255  -27.6959  -46.7060 H         1 UNK         0.0600 
    202 H202        1.6693  -26.5569  -46.0888 H         1 UNK         0.0600 
    203 H203        1.6475  -25.6162  -47.5802 H         1 UNK         0.0600 
    204 H204        1.8823  -27.3598  -47.6356 H         1 UNK         0.0600 
    205 H205       -0.7078  -24.9250  -48.9250 H         1 UNK         0.3000 
    206 H206       -0.9300  -26.4988  -51.3449 H         1 UNK         0.0600 
    207 H207       -0.1566  -24.1170  -51.3052 H         1 UNK         0.0600 
    208 H208       -1.5589  -24.3169  -52.3443 H         1 UNK         0.0600 
    209 H209       -1.7479  -23.6052  -50.7476 H         1 UNK         0.0600 
    210 H210       -3.0711  -26.1182  -48.7535 H         1 UNK         0.3000 
    211 H211       -5.1965  -26.4506  -48.3063 H         1 UNK         0.0600 
    212 H212       -5.2962  -28.0897  -50.8955 H         1 UNK         0.0600 
    213 H213       -6.3922  -28.2310  -49.5272 H         1 UNK         0.0600 
    214 H214       -4.7064  -28.6838  -49.3434 H         1 UNK         0.0600 
    215 H215       -4.5237  -24.0856  -49.8464 H         1 UNK         0.3000 
    216 H216       -5.2516  -22.3851  -51.0585 H         1 UNK         0.0600 
    217 H217       -7.5522  -21.5974  -50.6481 H         1 UNK         0.0600 
    218 H218       -6.8830  -22.2575  -49.1659 H         1 UNK         0.0600 
    219 H219       -8.0462  -23.1951  -50.1027 H         1 UNK         0.0600 
    220 H220       -5.0395  -24.9658  -52.5217 H         1 UNK         0.3000 
    221 H221       -7.1485  -25.3944  -54.2912 H         1 UNK         0.0600 
    222 H222       -4.1737  -26.0436  -54.6207 H         1 UNK         0.0600 
    223 H223       -5.3757  -27.0479  -53.8102 H         1 UNK         0.0600 
    224 H224       -5.4814  -26.7780  -55.5421 H         1 UNK         0.0600 
    225 H225       -4.7503  -22.9057  -54.4978 H         1 UNK         0.3000 
    226 H226       -4.9606  -22.3095  -57.3163 H         1 UNK         0.0600 
    227 H227       -3.8263  -20.1770  -56.6021 H         1 UNK         0.0600 
    228 H228       -4.0366  -20.6423  -54.9168 H         1 UNK         0.0600 
    229 H229       -3.0084  -21.6005  -55.9793 H         1 UNK         0.0600 
    230 H230       -7.0700  -21.7667  -54.6386 H         1 UNK         0.3000 
    231 H231       -8.9883  -20.8322  -54.2773 H         1 UNK         0.0600 
    232 H232       -9.7284  -21.8144  -56.4219 H         1 UNK         0.0600 
    233 H233       -9.2388  -20.3646  -57.2948 H         1 UNK         0.0600 
    234 H234      -10.5429  -20.2873  -56.1209 H         1 UNK         0.0600 
    235 H235       -7.4892  -18.7344  -56.7581 H         1 UNK         0.3000 
    236 H236       -8.5066  -16.2548  -55.7519 H         1 UNK         0.0600 
    237 H237       -6.8620  -15.2718  -57.3664 H         1 UNK         0.0600 
    238 H238       -6.1210  -16.8535  -57.5856 H         1 UNK         0.0600 
    239 H239       -7.7830  -16.5728  -58.1045 H         1 UNK         0.0600 
    240 H240       -5.7727  -18.1847  -54.8285 H         1 UNK         0.3000 
    241 H241       -4.4066  -16.1108  -53.3176 H         1 UNK         0.0600 
    242 H242       -7.2218  -17.6491  -50.8813 H         1 UNK         0.3800 
    243 H243       -7.3364  -17.8310  -52.6109 H         1 UNK         0.3800 
    244 H244       -3.8665  -19.0876  -52.9625 H         1 UNK         0.0800 
    245 H245       -3.4007  -18.2992  -54.4397 H         1 UNK         0.0800 
    246 H246       -2.7716  -18.5660  -50.6453 H         1 UNK         0.0800 
    247 H247       -1.7353  -19.6037  -51.5971 H         1 UNK         0.0800 
@<TRIPOS>BOND
     1    1    2 1    
     2    1  127 1    
     3    1  128 1    
     4    1  129 1    
     5    2    3 2    
     6    2    4 am   BACKBONE|DICT|INTERRES
     7    4    5 1    
     8    4  130 1    
     9    5    6 1    
    10    5   65 1    
    11    5  131 1    
    12    6    7 1    
    13    6  132 1    
    14    6  133 1    
    15    7    8 1    
    16    8    9 1    
    17    8  134 1    
    18    8  135 1    
    19    9   10 ar   
    20    9   14 ar   
    21   10   11 ar   
    22   10  136 1    
    23   11   12 ar   
    24   11  126 1    
    25   12   13 ar   
    26   12  137 1    
    27   13   14 ar   
    28   13   15 1    
    29   14  138 1    
    30   15   16 1    
    31   15  139 1    
    32   15  140 1    
    33   16   17 1    
    34   17   18 1    
    35   17  141 1    
    36   17  142 1    
    37   18   19 1    
    38   18   67 1    
    39   18  143 1    
    40   19   20 am   BACKBONE|DICT|INTERRES
    41   19  144 1    
    42   20   21 2    
    43   20   22 1    
    44   22   23 1    
    45   22   24 1    
    46   22  145 1    
    47   23  146 1    
    48   23  147 1    
    49   23  148 1    
    50   24   25 am   BACKBONE|DICT|INTERRES
    51   24  149 1    
    52   25   26 2    
    53   25   27 1    
    54   27   28 1    
    55   27   29 1    
    56   27  150 1    
    57   28  151 1    
    58   28  152 1    
    59   28  153 1    
    60   29   30 am   BACKBONE|DICT|INTERRES
    61   29  154 1    
    62   30   31 2    
    63   30   32 1    
    64   32   33 1    
    65   32   34 1    
    66   32  155 1    
    67   33  156 1    
    68   33  157 1    
    69   33  158 1    
    70   34   35 am   BACKBONE|DICT|INTERRES
    71   34  159 1    
    72   35   36 2    
    73   35   37 1    
    74   37   38 1    
    75   37   39 1    
    76   37  160 1    
    77   38  161 1    
    78   38  162 1    
    79   38  163 1    
    80   39   40 am   BACKBONE|DICT|INTERRES
    81   39  164 1    
    82   40   41 2    
    83   40   42 1    
    84   42   43 1    
    85   42   44 1    
    86   42  165 1    
    87   43  166 1    
    88   43  167 1    
    89   43  168 1    
    90   44   45 am   BACKBONE|DICT|INTERRES
    91   44  169 1    
    92   45   46 2    
    93   45   47 1    
    94   47   48 1    
    95   47   49 1    
    96   47  170 1    
    97   48  171 1    
    98   48  172 1    
    99   48  173 1    
   100   49   50 am   BACKBONE|DICT|INTERRES
   101   49  174 1    
   102   50   51 2    
   103   50   52 1    
   104   52   53 1    
   105   52   54 1    
   106   52  175 1    
   107   53  176 1    
   108   53  177 1    
   109   53  178 1    
   110   54   55 am   BACKBONE|DICT|INTERRES
   111   54  179 1    
   112   55   56 2    
   113   55   57 1    
   114   57   58 1    
   115   57   59 1    
   116   57  180 1    
   117   58  181 1    
   118   58  182 1    
   119   58  183 1    
   120   59   60 am   BACKBONE|DICT|INTERRES
   121   59  184 1    
   122   60   61 2    
   123   60   62 1    
   124   62   63 1    
   125   62   64 1    
   126   62  185 1    
   127   63  186 1    
   128   63  187 1    
   129   63  188 1    
   130   64   65 am   BACKBONE|DICT|INTERRES
   131   64  189 1    
   132   65   66 2    
   133   67   68 2    
   134   67   69 am   BACKBONE|DICT|INTERRES
   135   69   70 1    
   136   69  190 1    
   137   70   71 1    
   138   70   72 1    
   139   70  191 1    
   140   71  192 1    
   141   71  193 1    
   142   71  194 1    
   143   72   73 2    
   144   72   74 am   BACKBONE|DICT|INTERRES
   145   74   75 1    
   146   74  195 1    
   147   75   76 1    
   148   75   77 1    
   149   75  196 1    
   150   76  197 1    
   151   76  198 1    
   152   76  199 1    
   153   77   78 2    
   154   77   79 am   BACKBONE|DICT|INTERRES
   155   79   80 1    
   156   79  200 1    
   157   80   81 1    
   158   80   82 1    
   159   80  201 1    
   160   81  202 1    
   161   81  203 1    
   162   81  204 1    
   163   82   83 2    
   164   82   84 am   BACKBONE|DICT|INTERRES
   165   84   85 1    
   166   84  205 1    
   167   85   86 1    
   168   85   87 1    
   169   85  206 1    
   170   86  207 1    
   171   86  208 1    
   172   86  209 1    
   173   87   88 2    
   174   87   89 am   BACKBONE|DICT|INTERRES
   175   89   90 1    
   176   89  210 1    
   177   90   91 1    
   178   90   92 1    
   179   90  211 1    
   180   91  212 1    
   181   91  213 1    
   182   91  214 1    
   183   92   93 2    
   184   92   94 am   BACKBONE|DICT|INTERRES
   185   94   95 1    
   186   94  215 1    
   187   95   96 1    
   188   95   97 1    
   189   95  216 1    
   190   96  217 1    
   191   96  218 1    
   192   96  219 1    
   193   97   98 2    
   194   97   99 am   BACKBONE|DICT|INTERRES
   195   99  100 1    
   196   99  220 1    
   197  100  101 1    
   198  100  102 1    
   199  100  221 1    
   200  101  222 1    
   201  101  223 1    
   202  101  224 1    
   203  102  103 2    
   204  102  104 am   BACKBONE|DICT|INTERRES
   205  104  105 1    
   206  104  225 1    
   207  105  106 1    
   208  105  107 1    
   209  105  226 1    
   210  106  227 1    
   211  106  228 1    
   212  106  229 1    
   213  107  108 2    
   214  107  109 am   BACKBONE|DICT|INTERRES
   215  109  110 1    
   216  109  230 1    
   217  110  111 1    
   218  110  112 1    
   219  110  231 1    
   220  111  232 1    
   221  111  233 1    
   222  111  234 1    
   223  112  113 2    
   224  112  114 am   BACKBONE|DICT|INTERRES
   225  114  115 1    
   226  114  235 1    
   227  115  116 1    
   228  115  117 1    
   229  115  236 1    
   230  116  237 1    
   231  116  238 1    
   232  116  239 1    
   233  117  118 2    
   234  117  119 am   BACKBONE|DICT|INTERRES
   235  119  120 1    
   236  119  240 1    
   237  120  121 1    
   238  120  124 1    
   239  120  241 1    
   240  121  122 am   BACKBONE|DICT|INTERRES
   241  121  123 2    
   242  122  242 1    
   243  122  243 1    
   244  124  125 1    
   245  124  244 1    
   246  124  245 1    
   247  125  126 1    
   248  126  246 1    
   249  126  247 1    
@<TRIPOS>SUBSTRUCTURE
     1 UNK         1 GROUP             0       ****    0 ROOT    
