@<TRIPOS>MOLECULE
3R540
247   249    1
SMALL
USER_CHARGES


@<TRIPOS>ATOM
      1 CA         -3.8987  -11.0230  -48.3422 C.3       0 UNK        -0.1800 
      2 C          -2.5408  -11.3710  -47.7502 C.2       0 UNK         0.5000 
      3 O          -2.2007  -10.8900  -46.6689 O.2       0 UNK        -0.5000 
      4 N          -1.7668  -12.2158  -48.4457 N.am      1 UNK        -0.5000 
      5 CA         -0.4286  -12.6665  -48.0368 C.3       1 UNK         0.1400 
      6 C6          0.3152  -13.3975  -49.1814 C.3       23 UNK        -0.0398 
      7 S7         -0.5108  -14.9249  -49.7451 S.3       23 UNK        -0.2404 
      8 C8          0.5547  -15.3914  -51.1411 C.3       23 UNK        -0.0205 
      9 C9          0.3678  -16.8604  -51.4757 C.ar      23 UNK        -0.0193 
     10 C10        -0.7118  -17.2750  -52.2588 C.ar      23 UNK        -0.1150 
     11 C11        -0.9140  -18.6319  -52.5267 C.ar      23 UNK        -0.0193 
     12 C12        -0.0327  -19.5775  -51.9953 C.ar      23 UNK        -0.1150 
     13 C13         1.0498  -19.1741  -51.2079 C.ar      23 UNK        -0.0193 
     14 C14         1.2541  -17.8122  -50.9669 C.ar      23 UNK        -0.1150 
     15 C15         1.9682  -20.2152  -50.5805 C.3       23 UNK        -0.0205 
     16 S16         2.1020  -20.0359  -48.7688 S.3       23 UNK        -0.2404 
     17 C17         0.3542  -20.1166  -48.2392 C.3       23 UNK        -0.0398 
     18 CA         -0.0074  -21.4563  -47.5615 C.3       11 UNK         0.1400 
     19 N           0.8893  -21.7550  -46.4372 N.am      11 UNK        -0.5000 
     20 C           0.8152  -22.7769  -45.5760 C.2       10 UNK         0.5000 
     21 O          -0.1437  -23.5437  -45.4996 O.2       10 UNK        -0.5000 
     22 CA          2.0404  -23.0037  -44.6762 C.3       10 UNK         0.1400 
     23 CB          3.3710  -22.7468  -45.4095 C.3       10 UNK        -0.1800 
     24 N           1.9778  -22.1713  -43.4789 N.am      10 UNK        -0.5000 
     25 C           1.4154  -22.5509  -42.3237 C.2       9 UNK         0.5000 
     26 O           0.8413  -23.6278  -42.1585 O.2       9 UNK        -0.5000 
     27 CA          1.5376  -21.5734  -41.1415 C.3       9 UNK         0.1400 
     28 CB          2.9776  -21.5358  -40.6050 C.3       9 UNK        -0.1800 
     29 N           1.1133  -20.2211  -41.4918 N.am      9 UNK        -0.5000 
     30 C          -0.1627  -19.8490  -41.6609 C.2       8 UNK         0.5000 
     31 O          -1.1235  -20.5992  -41.4892 O.2       8 UNK        -0.5000 
     32 CA         -0.4048  -18.3912  -42.0973 C.3       8 UNK         0.1400 
     33 CB         -0.4018  -17.4643  -40.8719 C.3       8 UNK        -0.1800 
     34 N           0.5832  -17.9246  -43.0710 N.am      8 UNK        -0.5000 
     35 C           0.7440  -18.4383  -44.2980 C.2       7 UNK         0.5000 
     36 O           0.0177  -19.3091  -44.7711 O.2       7 UNK        -0.5000 
     37 CA          1.9401  -17.9340  -45.1228 C.3       7 UNK         0.1400 
     38 CB          1.5732  -16.6790  -45.9227 C.3       7 UNK        -0.1800 
     39 N           3.1094  -17.6578  -44.2907 N.am      7 UNK        -0.5000 
     40 C           3.8520  -18.6028  -43.6995 C.2       6 UNK         0.5000 
     41 O           3.6350  -19.8095  -43.8067 O.2       6 UNK        -0.5000 
     42 CA          5.0003  -18.1094  -42.8021 C.3       6 UNK         0.1400 
     43 CB          6.2135  -17.6929  -43.6470 C.3       6 UNK        -0.1800 
     44 N           4.5942  -16.9940  -41.9456 N.am      6 UNK        -0.5000 
     45 C           3.7029  -17.0991  -40.9503 C.2       5 UNK         0.5000 
     46 O           3.1542  -18.1549  -40.6352 O.2       5 UNK        -0.5000 
     47 CA          3.3360  -15.8022  -40.2046 C.3       5 UNK         0.1400 
     48 CB          4.3258  -15.5426  -39.0592 C.3       5 UNK        -0.1800 
     49 N           3.2614  -14.6125  -41.0603 N.am      5 UNK        -0.5000 
     50 C           2.4290  -14.4689  -42.0999 C.2       4 UNK         0.5000 
     51 O           1.7099  -15.3719  -42.5297 O.2       4 UNK        -0.5000 
     52 CA          2.4225  -13.1005  -42.8008 C.3       4 UNK         0.1400 
     53 CB          3.2891  -13.1465  -44.0684 C.3       4 UNK        -0.1800 
     54 N           1.0572  -12.7175  -43.1596 N.am      4 UNK        -0.5000 
     55 C           0.1431  -12.2727  -42.2826 C.2       3 UNK         0.5000 
     56 O           0.3990  -12.0327  -41.1016 O.2       3 UNK        -0.5000 
     57 CA         -1.2982  -12.0561  -42.7940 C.3       3 UNK         0.1400 
     58 CB         -1.5194  -10.5837  -43.1714 C.3       3 UNK        -0.1800 
     59 N          -1.6293  -12.8933  -43.9456 N.am      3 UNK        -0.5000 
     60 C          -1.7567  -14.2271  -43.9093 C.2       2 UNK         0.5000 
     61 O          -1.8026  -14.8703  -42.8621 O.2       2 UNK        -0.5000 
     62 CA         -1.8329  -14.9791  -45.2563 C.3       2 UNK         0.1400 
     63 CB         -3.1980  -15.6643  -45.4281 C.3       2 UNK        -0.1800 
     64 N          -1.5688  -14.1586  -46.4431 N.am      2 UNK        -0.5000 
     65 C          -0.4359  -13.5001  -46.7353 C.2       1 UNK         0.5000 
     66 O           0.5543  -13.4875  -46.0054 O.2       1 UNK        -0.5000 
     67 C          -1.5096  -21.4698  -47.2187 C.2       11 UNK         0.5000 
     68 O          -2.2985  -22.0300  -47.9806 O.2       11 UNK        -0.5000 
     69 N          -1.8763  -20.8824  -46.0747 N.am      12 UNK        -0.5000 
     70 CA         -3.2497  -20.7972  -45.5773 C.3       12 UNK         0.1400 
     71 CB         -3.2998  -19.7937  -44.4176 C.3       12 UNK        -0.1800 
     72 C          -3.8568  -22.1517  -45.1589 C.2       12 UNK         0.5000 
     73 O          -5.0769  -22.2339  -45.0194 O.2       12 UNK        -0.5000 
     74 N          -3.0201  -23.1820  -44.9826 N.am      13 UNK        -0.5000 
     75 CA         -3.4334  -24.5588  -44.7239 C.3       13 UNK         0.1400 
     76 CB         -2.6612  -25.0991  -43.5095 C.3       13 UNK        -0.1800 
     77 C          -3.1900  -25.4402  -45.9604 C.2       13 UNK         0.5000 
     78 O          -4.0772  -26.2009  -46.3463 O.2       13 UNK        -0.5000 
     79 N          -1.9962  -25.3252  -46.5584 N.am      14 UNK        -0.5000 
     80 CA         -1.5195  -26.1680  -47.6559 C.3       14 UNK         0.1400 
     81 CB         -0.0014  -25.9812  -47.8073 C.3       14 UNK        -0.1800 
     82 C          -2.2281  -25.9020  -48.9950 C.2       14 UNK         0.5000 
     83 O          -2.5445  -26.8528  -49.7109 O.2       14 UNK        -0.5000 
     84 N          -2.4582  -24.6213  -49.3062 N.am      15 UNK        -0.5000 
     85 CA         -3.1079  -24.1568  -50.5342 C.3       15 UNK         0.1400 
     86 CB         -2.1663  -23.1539  -51.2288 C.3       15 UNK        -0.1800 
     87 C          -4.4712  -23.5037  -50.2431 C.2       15 UNK         0.5000 
     88 O          -5.1190  -23.0226  -51.1718 O.2       15 UNK        -0.5000 
     89 N          -4.8538  -23.4222  -48.9578 N.am      16 UNK        -0.5000 
     90 CA         -6.0099  -22.6935  -48.4142 C.3       16 UNK         0.1400 
     91 CB         -7.3270  -23.3430  -48.8867 C.3       16 UNK        -0.1800 
     92 C          -5.9750  -21.1727  -48.7036 C.2       16 UNK         0.5000 
     93 O          -7.0063  -20.5081  -48.5957 O.2       16 UNK        -0.5000 
     94 N          -4.7995  -20.6649  -49.1119 N.am      17 UNK        -0.5000 
     95 CA         -4.5443  -19.3556  -49.7225 C.3       17 UNK         0.1400 
     96 CB         -4.6419  -18.2380  -48.6640 C.3       17 UNK        -0.1800 
     97 C          -5.4006  -19.0739  -50.9846 C.2       17 UNK         0.5000 
     98 O          -5.6387  -17.9095  -51.3099 O.2       17 UNK        -0.5000 
     99 N          -5.8582  -20.1309  -51.6741 N.am      18 UNK        -0.5000 
    100 CA        -6.7100  -20.0428  -52.8586 C.3       18 UNK         0.1400 
    101 CB        -7.4580  -21.3720  -53.0427 C.3       18 UNK        -0.1800 
    102 C         -5.8764  -19.7168  -54.1061 C.2       18 UNK         0.5000 
    103 O         -4.8386  -20.3446  -54.3183 O.2       18 UNK        -0.5000 
    104 N         -6.3632  -18.7757  -54.9265 N.am      19 UNK        -0.5000 
    105 CA        -5.6778  -18.2286  -56.1049 C.3       19 UNK         0.1400 
    106 CB        -6.5603  -17.1391  -56.7330 C.3       19 UNK        -0.1800 
    107 C         -5.2758  -19.2691  -57.1701 C.2       19 UNK         0.5000 
    108 O         -4.2675  -19.0864  -57.8527 O.2       19 UNK        -0.5000 
    109 N         -6.0620  -20.3462  -57.2852 N.am      20 UNK        -0.5000 
    110 CA        -5.8099  -21.4638  -58.1951 C.3       20 UNK         0.1400 
    111 CB        -7.1379  -22.1958  -58.4460 C.3       20 UNK        -0.1800 
    112 C         -4.7450  -22.4516  -57.6751 C.2       20 UNK         0.5000 
    113 O         -4.2490  -23.2608  -58.4601 O.2       20 UNK        -0.5000 
    114 N         -4.4291  -22.3960  -56.3744 N.am      21 UNK        -0.5000 
    115 CA        -3.5653  -23.3509  -55.6794 C.3       21 UNK         0.1400 
    116 CB        -4.2732  -23.7827  -54.3855 C.3       21 UNK        -0.1800 
    117 C         -2.1615  -22.7910  -55.3809 C.2       21 UNK         0.5000 
    118 O         -1.3601  -23.4970  -54.7674 O.2       21 UNK        -0.5000 
    119 N         -1.8718  -21.5524  -55.8048 N.am      22 UNK        -0.5000 
    120 CA        -0.5783  -20.8793  -55.5791 C.3       22 UNK         0.1400 
    121 C          0.6282  -21.4814  -56.3612 C.2       22 UNK         0.5000 
    122 N          0.4201  -22.3227  -57.3670 N.am      22 UNK        -0.7600 
    123 O          1.7761  -21.1783  -56.0482 O.2       22 UNK        -0.5000 
    124 C124       -0.6477  -19.3474  -55.8208 C.3       23 UNK        -0.0398 
    125 S125       -2.0506  -18.4578  -55.0622 S.3       23 UNK        -0.2404 
    126 C126       -2.1123  -19.0744  -53.3493 C.3       23 UNK        -0.0205 
    127 H127       -4.6929  -11.3141  -47.6547 H         1 UNK         0.0600 
    128 H128       -4.0686  -11.5295  -49.2927 H         1 UNK         0.0600 
    129 H129       -3.9694   -9.9486  -48.5115 H         1 UNK         0.0600 
    130 H130       -2.1014  -12.5913  -49.3222 H         1 UNK         0.3000 
    131 H131        0.1460  -11.7654  -47.8115 H         1 UNK         0.0600 
    132 H132        1.3326  -13.6444  -48.8716 H         1 UNK         0.0800 
    133 H133        0.4195  -12.7261  -50.0350 H         1 UNK         0.0800 
    134 H134        0.3167  -14.7722  -52.0073 H         1 UNK         0.0800 
    135 H135        1.5990  -15.1941  -50.8933 H         1 UNK         0.0800 
    136 H136       -1.4054  -16.5426  -52.6476 H         1 UNK         0.1150 
    137 H137       -0.2017  -20.6298  -52.1754 H         1 UNK         0.1150 
    138 H138        2.0821  -17.4974  -50.3473 H         1 UNK         0.1150 
    139 H139        1.6230  -21.2253  -50.8065 H         1 UNK         0.0800 
    140 H140        2.9617  -20.1217  -51.0206 H         1 UNK         0.0800 
    141 H141       -0.3037  -19.9375  -49.0901 H         1 UNK         0.0800 
    142 H142        0.1813  -19.2843  -47.5548 H         1 UNK         0.0800 
    143 H143        0.1491  -22.2515  -48.2931 H         1 UNK         0.0600 
    144 H144        1.7148  -21.1763  -46.3974 H         1 UNK         0.3000 
    145 H145        2.0343  -24.0576  -44.3894 H         1 UNK         0.0600 
    146 H146        4.2186  -23.0268  -44.7838 H         1 UNK         0.0600 
    147 H147        3.4345  -23.3395  -46.3232 H         1 UNK         0.0600 
    148 H148        3.5011  -21.7003  -45.6859 H         1 UNK         0.0600 
    149 H149        2.4422  -21.2681  -43.5308 H         1 UNK         0.3000 
    150 H150        0.8934  -21.9384  -40.3387 H         1 UNK         0.0600 
    151 H151        3.3208  -22.5353  -40.3351 H         1 UNK         0.0600 
    152 H152        3.0470  -20.9155  -39.7113 H         1 UNK         0.0600 
    153 H153        3.6751  -21.1355  -41.3415 H         1 UNK         0.0600 
    154 H154        1.8423  -19.5239  -41.5898 H         1 UNK         0.3000 
    155 H155       -1.3879  -18.3313  -42.5671 H         1 UNK         0.0600 
    156 H156       -0.5547  -16.4243  -41.1569 H         1 UNK         0.0600 
    157 H157       -1.2006  -17.7333  -40.1801 H         1 UNK         0.0600 
    158 H158        0.5381  -17.5227  -40.3241 H         1 UNK         0.0600 
    159 H159        1.1654  -17.1393  -42.7898 H         1 UNK         0.3000 
    160 H160        2.2052  -18.7196  -45.8333 H         1 UNK         0.0600 
    161 H161        1.3380  -15.8478  -45.2590 H         1 UNK         0.0600 
    162 H162        0.7052  -16.8552  -46.5594 H         1 UNK         0.0600 
    163 H163        2.3924  -16.3682  -46.5710 H         1 UNK         0.0600 
    164 H164        3.3122  -16.6881  -44.0991 H         1 UNK         0.3000 
    165 H165        5.3012  -18.9404  -42.1603 H         1 UNK         0.0600 
    166 H166        7.0578  -17.4180  -43.0147 H         1 UNK         0.0600 
    167 H167        6.5418  -18.5126  -44.2875 H         1 UNK         0.0600 
    168 H168        5.9861  -16.8431  -44.2918 H         1 UNK         0.0600 
    169 H169        4.9975  -16.0896  -42.1405 H         1 UNK         0.3000 
    170 H170        2.3465  -15.9490  -39.7674 H         1 UNK         0.0600 
    171 H171        4.3868  -16.4042  -38.3928 H         1 UNK         0.0600 
    172 H172        5.3313  -15.3443  -39.4323 H         1 UNK         0.0600 
    173 H173        4.0164  -14.6892  -38.4556 H         1 UNK         0.0600 
    174 H174        3.8336  -13.8280  -40.7827 H         1 UNK         0.3000 
    175 H175        2.8340  -12.3464  -42.1267 H         1 UNK         0.0600 
    176 H176        4.3276  -13.3724  -43.8240 H         1 UNK         0.0600 
    177 H177        2.9436  -13.9096  -44.7668 H         1 UNK         0.0600 
    178 H178        3.2776  -12.1888  -44.5890 H         1 UNK         0.0600 
    179 H179        0.7668  -12.9418  -44.1063 H         1 UNK         0.3000 
    180 H180       -1.9806  -12.3084  -41.9798 H         1 UNK         0.0600 
    181 H181       -0.8726  -10.2792  -43.9955 H         1 UNK         0.0600 
    182 H182       -1.3086   -9.9267  -42.3266 H         1 UNK         0.0600 
    183 H183       -2.5515  -10.4044  -43.4734 H         1 UNK         0.0600 
    184 H184       -1.6312  -12.4363  -44.8477 H         1 UNK         0.3000 
    185 H185       -1.0719  -15.7589  -45.2176 H         1 UNK         0.0600 
    186 H186       -3.4229  -16.3116  -44.5793 H         1 UNK         0.0600 
    187 H187       -4.0052  -14.9353  -45.5078 H         1 UNK         0.0600 
    188 H188       -3.2169  -16.2885  -46.3218 H         1 UNK         0.0600 
    189 H189       -2.3259  -14.0848  -47.1067 H         1 UNK         0.3000 
    190 H190       -1.1582  -20.4242  -45.5132 H         1 UNK         0.3000 
    191 H191       -3.8708  -20.4064  -46.3845 H         1 UNK         0.0600 
    192 H192       -2.7207  -20.1484  -43.5660 H         1 UNK         0.0600 
    193 H193       -4.3239  -19.6367  -44.0770 H         1 UNK         0.0600 
    194 H194       -2.9021  -18.8236  -44.7158 H         1 UNK         0.0600 
    195 H195       -2.0261  -23.0321  -45.1224 H         1 UNK         0.3000 
    196 H196       -4.4988  -24.6054  -44.4890 H         1 UNK         0.0600 
    197 H197       -2.9392  -26.1321  -43.2969 H         1 UNK         0.0600 
    198 H198       -2.8778  -24.5130  -42.6162 H         1 UNK         0.0600 
    199 H199       -1.5822  -25.0738  -43.6677 H         1 UNK         0.0600 
    200 H200       -1.3147  -24.6792  -46.1632 H         1 UNK         0.3000 
    201 H201       -1.7056  -27.2092  -47.3842 H         1 UNK         0.0600 
    202 H202        0.5212  -26.2395  -46.8861 H         1 UNK         0.0600 
    203 H203        0.2551  -24.9513  -48.0587 H         1 UNK         0.0600 
    204 H204        0.3951  -26.6211  -48.5967 H         1 UNK         0.0600 
    205 H205       -2.1834  -23.8928  -48.6553 H         1 UNK         0.3000 
    206 H206       -3.2915  -24.9863  -51.2195 H         1 UNK         0.0600 
    207 H207       -1.2161  -23.6217  -51.4864 H         1 UNK         0.0600 
    208 H208       -2.5984  -22.7775  -52.1558 H         1 UNK         0.0600 
    209 H209       -1.9531  -22.2898  -50.5995 H         1 UNK         0.0600 
    210 H210       -4.2379  -23.8339  -48.2722 H         1 UNK         0.3000 
    211 H211       -5.9637  -22.8060  -47.3331 H         1 UNK         0.0600 
    212 H212       -7.3310  -24.4148  -48.6886 H         1 UNK         0.0600 
    213 H213       -8.1836  -22.9153  -48.3648 H         1 UNK         0.0600 
    214 H214       -7.4915  -23.1980  -49.9548 H         1 UNK         0.0600 
    215 H215       -4.0053  -21.2939  -49.0939 H         1 UNK         0.3000 
    216 H216       -3.5106  -19.3849  -50.0704 H         1 UNK         0.0600 
    217 H217       -5.6578  -18.1297  -48.2836 H         1 UNK         0.0600 
    218 H218       -4.3423  -17.2750  -49.0791 H         1 UNK         0.0600 
    219 H219       -3.9850  -18.4379  -47.8178 H         1 UNK         0.0600 
    220 H220       -5.5839  -21.0671  -51.3928 H         1 UNK         0.3000 
    221 H221       -7.4493  -19.2545  -52.7015 H         1 UNK         0.0600 
    222 H222       -8.0517  -21.6150  -52.1612 H         1 UNK         0.0600 
    223 H223       -6.7718  -22.2007  -53.2203 H         1 UNK         0.0600 
    224 H224       -8.1396  -21.3231  -53.8926 H         1 UNK         0.0600 
    225 H225       -7.2362  -18.3310  -54.6823 H         1 UNK         0.3000 
    226 H226       -4.7622  -17.7525  -55.7531 H         1 UNK         0.0600 
    227 H227       -6.7625  -16.3362  -56.0237 H         1 UNK         0.0600 
    228 H228       -6.0706  -16.6893  -57.5979 H         1 UNK         0.0600 
    229 H229       -7.5169  -17.5407  -57.0694 H         1 UNK         0.0600 
    230 H230       -6.8695  -20.4186  -56.6839 H         1 UNK         0.3000 
    231 H231       -5.4539  -21.0696  -59.1493 H         1 UNK         0.0600 
    232 H232       -7.5469  -22.6141  -57.5254 H         1 UNK         0.0600 
    233 H233       -7.0050  -23.0187  -59.1497 H         1 UNK         0.0600 
    234 H234       -7.8843  -21.5247  -58.8716 H         1 UNK         0.0600 
    235 H235       -4.8160  -21.6566  -55.7953 H         1 UNK         0.3000 
    236 H236       -3.4223  -24.2445  -56.2899 H         1 UNK         0.0600 
    237 H237       -5.2467  -24.2254  -54.5957 H         1 UNK         0.0600 
    238 H238       -3.6901  -24.5262  -53.8411 H         1 UNK         0.0600 
    239 H239       -4.4301  -22.9348  -53.7199 H         1 UNK         0.0600 
    240 H240       -2.5848  -21.0179  -56.2799 H         1 UNK         0.3000 
    241 H241       -0.3317  -21.0289  -54.5278 H         1 UNK         0.0600 
    242 H242        1.2081  -22.7082  -57.8637 H         1 UNK         0.3800 
    243 H243       -0.5163  -22.5812  -57.6338 H         1 UNK         0.3800 
    244 H244       -0.6913  -19.1435  -56.8921 H         1 UNK         0.0800 
    245 H245        0.2682  -18.8732  -55.4631 H         1 UNK         0.0800 
    246 H246       -3.0153  -18.6813  -52.8818 H         1 UNK         0.0800 
    247 H247       -2.2252  -20.1591  -53.3435 H         1 UNK         0.0800 
@<TRIPOS>BOND
     1    1    2 1    
     2    1  127 1    
     3    1  128 1    
     4    1  129 1    
     5    2    3 2    
     6    2    4 am   BACKBONE|DICT|INTERRES
     7    4    5 1    
     8    4  130 1    
     9    5    6 1    
    10    5   65 1    
    11    5  131 1    
    12    6    7 1    
    13    6  132 1    
    14    6  133 1    
    15    7    8 1    
    16    8    9 1    
    17    8  134 1    
    18    8  135 1    
    19    9   10 ar   
    20    9   14 ar   
    21   10   11 ar   
    22   10  136 1    
    23   11   12 ar   
    24   11  126 1    
    25   12   13 ar   
    26   12  137 1    
    27   13   14 ar   
    28   13   15 1    
    29   14  138 1    
    30   15   16 1    
    31   15  139 1    
    32   15  140 1    
    33   16   17 1    
    34   17   18 1    
    35   17  141 1    
    36   17  142 1    
    37   18   19 1    
    38   18   67 1    
    39   18  143 1    
    40   19   20 am   BACKBONE|DICT|INTERRES
    41   19  144 1    
    42   20   21 2    
    43   20   22 1    
    44   22   23 1    
    45   22   24 1    
    46   22  145 1    
    47   23  146 1    
    48   23  147 1    
    49   23  148 1    
    50   24   25 am   BACKBONE|DICT|INTERRES
    51   24  149 1    
    52   25   26 2    
    53   25   27 1    
    54   27   28 1    
    55   27   29 1    
    56   27  150 1    
    57   28  151 1    
    58   28  152 1    
    59   28  153 1    
    60   29   30 am   BACKBONE|DICT|INTERRES
    61   29  154 1    
    62   30   31 2    
    63   30   32 1    
    64   32   33 1    
    65   32   34 1    
    66   32  155 1    
    67   33  156 1    
    68   33  157 1    
    69   33  158 1    
    70   34   35 am   BACKBONE|DICT|INTERRES
    71   34  159 1    
    72   35   36 2    
    73   35   37 1    
    74   37   38 1    
    75   37   39 1    
    76   37  160 1    
    77   38  161 1    
    78   38  162 1    
    79   38  163 1    
    80   39   40 am   BACKBONE|DICT|INTERRES
    81   39  164 1    
    82   40   41 2    
    83   40   42 1    
    84   42   43 1    
    85   42   44 1    
    86   42  165 1    
    87   43  166 1    
    88   43  167 1    
    89   43  168 1    
    90   44   45 am   BACKBONE|DICT|INTERRES
    91   44  169 1    
    92   45   46 2    
    93   45   47 1    
    94   47   48 1    
    95   47   49 1    
    96   47  170 1    
    97   48  171 1    
    98   48  172 1    
    99   48  173 1    
   100   49   50 am   BACKBONE|DICT|INTERRES
   101   49  174 1    
   102   50   51 2    
   103   50   52 1    
   104   52   53 1    
   105   52   54 1    
   106   52  175 1    
   107   53  176 1    
   108   53  177 1    
   109   53  178 1    
   110   54   55 am   BACKBONE|DICT|INTERRES
   111   54  179 1    
   112   55   56 2    
   113   55   57 1    
   114   57   58 1    
   115   57   59 1    
   116   57  180 1    
   117   58  181 1    
   118   58  182 1    
   119   58  183 1    
   120   59   60 am   BACKBONE|DICT|INTERRES
   121   59  184 1    
   122   60   61 2    
   123   60   62 1    
   124   62   63 1    
   125   62   64 1    
   126   62  185 1    
   127   63  186 1    
   128   63  187 1    
   129   63  188 1    
   130   64   65 am   BACKBONE|DICT|INTERRES
   131   64  189 1    
   132   65   66 2    
   133   67   68 2    
   134   67   69 am   BACKBONE|DICT|INTERRES
   135   69   70 1    
   136   69  190 1    
   137   70   71 1    
   138   70   72 1    
   139   70  191 1    
   140   71  192 1    
   141   71  193 1    
   142   71  194 1    
   143   72   73 2    
   144   72   74 am   BACKBONE|DICT|INTERRES
   145   74   75 1    
   146   74  195 1    
   147   75   76 1    
   148   75   77 1    
   149   75  196 1    
   150   76  197 1    
   151   76  198 1    
   152   76  199 1    
   153   77   78 2    
   154   77   79 am   BACKBONE|DICT|INTERRES
   155   79   80 1    
   156   79  200 1    
   157   80   81 1    
   158   80   82 1    
   159   80  201 1    
   160   81  202 1    
   161   81  203 1    
   162   81  204 1    
   163   82   83 2    
   164   82   84 am   BACKBONE|DICT|INTERRES
   165   84   85 1    
   166   84  205 1    
   167   85   86 1    
   168   85   87 1    
   169   85  206 1    
   170   86  207 1    
   171   86  208 1    
   172   86  209 1    
   173   87   88 2    
   174   87   89 am   BACKBONE|DICT|INTERRES
   175   89   90 1    
   176   89  210 1    
   177   90   91 1    
   178   90   92 1    
   179   90  211 1    
   180   91  212 1    
   181   91  213 1    
   182   91  214 1    
   183   92   93 2    
   184   92   94 am   BACKBONE|DICT|INTERRES
   185   94   95 1    
   186   94  215 1    
   187   95   96 1    
   188   95   97 1    
   189   95  216 1    
   190   96  217 1    
   191   96  218 1    
   192   96  219 1    
   193   97   98 2    
   194   97   99 am   BACKBONE|DICT|INTERRES
   195   99  100 1    
   196   99  220 1    
   197  100  101 1    
   198  100  102 1    
   199  100  221 1    
   200  101  222 1    
   201  101  223 1    
   202  101  224 1    
   203  102  103 2    
   204  102  104 am   BACKBONE|DICT|INTERRES
   205  104  105 1    
   206  104  225 1    
   207  105  106 1    
   208  105  107 1    
   209  105  226 1    
   210  106  227 1    
   211  106  228 1    
   212  106  229 1    
   213  107  108 2    
   214  107  109 am   BACKBONE|DICT|INTERRES
   215  109  110 1    
   216  109  230 1    
   217  110  111 1    
   218  110  112 1    
   219  110  231 1    
   220  111  232 1    
   221  111  233 1    
   222  111  234 1    
   223  112  113 2    
   224  112  114 am   BACKBONE|DICT|INTERRES
   225  114  115 1    
   226  114  235 1    
   227  115  116 1    
   228  115  117 1    
   229  115  236 1    
   230  116  237 1    
   231  116  238 1    
   232  116  239 1    
   233  117  118 2    
   234  117  119 am   BACKBONE|DICT|INTERRES
   235  119  120 1    
   236  119  240 1    
   237  120  121 1    
   238  120  124 1    
   239  120  241 1    
   240  121  122 am   BACKBONE|DICT|INTERRES
   241  121  123 2    
   242  122  242 1    
   243  122  243 1    
   244  124  125 1    
   245  124  244 1    
   246  124  245 1    
   247  125  126 1    
   248  126  246 1    
   249  126  247 1    
@<TRIPOS>SUBSTRUCTURE
     1 UNK         1 GROUP             0       ****    0 ROOT    
