@<TRIPOS>MOLECULE
3R540
247   249    1
SMALL
USER_CHARGES


@<TRIPOS>ATOM
      1 CA          4.6716  -18.2947  -47.6944 C.3       0 UNK        -0.1800 
      2 C           4.8449  -16.7949  -47.8844 C.2       0 UNK         0.5000 
      3 O           5.9744  -16.3156  -47.9811 O.2       0 UNK        -0.5000 
      4 N           3.7322  -16.0509  -47.9214 N.am      1 UNK        -0.5000 
      5 CA          3.6118  -14.5969  -48.1023 C.3       1 UNK         0.1400 
      6 C6          4.2494  -14.0890  -49.4287 C.3       23 UNK        -0.0398 
      7 S7          3.2113  -12.8535  -50.2834 S.3       23 UNK        -0.2404 
      8 C8          2.6622  -13.7730  -51.7593 C.3       23 UNK        -0.0205 
      9 C9          1.5474  -14.7605  -51.4430 C.ar      23 UNK        -0.0193 
     10 C10         0.2098  -14.3978  -51.6319 C.ar      23 UNK        -0.1150 
     11 C11        -0.8185  -15.3052  -51.3587 C.ar      23 UNK        -0.0193 
     12 C12        -0.4974  -16.5752  -50.8710 C.ar      23 UNK        -0.1150 
     13 C13         0.8339  -16.9553  -50.6885 C.ar      23 UNK        -0.0193 
     14 C14         1.8511  -16.0455  -50.9844 C.ar      23 UNK        -0.1150 
     15 C15         1.1797  -18.3481  -50.1861 C.3       23 UNK        -0.0205 
     16 S16         0.7430  -18.5495  -48.4343 S.3       23 UNK        -0.2404 
     17 C17        -0.9135  -19.3110  -48.5431 C.3       23 UNK        -0.0398 
     18 CA         -0.8577  -20.8055  -48.1631 C.3       11 UNK         0.1400 
     19 N          -0.4734  -21.0052  -46.7656 N.am      11 UNK        -0.5000 
     20 C          -0.0949  -22.1763  -46.2410 C.2       10 UNK         0.5000 
     21 O          -0.0304  -23.2249  -46.8814 O.2       10 UNK        -0.5000 
     22 CA          0.2206  -22.1795  -44.7376 C.3       10 UNK         0.1400 
     23 CB          1.6306  -21.6295  -44.4722 C.3       10 UNK        -0.1800 
     24 N          -0.7611  -21.4049  -43.9792 N.am      10 UNK        -0.5000 
     25 C          -2.0305  -21.7839  -43.7793 C.2       9 UNK         0.5000 
     26 O          -2.5050  -22.8384  -44.2030 O.2       9 UNK        -0.5000 
     27 CA         -2.9284  -20.7989  -43.0078 C.3       9 UNK         0.1400 
     28 CB         -2.6880  -20.9133  -41.4950 C.3       9 UNK        -0.1800 
     29 N          -2.7408  -19.4084  -43.4279 N.am      9 UNK        -0.5000 
     30 C          -3.0637  -18.9441  -44.6424 C.2       8 UNK         0.5000 
     31 O          -3.5452  -19.6401  -45.5332 O.2       8 UNK        -0.5000 
     32 CA         -2.7671  -17.4637  -44.9327 C.3       8 UNK         0.1400 
     33 CB         -3.8946  -16.5699  -44.3952 C.3       8 UNK        -0.1800 
     34 N          -1.4817  -16.9734  -44.4310 N.am      8 UNK        -0.5000 
     35 C          -0.2789  -17.5173  -44.6694 C.2       7 UNK         0.5000 
     36 O          -0.1191  -18.6389  -45.1521 O.2       7 UNK        -0.5000 
     37 CA          0.9476  -16.6475  -44.3167 C.3       7 UNK         0.1400 
     38 CB          2.1972  -17.0521  -45.1192 C.3       7 UNK        -0.1800 
     39 N           0.6954  -15.2049  -44.4450 N.am      7 UNK        -0.5000 
     40 C           0.2975  -14.5358  -45.5386 C.2       6 UNK         0.5000 
     41 O           0.1679  -15.0462  -46.6504 O.2       6 UNK        -0.5000 
     42 CA         -0.0508  -13.0532  -45.3496 C.3       6 UNK         0.1400 
     43 CB         -1.3909  -12.8934  -44.6079 C.3       6 UNK        -0.1800 
     44 N           1.0047  -12.3201  -44.6518 N.am      6 UNK        -0.5000 
     45 C           1.2483  -11.0137  -44.8359 C.2       5 UNK         0.5000 
     46 O           0.5598  -10.2951  -45.5643 O.2       5 UNK        -0.5000 
     47 CA          2.4648  -10.4053  -44.0999 C.3       5 UNK         0.1400 
     48 CB          2.3831   -8.8704  -43.9618 C.3       5 UNK        -0.1800 
     49 N           2.7414  -11.0258  -42.8021 N.am      5 UNK        -0.5000 
     50 C           1.9302  -11.0928  -41.7339 C.2       4 UNK         0.5000 
     51 O           0.8271  -10.5472  -41.6765 O.2       4 UNK        -0.5000 
     52 CA          2.4396  -11.9259  -40.5325 C.3       4 UNK         0.1400 
     53 CB          1.2879  -12.5587  -39.7231 C.3       4 UNK        -0.1800 
     54 N           3.4305  -12.9473  -40.9037 N.am      4 UNK        -0.5000 
     55 C           3.2541  -13.9489  -41.7769 C.2       3 UNK         0.5000 
     56 O           2.1897  -14.1749  -42.3535 O.2       3 UNK        -0.5000 
     57 CA          4.5002  -14.7828  -42.1243 C.3       3 UNK         0.1400 
     58 CB          4.2427  -16.2860  -41.9389 C.3       3 UNK        -0.1800 
     59 N           4.9672  -14.5270  -43.4913 N.am      3 UNK        -0.5000 
     60 C           5.4087  -13.3432  -43.9412 C.2       2 UNK         0.5000 
     61 O           5.3888  -12.3072  -43.2744 O.2       2 UNK        -0.5000 
     62 CA          5.9999  -13.3051  -45.3603 C.3       2 UNK         0.1400 
     63 CB          7.4684  -13.7551  -45.3395 C.3       2 UNK        -0.1800 
     64 N           5.2704  -14.1092  -46.3400 N.am      2 UNK        -0.5000 
     65 C           4.1035  -13.7619  -46.8956 C.2       1 UNK         0.5000 
     66 O           3.4408  -12.7982  -46.5166 O.2       1 UNK        -0.5000 
     67 C          -2.1713  -21.5295  -48.5177 C.2       11 UNK         0.5000 
     68 O          -2.2926  -22.0206  -49.6406 O.2       11 UNK        -0.5000 
     69 N          -3.1132  -21.6150  -47.5669 N.am      12 UNK        -0.5000 
     70 CA         -4.3247  -22.4254  -47.6805 C.3       12 UNK         0.1400 
     71 CB         -5.3169  -22.0726  -46.5635 C.3       12 UNK        -0.1800 
     72 C          -4.0069  -23.9270  -47.6754 C.2       12 UNK         0.5000 
     73 O          -4.5007  -24.6457  -48.5424 O.2       12 UNK        -0.5000 
     74 N          -3.1582  -24.3726  -46.7365 N.am      13 UNK        -0.5000 
     75 CA         -2.7041  -25.7623  -46.6226 C.3       13 UNK         0.1400 
     76 CB         -1.8440  -25.9283  -45.3615 C.3       13 UNK        -0.1800 
     77 C          -1.9503  -26.2569  -47.8718 C.2       13 UNK         0.5000 
     78 O          -2.1758  -27.3857  -48.3087 O.2       13 UNK        -0.5000 
     79 N          -1.1288  -25.3813  -48.4674 N.am      14 UNK        -0.5000 
     80 CA         -0.4290  -25.6043  -49.7361 C.3       14 UNK         0.1400 
     81 CB          0.5381  -24.4370  -49.9839 C.3       14 UNK        -0.1800 
     82 C          -1.3701  -25.7922  -50.9457 C.2       14 UNK         0.5000 
     83 O          -0.9809  -26.4408  -51.9171 O.2       14 UNK        -0.5000 
     84 N          -2.5906  -25.2494  -50.8550 N.am      15 UNK        -0.5000 
     85 CA         -3.6684  -25.3941  -51.8336 C.3       15 UNK         0.1400 
     86 CB         -4.2880  -24.0086  -52.0732 C.3       15 UNK        -0.1800 
     87 C          -4.7316  -26.4173  -51.3788 C.2       15 UNK         0.5000 
     88 O          -5.8286  -26.4365  -51.9394 O.2       15 UNK        -0.5000 
     89 N          -4.4146  -27.2287  -50.3556 N.am      16 UNK        -0.5000 
     90 CA         -5.2523  -28.2713  -49.7466 C.3       16 UNK         0.1400 
     91 CB         -5.4374  -29.4463  -50.7290 C.3       16 UNK        -0.1800 
     92 C          -6.5959  -27.7513  -49.1859 C.2       16 UNK         0.5000 
     93 O          -7.5717  -28.5015  -49.1339 O.2       16 UNK        -0.5000 
     94 N          -6.6238  -26.4666  -48.8011 N.am      17 UNK        -0.5000 
     95 CA         -7.7699  -25.6796  -48.3358 C.3       17 UNK         0.1400 
     96 CB         -8.3179  -26.2362  -47.0060 C.3       17 UNK        -0.1800 
     97 C          -8.8778  -25.4701  -49.3935 C.2       17 UNK         0.5000 
     98 O          -9.9602  -24.9969  -49.0433 O.2       17 UNK        -0.5000 
     99 N          -8.6005  -25.7898  -50.6668 N.am      18 UNK        -0.5000 
    100 CA        -9.5167  -25.5759  -51.7909 C.3       18 UNK         0.1400 
    101 CB        -9.1546  -26.5494  -52.9230 C.3       18 UNK        -0.1800 
    102 C         -9.4873  -24.1214  -52.2992 C.2       18 UNK         0.5000 
    103 O        -10.4484  -23.6729  -52.9252 O.2       18 UNK        -0.5000 
    104 N         -8.3884  -23.4176  -52.0129 N.am      19 UNK        -0.5000 
    105 CA        -8.1202  -22.0199  -52.3244 C.3       19 UNK         0.1400 
    106 CB        -7.8229  -21.8521  -53.8318 C.3       19 UNK        -0.1800 
    107 C         -6.9621  -21.5751  -51.4125 C.2       19 UNK         0.5000 
    108 O         -6.8311  -22.1021  -50.3045 O.2       19 UNK        -0.5000 
    109 N         -6.1195  -20.6591  -51.8974 N.am      20 UNK        -0.5000 
    110 CA        -4.8284  -20.3166  -51.3146 C.3       20 UNK         0.1400 
    111 CB        -4.9212  -18.9811  -50.5617 C.3       20 UNK        -0.1800 
    112 C         -3.8086  -20.2507  -52.4568 C.2       20 UNK         0.5000 
    113 O         -4.1538  -19.8081  -53.5560 O.2       20 UNK        -0.5000 
    114 N         -2.5795  -20.7024  -52.1867 N.am      21 UNK        -0.5000 
    115 CA        -1.4786  -20.8383  -53.1444 C.3       21 UNK         0.1400 
    116 CB        -0.4697  -21.8505  -52.5712 C.3       21 UNK        -0.1800 
    117 C         -0.8188  -19.4947  -53.5359 C.2       21 UNK         0.5000 
    118 O          0.4049  -19.3679  -53.4752 O.2       21 UNK        -0.5000 
    119 N         -1.6378  -18.5135  -53.9294 N.am      22 UNK        -0.5000 
    120 CA        -1.2174  -17.1564  -54.3208 C.3       22 UNK         0.1400 
    121 C         -0.5747  -17.0534  -55.7357 C.2       22 UNK         0.5000 
    122 N         -0.6062  -18.0914  -56.5628 N.am      22 UNK        -0.7600 
    123 O         -0.0327  -16.0102  -56.0906 O.2       22 UNK        -0.5000 
    124 C124       -2.3624  -16.1173  -54.1657 C.3       23 UNK        -0.0398 
    125 S125       -3.2043  -16.1620  -52.5439 S.3       23 UNK        -0.2404 
    126 C126       -2.2732  -14.9137  -51.5912 C.3       23 UNK        -0.0205 
    127 H127        5.2489  -18.6329  -46.8340 H         1 UNK         0.0600 
    128 H128        3.6296  -18.5667  -47.5285 H         1 UNK         0.0600 
    129 H129        5.0263  -18.8276  -48.5764 H         1 UNK         0.0600 
    130 H130        2.8427  -16.5216  -47.8217 H         1 UNK         0.3000 
    131 H131        2.5332  -14.4379  -48.1581 H         1 UNK         0.0600 
    132 H132        5.2375  -13.6551  -49.2628 H         1 UNK         0.0800 
    133 H133        4.4347  -14.9169  -50.1114 H         1 UNK         0.0800 
    134 H134        2.3160  -13.0547  -52.5040 H         1 UNK         0.0800 
    135 H135        3.5081  -14.2892  -52.2157 H         1 UNK         0.0800 
    136 H136       -0.0288  -13.4093  -51.9985 H         1 UNK         0.1150 
    137 H137       -1.2914  -17.2734  -50.6567 H         1 UNK         0.1150 
    138 H138        2.8812  -16.3423  -50.8563 H         1 UNK         0.1150 
    139 H139        0.6811  -19.1023  -50.7948 H         1 UNK         0.0800 
    140 H140        2.2489  -18.5353  -50.2955 H         1 UNK         0.0800 
    141 H141       -1.3080  -19.1903  -49.5519 H         1 UNK         0.0800 
    142 H142       -1.5904  -18.7687  -47.8808 H         1 UNK         0.0800 
    143 H143       -0.0830  -21.2702  -48.7774 H         1 UNK         0.0600 
    144 H144       -0.4491  -20.1749  -46.1771 H         1 UNK         0.3000 
    145 H145        0.1872  -23.2136  -44.3885 H         1 UNK         0.0600 
    146 H146        1.8772  -21.6721  -43.4113 H         1 UNK         0.0600 
    147 H147        2.3819  -22.2141  -45.0046 H         1 UNK         0.0600 
    148 H148        1.7313  -20.5938  -44.7987 H         1 UNK         0.0600 
    149 H149       -0.4774  -20.4821  -43.6816 H         1 UNK         0.3000 
    150 H150       -3.9664  -21.0739  -43.2073 H         1 UNK         0.0600 
    151 H151       -2.8355  -21.9387  -41.1533 H         1 UNK         0.0600 
    152 H152       -3.3811  -20.2834  -40.9372 H         1 UNK         0.0600 
    153 H153       -1.6734  -20.6193  -41.2232 H         1 UNK         0.0600 
    154 H154       -2.3317  -18.7728  -42.7590 H         1 UNK         0.3000 
    155 H155       -2.7409  -17.3519  -46.0185 H         1 UNK         0.0600 
    156 H156       -3.7643  -15.5353  -44.7128 H         1 UNK         0.0600 
    157 H157       -3.9352  -16.5846  -43.3054 H         1 UNK         0.0600 
    158 H158       -4.8663  -16.9007  -44.7648 H         1 UNK         0.0600 
    159 H159       -1.4948  -16.0588  -44.0057 H         1 UNK         0.3000 
    160 H160        1.1539  -16.8257  -43.2610 H         1 UNK         0.0600 
    161 H161        1.9797  -17.0701  -46.1847 H         1 UNK         0.0600 
    162 H162        2.5377  -18.0496  -44.8400 H         1 UNK         0.0600 
    163 H163        3.0232  -16.3611  -44.9547 H         1 UNK         0.0600 
    164 H164        0.8599  -14.6840  -43.5877 H         1 UNK         0.3000 
    165 H165       -0.1647  -12.6371  -46.3533 H         1 UNK         0.0600 
    166 H166       -1.3231  -13.2373  -43.5752 H         1 UNK         0.0600 
    167 H167       -1.7101  -11.8513  -44.5904 H         1 UNK         0.0600 
    168 H168       -2.1805  -13.4649  -45.0973 H         1 UNK         0.0600 
    169 H169        1.6222  -12.8587  -44.0567 H         1 UNK         0.3000 
    170 H170        3.3299  -10.6289  -44.7256 H         1 UNK         0.0600 
    171 H171        2.3329   -8.3912  -44.9402 H         1 UNK         0.0600 
    172 H172        1.5013   -8.5603  -43.4006 H         1 UNK         0.0600 
    173 H173        3.2618   -8.4731  -43.4537 H         1 UNK         0.0600 
    174 H174        3.6339  -11.5077  -42.7464 H         1 UNK         0.3000 
    175 H175        2.9562  -11.2230  -39.8776 H         1 UNK         0.0600 
    176 H176        1.6689  -13.1409  -38.8841 H         1 UNK         0.0600 
    177 H177        0.6306  -11.7921  -39.3112 H         1 UNK         0.0600 
    178 H178        0.6744  -13.2178  -40.3380 H         1 UNK         0.0600 
    179 H179        4.3547  -12.8099  -40.5178 H         1 UNK         0.3000 
    180 H180        5.3069  -14.5023  -41.4439 H         1 UNK         0.0600 
    181 H181        3.4645  -16.6517  -42.6059 H         1 UNK         0.0600 
    182 H182        3.9241  -16.5022  -40.9184 H         1 UNK         0.0600 
    183 H183        5.1453  -16.8676  -42.1267 H         1 UNK         0.0600 
    184 H184        4.9961  -15.3173  -44.1173 H         1 UNK         0.3000 
    185 H185        5.9763  -12.2651  -45.6935 H         1 UNK         0.0600 
    186 H186        7.9311  -13.6340  -46.3193 H         1 UNK         0.0600 
    187 H187        8.0500  -13.1633  -44.6313 H         1 UNK         0.0600 
    188 H188        7.5654  -14.8026  -45.0511 H         1 UNK         0.0600 
    189 H189        5.7543  -14.9090  -46.7397 H         1 UNK         0.3000 
    190 H190       -2.9915  -21.1063  -46.6964 H         1 UNK         0.3000 
    191 H191       -4.8021  -22.1947  -48.6324 H         1 UNK         0.0600 
    192 H192       -5.6334  -21.0321  -46.6365 H         1 UNK         0.0600 
    193 H193       -6.2148  -22.6884  -46.6300 H         1 UNK         0.0600 
    194 H194       -4.8847  -22.2236  -45.5740 H         1 UNK         0.0600 
    195 H195       -2.8120  -23.7250  -46.0363 H         1 UNK         0.3000 
    196 H196       -3.5926  -26.3870  -46.5094 H         1 UNK         0.0600 
    197 H197       -1.5167  -26.9622  -45.2450 H         1 UNK         0.0600 
    198 H198       -2.4043  -25.6620  -44.4651 H         1 UNK         0.0600 
    199 H199       -0.9518  -25.3033  -45.3958 H         1 UNK         0.0600 
    200 H200       -0.9464  -24.4972  -47.9995 H         1 UNK         0.3000 
    201 H201        0.1578  -26.5194  -49.6353 H         1 UNK         0.0600 
    202 H202        1.2782  -24.3624  -49.1870 H         1 UNK         0.0600 
    203 H203        0.0093  -23.4857  -50.0373 H         1 UNK         0.0600 
    204 H204        1.0804  -24.5658  -50.9214 H         1 UNK         0.0600 
    205 H205       -2.8355  -24.7501  -50.0087 H         1 UNK         0.3000 
    206 H206       -3.2718  -25.7540  -52.7846 H         1 UNK         0.0600 
    207 H207       -3.5453  -23.3188  -52.4708 H         1 UNK         0.0600 
    208 H208       -5.1059  -24.0505  -52.7934 H         1 UNK         0.0600 
    209 H209       -4.6787  -23.5857  -51.1478 H         1 UNK         0.0600 
    210 H210       -3.5051  -27.1120  -49.9241 H         1 UNK         0.3000 
    211 H211       -4.6938  -28.6440  -48.8870 H         1 UNK         0.0600 
    212 H212       -6.0442  -29.1616  -51.5892 H         1 UNK         0.0600 
    213 H213       -5.9308  -30.2899  -50.2450 H         1 UNK         0.0600 
    214 H214       -4.4771  -29.8047  -51.0997 H         1 UNK         0.0600 
    215 H215       -5.7586  -25.9336  -48.8757 H         1 UNK         0.3000 
    216 H216       -7.3732  -24.6840  -48.1316 H         1 UNK         0.0600 
    217 H217       -7.5217  -26.3548  -46.2711 H         1 UNK         0.0600 
    218 H218       -8.8005  -27.2047  -47.1391 H         1 UNK         0.0600 
    219 H219       -9.0574  -25.5614  -46.5736 H         1 UNK         0.0600 
    220 H220       -7.6854  -26.1635  -50.8940 H         1 UNK         0.3000 
    221 H221      -10.5361  -25.7970  -51.4677 H         1 UNK         0.0600 
    222 H222       -8.1582  -26.3531  -53.3203 H         1 UNK         0.0600 
    223 H223       -9.1806  -27.5834  -52.5784 H         1 UNK         0.0600 
    224 H224       -9.8595  -26.4637  -53.7508 H         1 UNK         0.0600 
    225 H225       -7.6844  -23.8497  -51.4287 H         1 UNK         0.3000 
    226 H226       -8.9959  -21.4248  -52.0589 H         1 UNK         0.0600 
    227 H227       -8.6386  -22.2360  -54.4442 H         1 UNK         0.0600 
    228 H228       -7.7001  -20.8024  -54.1001 H         1 UNK         0.0600 
    229 H229       -6.9147  -22.3817  -54.1228 H         1 UNK         0.0600 
    230 H230       -6.2538  -20.3093  -52.8376 H         1 UNK         0.3000 
    231 H231       -4.5138  -21.0962  -50.6219 H         1 UNK         0.0600 
    232 H232       -3.9522  -18.6951  -50.1508 H         1 UNK         0.0600 
    233 H233       -5.6213  -19.0494  -49.7289 H         1 UNK         0.0600 
    234 H234       -5.2540  -18.1739  -51.2153 H         1 UNK         0.0600 
    235 H235       -2.4053  -21.0935  -51.2642 H         1 UNK         0.3000 
    236 H236       -1.8826  -21.2659  -54.0642 H         1 UNK         0.0600 
    237 H237        0.3409  -22.0434  -53.2750 H         1 UNK         0.0600 
    238 H238       -0.0237  -21.4899  -51.6436 H         1 UNK         0.0600 
    239 H239       -0.9480  -22.8077  -52.3618 H         1 UNK         0.0600 
    240 H240       -2.6355  -18.7036  -53.9409 H         1 UNK         0.3000 
    241 H241       -0.4208  -16.8626  -53.6372 H         1 UNK         0.0600 
    242 H242       -1.0488  -18.9527  -56.2863 H         1 UNK         0.3800 
    243 H243       -0.1838  -18.0137  -57.4749 H         1 UNK         0.3800 
    244 H244       -1.9864  -15.1070  -54.3362 H         1 UNK         0.0800 
    245 H245       -3.1228  -16.2875  -54.9296 H         1 UNK         0.0800 
    246 H246       -2.3422  -13.9529  -52.1035 H         1 UNK         0.0800 
    247 H247       -2.7553  -14.7822  -50.6218 H         1 UNK         0.0800 
@<TRIPOS>BOND
     1    1    2 1    
     2    1  127 1    
     3    1  128 1    
     4    1  129 1    
     5    2    3 2    
     6    2    4 am   BACKBONE|DICT|INTERRES
     7    4    5 1    
     8    4  130 1    
     9    5    6 1    
    10    5   65 1    
    11    5  131 1    
    12    6    7 1    
    13    6  132 1    
    14    6  133 1    
    15    7    8 1    
    16    8    9 1    
    17    8  134 1    
    18    8  135 1    
    19    9   10 ar   
    20    9   14 ar   
    21   10   11 ar   
    22   10  136 1    
    23   11   12 ar   
    24   11  126 1    
    25   12   13 ar   
    26   12  137 1    
    27   13   14 ar   
    28   13   15 1    
    29   14  138 1    
    30   15   16 1    
    31   15  139 1    
    32   15  140 1    
    33   16   17 1    
    34   17   18 1    
    35   17  141 1    
    36   17  142 1    
    37   18   19 1    
    38   18   67 1    
    39   18  143 1    
    40   19   20 am   BACKBONE|DICT|INTERRES
    41   19  144 1    
    42   20   21 2    
    43   20   22 1    
    44   22   23 1    
    45   22   24 1    
    46   22  145 1    
    47   23  146 1    
    48   23  147 1    
    49   23  148 1    
    50   24   25 am   BACKBONE|DICT|INTERRES
    51   24  149 1    
    52   25   26 2    
    53   25   27 1    
    54   27   28 1    
    55   27   29 1    
    56   27  150 1    
    57   28  151 1    
    58   28  152 1    
    59   28  153 1    
    60   29   30 am   BACKBONE|DICT|INTERRES
    61   29  154 1    
    62   30   31 2    
    63   30   32 1    
    64   32   33 1    
    65   32   34 1    
    66   32  155 1    
    67   33  156 1    
    68   33  157 1    
    69   33  158 1    
    70   34   35 am   BACKBONE|DICT|INTERRES
    71   34  159 1    
    72   35   36 2    
    73   35   37 1    
    74   37   38 1    
    75   37   39 1    
    76   37  160 1    
    77   38  161 1    
    78   38  162 1    
    79   38  163 1    
    80   39   40 am   BACKBONE|DICT|INTERRES
    81   39  164 1    
    82   40   41 2    
    83   40   42 1    
    84   42   43 1    
    85   42   44 1    
    86   42  165 1    
    87   43  166 1    
    88   43  167 1    
    89   43  168 1    
    90   44   45 am   BACKBONE|DICT|INTERRES
    91   44  169 1    
    92   45   46 2    
    93   45   47 1    
    94   47   48 1    
    95   47   49 1    
    96   47  170 1    
    97   48  171 1    
    98   48  172 1    
    99   48  173 1    
   100   49   50 am   BACKBONE|DICT|INTERRES
   101   49  174 1    
   102   50   51 2    
   103   50   52 1    
   104   52   53 1    
   105   52   54 1    
   106   52  175 1    
   107   53  176 1    
   108   53  177 1    
   109   53  178 1    
   110   54   55 am   BACKBONE|DICT|INTERRES
   111   54  179 1    
   112   55   56 2    
   113   55   57 1    
   114   57   58 1    
   115   57   59 1    
   116   57  180 1    
   117   58  181 1    
   118   58  182 1    
   119   58  183 1    
   120   59   60 am   BACKBONE|DICT|INTERRES
   121   59  184 1    
   122   60   61 2    
   123   60   62 1    
   124   62   63 1    
   125   62   64 1    
   126   62  185 1    
   127   63  186 1    
   128   63  187 1    
   129   63  188 1    
   130   64   65 am   BACKBONE|DICT|INTERRES
   131   64  189 1    
   132   65   66 2    
   133   67   68 2    
   134   67   69 am   BACKBONE|DICT|INTERRES
   135   69   70 1    
   136   69  190 1    
   137   70   71 1    
   138   70   72 1    
   139   70  191 1    
   140   71  192 1    
   141   71  193 1    
   142   71  194 1    
   143   72   73 2    
   144   72   74 am   BACKBONE|DICT|INTERRES
   145   74   75 1    
   146   74  195 1    
   147   75   76 1    
   148   75   77 1    
   149   75  196 1    
   150   76  197 1    
   151   76  198 1    
   152   76  199 1    
   153   77   78 2    
   154   77   79 am   BACKBONE|DICT|INTERRES
   155   79   80 1    
   156   79  200 1    
   157   80   81 1    
   158   80   82 1    
   159   80  201 1    
   160   81  202 1    
   161   81  203 1    
   162   81  204 1    
   163   82   83 2    
   164   82   84 am   BACKBONE|DICT|INTERRES
   165   84   85 1    
   166   84  205 1    
   167   85   86 1    
   168   85   87 1    
   169   85  206 1    
   170   86  207 1    
   171   86  208 1    
   172   86  209 1    
   173   87   88 2    
   174   87   89 am   BACKBONE|DICT|INTERRES
   175   89   90 1    
   176   89  210 1    
   177   90   91 1    
   178   90   92 1    
   179   90  211 1    
   180   91  212 1    
   181   91  213 1    
   182   91  214 1    
   183   92   93 2    
   184   92   94 am   BACKBONE|DICT|INTERRES
   185   94   95 1    
   186   94  215 1    
   187   95   96 1    
   188   95   97 1    
   189   95  216 1    
   190   96  217 1    
   191   96  218 1    
   192   96  219 1    
   193   97   98 2    
   194   97   99 am   BACKBONE|DICT|INTERRES
   195   99  100 1    
   196   99  220 1    
   197  100  101 1    
   198  100  102 1    
   199  100  221 1    
   200  101  222 1    
   201  101  223 1    
   202  101  224 1    
   203  102  103 2    
   204  102  104 am   BACKBONE|DICT|INTERRES
   205  104  105 1    
   206  104  225 1    
   207  105  106 1    
   208  105  107 1    
   209  105  226 1    
   210  106  227 1    
   211  106  228 1    
   212  106  229 1    
   213  107  108 2    
   214  107  109 am   BACKBONE|DICT|INTERRES
   215  109  110 1    
   216  109  230 1    
   217  110  111 1    
   218  110  112 1    
   219  110  231 1    
   220  111  232 1    
   221  111  233 1    
   222  111  234 1    
   223  112  113 2    
   224  112  114 am   BACKBONE|DICT|INTERRES
   225  114  115 1    
   226  114  235 1    
   227  115  116 1    
   228  115  117 1    
   229  115  236 1    
   230  116  237 1    
   231  116  238 1    
   232  116  239 1    
   233  117  118 2    
   234  117  119 am   BACKBONE|DICT|INTERRES
   235  119  120 1    
   236  119  240 1    
   237  120  121 1    
   238  120  124 1    
   239  120  241 1    
   240  121  122 am   BACKBONE|DICT|INTERRES
   241  121  123 2    
   242  122  242 1    
   243  122  243 1    
   244  124  125 1    
   245  124  244 1    
   246  124  245 1    
   247  125  126 1    
   248  126  246 1    
   249  126  247 1    
@<TRIPOS>SUBSTRUCTURE
     1 UNK         1 GROUP             0       ****    0 ROOT    
