@<TRIPOS>MOLECULE
3R540
247   249    1
SMALL
USER_CHARGES


@<TRIPOS>ATOM
      1 CA         -1.1448  -15.5786  -42.4982 C.3       0 UNK        -0.1800 
      2 C          -2.0485  -15.1377  -43.6398 C.2       0 UNK         0.5000 
      3 O          -3.0881  -14.5230  -43.3991 O.2       0 UNK        -0.5000 
      4 N          -1.6561  -15.4538  -44.8780 N.am      1 UNK        -0.5000 
      5 CA         -2.3321  -15.0391  -46.1115 C.3       1 UNK         0.1400 
      6 C6         -1.8767  -15.8887  -47.3239 C.3       23 UNK        -0.0398 
      7 S7         -2.2902  -17.6512  -47.1072 S.3       23 UNK        -0.2404 
      8 C8         -2.2615  -18.2714  -48.8174 C.3       23 UNK        -0.0205 
      9 C9         -0.8555  -18.5733  -49.3157 C.ar      23 UNK        -0.0193 
     10 C10        -0.0350  -17.5409  -49.7752 C.ar      23 UNK        -0.1150 
     11 C11         1.2249  -17.8191  -50.3113 C.ar      23 UNK        -0.0193 
     12 C12         1.6752  -19.1417  -50.3683 C.ar      23 UNK        -0.1150 
     13 C13         0.8588  -20.1858  -49.9261 C.ar      23 UNK        -0.0193 
     14 C14        -0.4007  -19.8936  -49.3902 C.ar      23 UNK        -0.1150 
     15 C15         1.3057  -21.6322  -50.0985 C.3       23 UNK        -0.0205 
     16 S16         2.6040  -22.1471  -48.9290 S.3       23 UNK        -0.2404 
     17 C17         1.8363  -21.8161  -47.3107 C.3       23 UNK        -0.0398 
     18 CA          1.0801  -23.0175  -46.6943 C.3       11 UNK         0.1400 
     19 N           1.0358  -22.9089  -45.2308 N.am      11 UNK        -0.5000 
     20 C           0.5427  -23.8297  -44.3910 C.2       10 UNK         0.5000 
     21 O           0.1030  -24.9185  -44.7569 O.2       10 UNK        -0.5000 
     22 CA          0.4886  -23.4446  -42.9021 C.3       10 UNK         0.1400 
     23 CB          1.8292  -23.7374  -42.2119 C.3       10 UNK        -0.1800 
     24 N           0.1432  -22.0318  -42.7315 N.am      10 UNK        -0.5000 
     25 C          -1.1062  -21.5505  -42.8282 C.2       9 UNK         0.5000 
     26 O          -2.1005  -22.2634  -42.9636 O.2       9 UNK        -0.5000 
     27 CA         -1.2765  -20.0165  -42.8029 C.3       9 UNK         0.1400 
     28 CB         -1.4977  -19.5258  -41.3652 C.3       9 UNK        -0.1800 
     29 N          -0.1430  -19.2996  -43.3926 N.am      9 UNK        -0.5000 
     30 C           0.2267  -19.4069  -44.6786 C.2       8 UNK         0.5000 
     31 O          -0.4005  -20.0667  -45.5034 O.2       8 UNK        -0.5000 
     32 CA          1.5543  -18.7498  -45.1063 C.3       8 UNK         0.1400 
     33 CB          1.3142  -17.4722  -45.9171 C.3       8 UNK        -0.1800 
     34 N           2.4572  -18.4758  -43.9883 N.am      8 UNK        -0.5000 
     35 C           3.0278  -19.4304  -43.2357 C.2       7 UNK         0.5000 
     36 O           2.8525  -20.6339  -43.4350 O.2       7 UNK        -0.5000 
     37 CA          3.8975  -18.9840  -42.0428 C.3       7 UNK         0.1400 
     38 CB          5.3871  -19.0853  -42.4028 C.3       7 UNK        -0.1800 
     39 N           3.6157  -17.6261  -41.5729 N.am      7 UNK        -0.5000 
     40 C           2.4495  -17.2011  -41.0654 C.2       6 UNK         0.5000 
     41 O           1.4723  -17.9304  -40.8953 O.2       6 UNK        -0.5000 
     42 CA          2.3417  -15.6936  -40.7559 C.3       6 UNK         0.1400 
     43 CB          2.7156  -15.4196  -39.2918 C.3       6 UNK        -0.1800 
     44 N           3.1585  -14.8405  -41.6304 N.am      6 UNK        -0.5000 
     45 C           3.0731  -14.7965  -42.9677 C.2       5 UNK         0.5000 
     46 O           2.3011  -15.5002  -43.6222 O.2       5 UNK        -0.5000 
     47 CA          4.0698  -13.8673  -43.6867 C.3       5 UNK         0.1400 
     48 CB          5.4725  -14.4973  -43.6910 C.3       5 UNK        -0.1800 
     49 N           3.6757  -13.6105  -45.0723 N.am      5 UNK        -0.5000 
     50 C           2.6649  -12.8174  -45.4457 C.2       4 UNK         0.5000 
     51 O           2.0090  -12.1285  -44.6590 O.2       4 UNK        -0.5000 
     52 CA          2.3535  -12.7969  -46.9527 C.3       4 UNK         0.1400 
     53 CB          1.7853  -14.1490  -47.4161 C.3       4 UNK        -0.1800 
     54 N           1.3748  -11.7527  -47.2465 N.am      4 UNK        -0.5000 
     55 C           1.5267  -10.7761  -48.1499 C.2       3 UNK         0.5000 
     56 O           2.5183  -10.6735  -48.8751 O.2       3 UNK        -0.5000 
     57 CA          0.3988   -9.7218  -48.2483 C.3       3 UNK         0.1400 
     58 CB          0.2962   -9.0834  -49.6502 C.3       3 UNK        -0.1800 
     59 N          -0.9130  -10.2009  -47.7947 N.am      3 UNK        -0.5000 
     60 C          -1.6445  -11.1893  -48.3282 C.2       2 UNK         0.5000 
     61 O          -1.3279  -11.8334  -49.3306 O.2       2 UNK        -0.5000 
     62 CA         -2.9525  -11.5312  -47.5887 C.3       2 UNK         0.1400 
     63 CB         -4.1761  -11.2131  -48.4625 C.3       2 UNK        -0.1800 
     64 N          -3.0022  -12.9367  -47.1814 N.am      2 UNK        -0.5000 
     65 C          -2.1101  -13.5345  -46.3795 C.2       1 UNK         0.5000 
     66 O          -1.1467  -12.9481  -45.8774 O.2       1 UNK        -0.5000 
     67 C          -0.3324  -23.1822  -47.3016 C.2       11 UNK         0.5000 
     68 O          -0.5241  -23.9985  -48.2032 O.2       11 UNK        -0.5000 
     69 N          -1.3124  -22.4558  -46.7472 N.am      12 UNK        -0.5000 
     70 CA         -2.7317  -22.5060  -47.1029 C.3       12 UNK         0.1400 
     71 CB         -3.4676  -21.3732  -46.3739 C.3       12 UNK        -0.1800 
     72 C          -3.4280  -23.8558  -46.8314 C.2       12 UNK         0.5000 
     73 O          -4.5500  -24.0444  -47.3015 O.2       12 UNK        -0.5000 
     74 N          -2.7828  -24.7740  -46.0969 N.am      13 UNK        -0.5000 
     75 CA         -3.2458  -26.1552  -45.9530 C.3       13 UNK         0.1400 
     76 CB         -2.6400  -26.7791  -44.6871 C.3       13 UNK        -0.1800 
     77 C          -2.9039  -27.0016  -47.1949 C.2       13 UNK         0.5000 
     78 O          -3.6634  -27.9104  -47.5311 O.2       13 UNK        -0.5000 
     79 N          -1.7815  -26.6854  -47.8583 N.am      14 UNK        -0.5000 
     80 CA         -1.3541  -27.3076  -49.1103 C.3       14 UNK         0.1400 
     81 CB          0.1777  -27.2464  -49.2266 C.3       14 UNK        -0.1800 
     82 C          -2.0355  -26.6198  -50.3027 C.2       14 UNK         0.5000 
     83 O          -2.6827  -27.2889  -51.1092 O.2       14 UNK        -0.5000 
     84 N          -1.9363  -25.2848  -50.3587 N.am      15 UNK        -0.5000 
     85 CA         -2.6638  -24.4316  -51.2971 C.3       15 UNK         0.1400 
     86 CB         -1.8481  -23.1530  -51.5593 C.3       15 UNK        -0.1800 
     87 C          -4.0548  -24.1287  -50.7153 C.2       15 UNK         0.5000 
     88 O          -4.3095  -22.9921  -50.3199 O.2       15 UNK        -0.5000 
     89 N          -4.8878  -25.1766  -50.6396 N.am      16 UNK        -0.5000 
     90 CA         -6.1774  -25.3067  -49.9496 C.3       16 UNK         0.1400 
     91 CB         -6.9584  -26.4580  -50.6055 C.3       16 UNK        -0.1800 
     92 C          -7.0380  -24.0280  -49.8588 C.2       16 UNK         0.5000 
     93 O          -7.7946  -23.7267  -50.7831 O.2       16 UNK        -0.5000 
     94 N          -6.8915  -23.3114  -48.7358 N.am      17 UNK        -0.5000 
     95 CA         -7.5724  -22.0628  -48.3768 C.3       17 UNK         0.1400 
     96 CB         -9.0873  -22.2950  -48.1943 C.3       17 UNK        -0.1800 
     97 C          -7.2428  -20.8988  -49.3362 C.2       17 UNK         0.5000 
     98 O          -8.1361  -20.1443  -49.7251 O.2       17 UNK        -0.5000 
     99 N          -5.9542  -20.7850  -49.6878 N.am      18 UNK        -0.5000 
    100 CA        -5.3610  -19.8374  -50.6357 C.3       18 UNK         0.1400 
    101 CB        -5.5812  -18.3743  -50.1945 C.3       18 UNK        -0.1800 
    102 C         -5.8111  -20.1247  -52.0806 C.2       18 UNK         0.5000 
    103 O         -6.2330  -19.2149  -52.7996 O.2       18 UNK        -0.5000 
    104 N         -5.7169  -21.4038  -52.4719 N.am      19 UNK        -0.5000 
    105 CA        -6.0071  -21.9087  -53.8142 C.3       19 UNK         0.1400 
    106 CB        -5.8843  -23.4417  -53.8270 C.3       19 UNK        -0.1800 
    107 C         -5.0691  -21.2719  -54.8554 C.2       19 UNK         0.5000 
    108 O         -3.8769  -21.5832  -54.8669 O.2       19 UNK        -0.5000 
    109 N         -5.6268  -20.3664  -55.6728 N.am      20 UNK        -0.5000 
    110 CA        -4.9288  -19.4975  -56.6283 C.3       20 UNK         0.1400 
    111 CB        -4.3158  -20.3200  -57.7816 C.3       20 UNK        -0.1800 
    112 C         -3.9097  -18.5668  -55.9343 C.2       20 UNK         0.5000 
    113 O         -2.7987  -18.3793  -56.4360 O.2       20 UNK        -0.5000 
    114 N         -4.3062  -18.0232  -54.7721 N.am      21 UNK        -0.5000 
    115 CA        -3.5013  -17.2152  -53.8535 C.3       21 UNK         0.1400 
    116 CB        -3.1373  -15.8498  -54.4804 C.3       21 UNK        -0.1800 
    117 C         -2.2967  -18.0280  -53.3421 C.2       21 UNK         0.5000 
    118 O         -2.5012  -18.9669  -52.5718 O.2       21 UNK        -0.5000 
    119 N         -1.0869  -17.6761  -53.7931 N.am      22 UNK        -0.5000 
    120 CA         0.1475  -18.4294  -53.5268 C.3       22 UNK         0.1400 
    121 C          0.3440  -19.6757  -54.4398 C.2       22 UNK         0.5000 
    122 N         -0.4661  -19.8933  -55.4694 N.am      22 UNK        -0.7600 
    123 O          1.2534  -20.4673  -54.2073 O.2       22 UNK        -0.5000 
    124 C124        1.4120  -17.5252  -53.5472 C.3       23 UNK        -0.0398 
    125 S125        1.3093  -16.0670  -52.4474 S.3       23 UNK        -0.2404 
    126 C126        2.0574  -16.6958  -50.9068 C.3       23 UNK        -0.0205 
    127 H127       -0.6571  -14.7080  -42.0607 H         1 UNK         0.0600 
    128 H128       -0.3724  -16.2709  -42.8349 H         1 UNK         0.0600 
    129 H129       -1.7286  -16.0703  -41.7207 H         1 UNK         0.0600 
    130 H130       -0.7816  -15.9378  -45.0065 H         1 UNK         0.3000 
    131 H131       -3.4048  -15.1919  -45.9725 H         1 UNK         0.0600 
    132 H132       -0.8023  -15.7989  -47.4820 H         1 UNK         0.0800 
    133 H133       -2.3543  -15.5350  -48.2392 H         1 UNK         0.0800 
    134 H134       -2.7465  -17.5591  -49.4857 H         1 UNK         0.0800 
    135 H135       -2.8652  -19.1785  -48.8550 H         1 UNK         0.0800 
    136 H136       -0.3928  -16.5217  -49.7611 H         1 UNK         0.1150 
    137 H137        2.6387  -19.3666  -50.8037 H         1 UNK         0.1150 
    138 H138       -1.0431  -20.6969  -49.0605 H         1 UNK         0.1150 
    139 H139        0.4601  -22.3098  -50.0033 H         1 UNK         0.0800 
    140 H140        1.6784  -21.7676  -51.1149 H         1 UNK         0.0800 
    141 H141        1.2057  -20.9301  -47.3647 H         1 UNK         0.0800 
    142 H142        2.6658  -21.5426  -46.6572 H         1 UNK         0.0800 
    143 H143        1.6383  -23.9288  -46.9191 H         1 UNK         0.0600 
    144 H144        1.3782  -22.0465  -44.8320 H         1 UNK         0.3000 
    145 H145       -0.2770  -24.0589  -42.4230 H         1 UNK         0.0600 
    146 H146        1.7915  -23.4816  -41.1529 H         1 UNK         0.0600 
    147 H147        2.0775  -24.7971  -42.2818 H         1 UNK         0.0600 
    148 H148        2.6505  -23.1798  -42.6626 H         1 UNK         0.0600 
    149 H149        0.9158  -21.3832  -42.6491 H         1 UNK         0.3000 
    150 H150       -2.1653  -19.7728  -43.3891 H         1 UNK         0.0600 
    151 H151       -2.3647  -20.0117  -40.9159 H         1 UNK         0.0600 
    152 H152       -1.6770  -18.4517  -41.3366 H         1 UNK         0.0600 
    153 H153       -0.6365  -19.7387  -40.7308 H         1 UNK         0.0600 
    154 H154        0.4370  -18.7664  -42.7567 H         1 UNK         0.3000 
    155 H155        2.0686  -19.4512  -45.7618 H         1 UNK         0.0600 
    156 H156        0.7660  -16.7280  -45.3434 H         1 UNK         0.0600 
    157 H157        0.7411  -17.6891  -46.8187 H         1 UNK         0.0600 
    158 H158        2.2570  -17.0269  -46.2332 H         1 UNK         0.0600 
    159 H159        2.6015  -17.4983  -43.7558 H         1 UNK         0.3000 
    160 H160        3.6944  -19.6711  -41.2190 H         1 UNK         0.0600 
    161 H161        5.6537  -18.3984  -43.2072 H         1 UNK         0.0600 
    162 H162        5.6421  -20.0931  -42.7334 H         1 UNK         0.0600 
    163 H163        6.0177  -18.8582  -41.5431 H         1 UNK         0.0600 
    164 H164        4.3562  -16.9497  -41.6833 H         1 UNK         0.3000 
    165 H165        1.2991  -15.4074  -40.8974 H         1 UNK         0.0600 
    166 H166        2.5491  -14.3744  -39.0305 H         1 UNK         0.0600 
    167 H167        2.1092  -16.0224  -38.6143 H         1 UNK         0.0600 
    168 H168        3.7620  -15.6542  -39.0927 H         1 UNK         0.0600 
    169 H169        3.8291  -14.2440  -41.1673 H         1 UNK         0.3000 
    170 H170        4.1087  -12.9172  -43.1498 H         1 UNK         0.0600 
    171 H171        5.8374  -14.6598  -42.6762 H         1 UNK         0.0600 
    172 H172        5.4794  -15.4621  -44.2004 H         1 UNK         0.0600 
    173 H173        6.1936  -13.8499  -44.1905 H         1 UNK         0.0600 
    174 H174        4.1426  -14.1647  -45.7745 H         1 UNK         0.3000 
    175 H175        3.2888  -12.6061  -47.4827 H         1 UNK         0.0600 
    176 H176        0.9674  -14.4741  -46.7740 H         1 UNK         0.0600 
    177 H177        1.4106  -14.0960  -48.4386 H         1 UNK         0.0600 
    178 H178        2.5504  -14.9248  -47.3916 H         1 UNK         0.0600 
    179 H179        0.5479  -11.7681  -46.6593 H         1 UNK         0.3000 
    180 H180        0.6804   -8.9292  -47.5538 H         1 UNK         0.0600 
    181 H181        0.0967   -9.8277  -50.4215 H         1 UNK         0.0600 
    182 H182        1.2238   -8.5769  -49.9193 H         1 UNK         0.0600 
    183 H183       -0.4991   -8.3390  -49.6879 H         1 UNK         0.0600 
    184 H184       -1.2599   -9.7573  -46.9553 H         1 UNK         0.3000 
    185 H185       -3.0176  -10.9250  -46.6827 H         1 UNK         0.0600 
    186 H186       -4.1736  -10.1665  -48.7699 H         1 UNK         0.0600 
    187 H187       -4.1933  -11.8207  -49.3683 H         1 UNK         0.0600 
    188 H188       -5.1057  -11.3897  -47.9212 H         1 UNK         0.0600 
    189 H189       -3.7567  -13.4824  -47.5710 H         1 UNK         0.3000 
    190 H190       -1.0513  -21.7487  -46.0641 H         1 UNK         0.3000 
    191 H191       -2.8034  -22.3208  -48.1758 H         1 UNK         0.0600 
    192 H192       -3.4447  -21.5111  -45.2927 H         1 UNK         0.0600 
    193 H193       -4.5133  -21.3201  -46.6795 H         1 UNK         0.0600 
    194 H194       -3.0169  -20.4076  -46.5947 H         1 UNK         0.0600 
    195 H195       -1.8718  -24.5551  -45.7134 H         1 UNK         0.3000 
    196 H196       -4.3316  -26.1534  -45.8346 H         1 UNK         0.0600 
    197 H197       -3.0784  -27.7585  -44.4922 H         1 UNK         0.0600 
    198 H198       -2.8250  -26.1582  -43.8103 H         1 UNK         0.0600 
    199 H199       -1.5632  -26.9203  -44.7799 H         1 UNK         0.0600 
    200 H200       -1.2465  -25.8811  -47.5551 H         1 UNK         0.3000 
    201 H201       -1.6471  -28.3597  -49.1111 H         1 UNK         0.0600 
    202 H202        0.6546  -27.7682  -48.3968 H         1 UNK         0.0600 
    203 H203        0.5501  -26.2217  -49.2331 H         1 UNK         0.0600 
    204 H204        0.5161  -27.7228  -50.1474 H         1 UNK         0.0600 
    205 H205       -1.4133  -24.8073  -49.6278 H         1 UNK         0.3000 
    206 H206       -2.7942  -24.9481  -52.2504 H         1 UNK         0.0600 
    207 H207       -0.8573  -23.3870  -51.9487 H         1 UNK         0.0600 
    208 H208       -2.3453  -22.5177  -52.2942 H         1 UNK         0.0600 
    209 H209       -1.7246  -22.5626  -50.6515 H         1 UNK         0.0600 
    210 H210       -4.5169  -26.0499  -50.9928 H         1 UNK         0.3000 
    211 H211       -5.9498  -25.6213  -48.9298 H         1 UNK         0.0600 
    212 H212       -7.1407  -26.2669  -51.6638 H         1 UNK         0.0600 
    213 H213       -7.9273  -26.5994  -50.1247 H         1 UNK         0.0600 
    214 H214       -6.4163  -27.4004  -50.5236 H         1 UNK         0.0600 
    215 H215       -6.1624  -23.6125  -48.0904 H         1 UNK         0.3000 
    216 H216       -7.1701  -21.7716  -47.4055 H         1 UNK         0.0600 
    217 H217       -9.5732  -21.4039  -47.7955 H         1 UNK         0.0600 
    218 H218       -9.2799  -23.1085  -47.4949 H         1 UNK         0.0600 
    219 H219       -9.5778  -22.5393  -49.1369 H         1 UNK         0.0600 
    220 H220       -5.3367  -21.5450  -49.4192 H         1 UNK         0.3000 
    221 H221       -4.2868  -20.0260  -50.6157 H         1 UNK         0.0600 
    222 H222       -6.6223  -18.0676  -50.2961 H         1 UNK         0.0600 
    223 H223       -5.2887  -18.2256  -49.1552 H         1 UNK         0.0600 
    224 H224       -4.9834  -17.6949  -50.8017 H         1 UNK         0.0600 
    225 H225       -5.3486  -22.0702  -51.8031 H         1 UNK         0.3000 
    226 H226       -7.0405  -21.6501  -54.0537 H         1 UNK         0.0600 
    227 H227       -6.5736  -23.9031  -53.1213 H         1 UNK         0.0600 
    228 H228       -6.1194  -23.8405  -54.8145 H         1 UNK         0.0600 
    229 H229       -4.8757  -23.7698  -53.5757 H         1 UNK         0.0600 
    230 H230       -6.6116  -20.1705  -55.5558 H         1 UNK         0.3000 
    231 H231       -5.6879  -18.8441  -57.0606 H         1 UNK         0.0600 
    232 H232       -5.0634  -20.9594  -58.2508 H         1 UNK         0.0600 
    233 H233       -3.4978  -20.9547  -57.4398 H         1 UNK         0.0600 
    234 H234       -3.9168  -19.6653  -58.5571 H         1 UNK         0.0600 
    235 H235       -5.1978  -18.3242  -54.3930 H         1 UNK         0.3000 
    236 H236       -4.1295  -17.0177  -52.9843 H         1 UNK         0.0600 
    237 H237       -2.5702  -15.2371  -53.7783 H         1 UNK         0.0600 
    238 H238       -2.5433  -15.9481  -55.3892 H         1 UNK         0.0600 
    239 H239       -4.0373  -15.2912  -54.7376 H         1 UNK         0.0600 
    240 H240       -1.0108  -16.9035  -54.4373 H         1 UNK         0.3000 
    241 H241        0.0559  -18.8417  -52.5237 H         1 UNK         0.0600 
    242 H242       -0.3258  -20.7115  -56.0393 H         1 UNK         0.3800 
    243 H243       -1.2332  -19.2631  -55.6836 H         1 UNK         0.3800 
    244 H244        2.2984  -18.1012  -53.2758 H         1 UNK         0.0800 
    245 H245        1.5914  -17.1617  -54.5601 H         1 UNK         0.0800 
    246 H246        2.1293  -15.8801  -50.1863 H         1 UNK         0.0800 
    247 H247        3.0788  -17.0252  -51.1033 H         1 UNK         0.0800 
@<TRIPOS>BOND
     1    1    2 1    
     2    1  127 1    
     3    1  128 1    
     4    1  129 1    
     5    2    3 2    
     6    2    4 am   BACKBONE|DICT|INTERRES
     7    4    5 1    
     8    4  130 1    
     9    5    6 1    
    10    5   65 1    
    11    5  131 1    
    12    6    7 1    
    13    6  132 1    
    14    6  133 1    
    15    7    8 1    
    16    8    9 1    
    17    8  134 1    
    18    8  135 1    
    19    9   10 ar   
    20    9   14 ar   
    21   10   11 ar   
    22   10  136 1    
    23   11   12 ar   
    24   11  126 1    
    25   12   13 ar   
    26   12  137 1    
    27   13   14 ar   
    28   13   15 1    
    29   14  138 1    
    30   15   16 1    
    31   15  139 1    
    32   15  140 1    
    33   16   17 1    
    34   17   18 1    
    35   17  141 1    
    36   17  142 1    
    37   18   19 1    
    38   18   67 1    
    39   18  143 1    
    40   19   20 am   BACKBONE|DICT|INTERRES
    41   19  144 1    
    42   20   21 2    
    43   20   22 1    
    44   22   23 1    
    45   22   24 1    
    46   22  145 1    
    47   23  146 1    
    48   23  147 1    
    49   23  148 1    
    50   24   25 am   BACKBONE|DICT|INTERRES
    51   24  149 1    
    52   25   26 2    
    53   25   27 1    
    54   27   28 1    
    55   27   29 1    
    56   27  150 1    
    57   28  151 1    
    58   28  152 1    
    59   28  153 1    
    60   29   30 am   BACKBONE|DICT|INTERRES
    61   29  154 1    
    62   30   31 2    
    63   30   32 1    
    64   32   33 1    
    65   32   34 1    
    66   32  155 1    
    67   33  156 1    
    68   33  157 1    
    69   33  158 1    
    70   34   35 am   BACKBONE|DICT|INTERRES
    71   34  159 1    
    72   35   36 2    
    73   35   37 1    
    74   37   38 1    
    75   37   39 1    
    76   37  160 1    
    77   38  161 1    
    78   38  162 1    
    79   38  163 1    
    80   39   40 am   BACKBONE|DICT|INTERRES
    81   39  164 1    
    82   40   41 2    
    83   40   42 1    
    84   42   43 1    
    85   42   44 1    
    86   42  165 1    
    87   43  166 1    
    88   43  167 1    
    89   43  168 1    
    90   44   45 am   BACKBONE|DICT|INTERRES
    91   44  169 1    
    92   45   46 2    
    93   45   47 1    
    94   47   48 1    
    95   47   49 1    
    96   47  170 1    
    97   48  171 1    
    98   48  172 1    
    99   48  173 1    
   100   49   50 am   BACKBONE|DICT|INTERRES
   101   49  174 1    
   102   50   51 2    
   103   50   52 1    
   104   52   53 1    
   105   52   54 1    
   106   52  175 1    
   107   53  176 1    
   108   53  177 1    
   109   53  178 1    
   110   54   55 am   BACKBONE|DICT|INTERRES
   111   54  179 1    
   112   55   56 2    
   113   55   57 1    
   114   57   58 1    
   115   57   59 1    
   116   57  180 1    
   117   58  181 1    
   118   58  182 1    
   119   58  183 1    
   120   59   60 am   BACKBONE|DICT|INTERRES
   121   59  184 1    
   122   60   61 2    
   123   60   62 1    
   124   62   63 1    
   125   62   64 1    
   126   62  185 1    
   127   63  186 1    
   128   63  187 1    
   129   63  188 1    
   130   64   65 am   BACKBONE|DICT|INTERRES
   131   64  189 1    
   132   65   66 2    
   133   67   68 2    
   134   67   69 am   BACKBONE|DICT|INTERRES
   135   69   70 1    
   136   69  190 1    
   137   70   71 1    
   138   70   72 1    
   139   70  191 1    
   140   71  192 1    
   141   71  193 1    
   142   71  194 1    
   143   72   73 2    
   144   72   74 am   BACKBONE|DICT|INTERRES
   145   74   75 1    
   146   74  195 1    
   147   75   76 1    
   148   75   77 1    
   149   75  196 1    
   150   76  197 1    
   151   76  198 1    
   152   76  199 1    
   153   77   78 2    
   154   77   79 am   BACKBONE|DICT|INTERRES
   155   79   80 1    
   156   79  200 1    
   157   80   81 1    
   158   80   82 1    
   159   80  201 1    
   160   81  202 1    
   161   81  203 1    
   162   81  204 1    
   163   82   83 2    
   164   82   84 am   BACKBONE|DICT|INTERRES
   165   84   85 1    
   166   84  205 1    
   167   85   86 1    
   168   85   87 1    
   169   85  206 1    
   170   86  207 1    
   171   86  208 1    
   172   86  209 1    
   173   87   88 2    
   174   87   89 am   BACKBONE|DICT|INTERRES
   175   89   90 1    
   176   89  210 1    
   177   90   91 1    
   178   90   92 1    
   179   90  211 1    
   180   91  212 1    
   181   91  213 1    
   182   91  214 1    
   183   92   93 2    
   184   92   94 am   BACKBONE|DICT|INTERRES
   185   94   95 1    
   186   94  215 1    
   187   95   96 1    
   188   95   97 1    
   189   95  216 1    
   190   96  217 1    
   191   96  218 1    
   192   96  219 1    
   193   97   98 2    
   194   97   99 am   BACKBONE|DICT|INTERRES
   195   99  100 1    
   196   99  220 1    
   197  100  101 1    
   198  100  102 1    
   199  100  221 1    
   200  101  222 1    
   201  101  223 1    
   202  101  224 1    
   203  102  103 2    
   204  102  104 am   BACKBONE|DICT|INTERRES
   205  104  105 1    
   206  104  225 1    
   207  105  106 1    
   208  105  107 1    
   209  105  226 1    
   210  106  227 1    
   211  106  228 1    
   212  106  229 1    
   213  107  108 2    
   214  107  109 am   BACKBONE|DICT|INTERRES
   215  109  110 1    
   216  109  230 1    
   217  110  111 1    
   218  110  112 1    
   219  110  231 1    
   220  111  232 1    
   221  111  233 1    
   222  111  234 1    
   223  112  113 2    
   224  112  114 am   BACKBONE|DICT|INTERRES
   225  114  115 1    
   226  114  235 1    
   227  115  116 1    
   228  115  117 1    
   229  115  236 1    
   230  116  237 1    
   231  116  238 1    
   232  116  239 1    
   233  117  118 2    
   234  117  119 am   BACKBONE|DICT|INTERRES
   235  119  120 1    
   236  119  240 1    
   237  120  121 1    
   238  120  124 1    
   239  120  241 1    
   240  121  122 am   BACKBONE|DICT|INTERRES
   241  121  123 2    
   242  122  242 1    
   243  122  243 1    
   244  124  125 1    
   245  124  244 1    
   246  124  245 1    
   247  125  126 1    
   248  126  246 1    
   249  126  247 1    
@<TRIPOS>SUBSTRUCTURE
     1 UNK         1 GROUP             0       ****    0 ROOT    
