@<TRIPOS>MOLECULE
3R540
247   249    1
SMALL
USER_CHARGES


@<TRIPOS>ATOM
      1 CA         -3.9765   -9.6644  -47.4329 C.3       0 UNK        -0.1800 
      2 C          -2.7105  -10.4380  -47.7733 C.2       0 UNK         0.5000 
      3 O          -1.9212   -9.9869  -48.6034 O.2       0 UNK        -0.5000 
      4 N          -2.5161  -11.5961  -47.1355 N.am      1 UNK        -0.5000 
      5 CA         -1.3767  -12.4956  -47.3476 C.3       1 UNK         0.1400 
      6 C6         -1.6193  -13.5010  -48.5041 C.3       23 UNK        -0.0398 
      7 S7         -3.0681  -14.5826  -48.2500 S.3       23 UNK        -0.2404 
      8 C8         -3.0089  -15.6038  -49.7513 C.3       23 UNK        -0.0205 
      9 C9         -4.1139  -16.6464  -49.7271 C.ar      23 UNK        -0.0193 
     10 C10        -5.3242  -16.4146  -50.3880 C.ar      23 UNK        -0.1150 
     11 C11        -6.3543  -17.3581  -50.3303 C.ar      23 UNK        -0.0193 
     12 C12        -6.1672  -18.5367  -49.6026 C.ar      23 UNK        -0.1150 
     13 C13        -4.9627  -18.7789  -48.9389 C.ar      23 UNK        -0.0193 
     14 C14        -3.9367  -17.8345  -49.0129 C.ar      23 UNK        -0.1150 
     15 C15        -4.7901  -20.0461  -48.1199 C.3       23 UNK        -0.0205 
     16 S16        -5.4219  -19.8028  -46.4311 S.3       23 UNK        -0.2404 
     17 C17        -5.6405  -21.5020  -45.7952 C.3       23 UNK        -0.0398 
     18 CA         -4.4799  -22.4790  -46.0960 C.3       11 UNK         0.1400 
     19 N          -3.1838  -21.9923  -45.6062 N.am      11 UNK        -0.5000 
     20 C          -2.0055  -22.5926  -45.8286 C.2       10 UNK         0.5000 
     21 O          -1.8870  -23.5762  -46.5613 O.2       10 UNK        -0.5000 
     22 CA         -0.7638  -22.0524  -45.0959 C.3       10 UNK         0.1400 
     23 CB          0.3679  -21.7413  -46.0843 C.3       10 UNK        -0.1800 
     24 N          -1.0426  -20.8622  -44.2935 N.am      10 UNK        -0.5000 
     25 C          -1.4655  -20.8650  -43.0218 C.2       9 UNK         0.5000 
     26 O          -1.7181  -21.8940  -42.3949 O.2       9 UNK        -0.5000 
     27 CA         -1.6489  -19.4956  -42.3382 C.3       9 UNK         0.1400 
     28 CB         -0.4712  -19.2034  -41.3957 C.3       9 UNK        -0.1800 
     29 N          -1.7683  -18.4074  -43.3114 N.am      9 UNK        -0.5000 
     30 C          -2.9205  -18.0550  -43.9006 C.2       8 UNK         0.5000 
     31 O          -4.0080  -18.5421  -43.5926 O.2       8 UNK        -0.5000 
     32 CA         -2.8580  -16.9987  -45.0258 C.3       8 UNK         0.1400 
     33 CB         -3.2316  -15.6185  -44.4676 C.3       8 UNK        -0.1800 
     34 N          -1.5576  -16.9227  -45.7020 N.am      8 UNK        -0.5000 
     35 C          -1.0117  -17.9278  -46.4002 C.2       7 UNK         0.5000 
     36 O          -1.5734  -19.0070  -46.5813 O.2       7 UNK        -0.5000 
     37 CA          0.4186  -17.7407  -46.9397 C.3       7 UNK         0.1400 
     38 CB          0.3916  -17.2445  -48.3901 C.3       7 UNK        -0.1800 
     39 N           1.2835  -16.8627  -46.1493 N.am      7 UNK        -0.5000 
     40 C           1.5642  -16.9743  -44.8469 C.2       6 UNK         0.5000 
     41 O           1.0141  -17.7927  -44.1092 O.2       6 UNK        -0.5000 
     42 CA          2.6377  -16.0412  -44.2442 C.3       6 UNK         0.1400 
     43 CB          3.9702  -16.7964  -44.0902 C.3       6 UNK        -0.1800 
     44 N           2.8702  -14.7447  -44.9000 N.am      6 UNK        -0.5000 
     45 C           3.2891  -14.4652  -46.1443 C.2       5 UNK         0.5000 
     46 O           3.4243  -15.3050  -47.0335 O.2       5 UNK        -0.5000 
     47 CA          3.6447  -12.9955  -46.4456 C.3       5 UNK         0.1400 
     48 CB          2.4931  -12.2754  -47.1598 C.3       5 UNK        -0.1800 
     49 N           4.0168  -12.2469  -45.2422 N.am      5 UNK        -0.5000 
     50 C           5.2180  -12.3377  -44.6514 C.2       4 UNK         0.5000 
     51 O           6.1497  -13.0045  -45.1037 O.2       4 UNK        -0.5000 
     52 CA          5.4210  -11.5695  -43.3300 C.3       4 UNK         0.1400 
     53 CB          6.0768  -10.2061  -43.5970 C.3       4 UNK        -0.1800 
     54 N           4.1912  -11.3629  -42.5624 N.am      4 UNK        -0.5000 
     55 C           3.4461  -12.3341  -42.0181 C.2       3 UNK         0.5000 
     56 O           3.7087  -13.5330  -42.1178 O.2       3 UNK        -0.5000 
     57 CA          2.1740  -11.9136  -41.2553 C.3       3 UNK         0.1400 
     58 CB          2.0458  -10.3911  -41.0188 C.3       3 UNK        -0.1800 
     59 N           0.9647  -12.4358  -41.8995 N.am      3 UNK        -0.5000 
     60 C           0.5532  -12.1988  -43.1534 C.2       2 UNK         0.5000 
     61 O           1.1866  -11.5175  -43.9647 O.2       2 UNK        -0.5000 
     62 CA         -0.7939  -12.8332  -43.5504 C.3       2 UNK         0.1400 
     63 CB         -1.9223  -12.4103  -42.5920 C.3       2 UNK        -0.1800 
     64 N          -1.1832  -12.4432  -44.9039 N.am      2 UNK        -0.5000 
     65 C          -0.9345  -13.1441  -46.0166 C.2       1 UNK         0.5000 
     66 O          -0.3873  -14.2473  -46.0122 O.2       1 UNK        -0.5000 
     67 C          -4.8036  -23.8942  -45.5691 C.2       11 UNK         0.5000 
     68 O          -5.3522  -24.7071  -46.3134 O.2       11 UNK        -0.5000 
     69 N          -4.3798  -24.1846  -44.3296 N.am      12 UNK        -0.5000 
     70 CA         -4.4507  -25.5038  -43.6959 C.3       12 UNK         0.1400 
     71 CB         -4.1320  -25.3474  -42.2012 C.3       12 UNK        -0.1800 
     72 C          -3.5172  -26.5533  -44.3378 C.2       12 UNK         0.5000 
     73 O          -3.7495  -27.7498  -44.1661 O.2       12 UNK        -0.5000 
     74 N          -2.5005  -26.0963  -45.0813 N.am      13 UNK        -0.5000 
     75 CA         -1.5575  -26.9118  -45.8459 C.3       13 UNK         0.1400 
     76 CB         -0.1315  -26.3817  -45.6047 C.3       13 UNK        -0.1800 
     77 C          -1.9346  -26.9183  -47.3416 C.2       13 UNK         0.5000 
     78 O          -1.0497  -26.9162  -48.1985 O.2       13 UNK        -0.5000 
     79 N          -3.2454  -26.9030  -47.6301 N.am      14 UNK        -0.5000 
     80 CA         -3.8623  -26.9137  -48.9608 C.3       14 UNK         0.1400 
     81 CB         -3.6244  -28.2707  -49.6565 C.3       14 UNK        -0.1800 
     82 C          -3.4284  -25.7119  -49.8232 C.2       14 UNK         0.5000 
     83 O          -3.0438  -25.8866  -50.9802 O.2       14 UNK        -0.5000 
     84 N          -3.4672  -24.5142  -49.2204 N.am      15 UNK        -0.5000 
     85 CA         -3.0510  -23.2315  -49.8018 C.3       15 UNK         0.1400 
     86 CB         -3.9960  -22.8309  -50.9564 C.3       15 UNK        -0.1800 
     87 C          -1.5603  -23.2400  -50.1928 C.2       15 UNK         0.5000 
     88 O          -1.2105  -22.8839  -51.3188 O.2       15 UNK        -0.5000 
     89 N          -0.7185  -23.6925  -49.2509 N.am      16 UNK        -0.5000 
     90 CA          0.7244  -23.9208  -49.3915 C.3       16 UNK         0.1400 
     91 CB          1.4679  -22.5780  -49.5706 C.3       16 UNK        -0.1800 
     92 C           1.0485  -24.9288  -50.5156 C.2       16 UNK         0.5000 
     93 O           1.9396  -24.6788  -51.3259 O.2       16 UNK        -0.5000 
     94 N           0.2793  -26.0258  -50.5784 N.am      17 UNK        -0.5000 
     95 CA          0.2517  -27.0182  -51.6608 C.3       17 UNK         0.1400 
     96 CB          1.5399  -27.8666  -51.6577 C.3       17 UNK        -0.1800 
     97 C          -0.0537  -26.3733  -53.0330 C.2       17 UNK         0.5000 
     98 O           0.6324  -26.6418  -54.0209 O.2       17 UNK        -0.5000 
     99 N          -1.0727  -25.5034  -53.0388 N.am      18 UNK        -0.5000 
    100 CA        -1.5627  -24.6747  -54.1434 C.3       18 UNK         0.1400 
    101 CB        -2.1329  -25.5556  -55.2744 C.3       18 UNK        -0.1800 
    102 C         -0.5609  -23.6151  -54.6588 C.2       18 UNK         0.5000 
    103 O         -0.7343  -23.1198  -55.7740 O.2       18 UNK        -0.5000 
    104 N          0.4549  -23.2643  -53.8566 N.am      19 UNK        -0.5000 
    105 CA         1.4227  -22.2118  -54.1759 C.3       19 UNK         0.1400 
    106 CB         2.7641  -22.5094  -53.4905 C.3       19 UNK        -0.1800 
    107 C          0.9248  -20.8054  -53.7923 C.2       19 UNK         0.5000 
    108 O          1.4132  -19.8279  -54.3625 O.2       19 UNK        -0.5000 
    109 N         -0.0202  -20.7093  -52.8444 N.am      20 UNK        -0.5000 
    110 CA        -0.6712  -19.4545  -52.4618 C.3       20 UNK         0.1400 
    111 CB        -1.3460  -19.6229  -51.0919 C.3       20 UNK        -0.1800 
    112 C         -1.6870  -18.9953  -53.5269 C.2       20 UNK         0.5000 
    113 O         -2.0651  -19.7767  -54.4036 O.2       20 UNK        -0.5000 
    114 N         -2.1211  -17.7320  -53.4167 N.am      21 UNK        -0.5000 
    115 CA        -2.9504  -17.0099  -54.3906 C.3       21 UNK         0.1400 
    116 CB        -3.2568  -15.6090  -53.8385 C.3       21 UNK        -0.1800 
    117 C         -4.2582  -17.7090  -54.8150 C.2       21 UNK         0.5000 
    118 O         -4.6699  -17.5563  -55.9663 O.2       21 UNK        -0.5000 
    119 N         -4.8707  -18.4625  -53.8947 N.am      22 UNK        -0.5000 
    120 CA        -6.0888  -19.2555  -54.1358 C.3       22 UNK         0.1400 
    121 C         -5.8075  -20.7708  -54.3628 C.2       22 UNK         0.5000 
    122 N         -4.5621  -21.2195  -54.4665 N.am      22 UNK        -0.7600 
    123 O         -6.7412  -21.5616  -54.4664 O.2       22 UNK        -0.5000 
    124 C124       -7.1591  -19.0296  -53.0364 C.3       23 UNK        -0.0398 
    125 S125       -7.5882  -17.2638  -52.8301 S.3       23 UNK        -0.2404 
    126 C126       -7.6847  -17.0923  -51.0201 C.3       23 UNK        -0.0205 
    127 H127       -4.5861   -9.5312  -48.3267 H         1 UNK         0.0600 
    128 H128       -3.7210   -8.6790  -47.0432 H         1 UNK         0.0600 
    129 H129       -4.5789  -10.1803  -46.6848 H         1 UNK         0.0600 
    130 H130       -3.2124  -11.9327  -46.4844 H         1 UNK         0.3000 
    131 H131       -0.5178  -11.8878  -47.6381 H         1 UNK         0.0600 
    132 H132       -0.7318  -14.1115  -48.6669 H         1 UNK         0.0800 
    133 H133       -1.7694  -12.9500  -49.4334 H         1 UNK         0.0800 
    134 H134       -2.0384  -16.0946  -49.8265 H         1 UNK         0.0800 
    135 H135       -3.1053  -14.9631  -50.6288 H         1 UNK         0.0800 
    136 H136       -5.4727  -15.4943  -50.9353 H         1 UNK         0.1150 
    137 H137       -6.9664  -19.2617  -49.5370 H         1 UNK         0.1150 
    138 H138       -3.0085  -18.0109  -48.4917 H         1 UNK         0.1150 
    139 H139       -5.3201  -20.8684  -48.6027 H         1 UNK         0.0800 
    140 H140       -3.7355  -20.3229  -48.0747 H         1 UNK         0.0800 
    141 H141       -6.5726  -21.8866  -46.2136 H         1 UNK         0.0800 
    142 H142       -5.8023  -21.4277  -44.7183 H         1 UNK         0.0800 
    143 H143       -4.4023  -22.5787  -47.1764 H         1 UNK         0.0600 
    144 H144       -3.1991  -21.1566  -45.0393 H         1 UNK         0.3000 
    145 H145       -0.4138  -22.8484  -44.4355 H         1 UNK         0.0600 
    146 H146        0.0384  -21.0681  -46.8751 H         1 UNK         0.0600 
    147 H147        1.2214  -21.2839  -45.5836 H         1 UNK         0.0600 
    148 H148        0.7241  -22.6563  -46.5577 H         1 UNK         0.0600 
    149 H149       -0.9411  -19.9754  -44.7706 H         1 UNK         0.3000 
    150 H150       -2.5565  -19.5450  -41.7329 H         1 UNK         0.0600 
    151 H151       -0.4064  -19.9570  -40.6099 H         1 UNK         0.0600 
    152 H152       -0.5854  -18.2349  -40.9087 H         1 UNK         0.0600 
    153 H153        0.4817  -19.2032  -41.9255 H         1 UNK         0.0600 
    154 H154       -0.8980  -17.9856  -43.6231 H         1 UNK         0.3000 
    155 H155       -3.6016  -17.2745  -45.7766 H         1 UNK         0.0600 
    156 H156       -4.2231  -15.6376  -44.0136 H         1 UNK         0.0600 
    157 H157       -3.2528  -14.8630  -45.2513 H         1 UNK         0.0600 
    158 H158       -2.5285  -15.2967  -43.7007 H         1 UNK         0.0600 
    159 H159       -1.0487  -16.0446  -45.6436 H         1 UNK         0.3000 
    160 H160        0.8875  -18.7262  -46.9337 H         1 UNK         0.0600 
    161 H161        1.3888  -17.2554  -48.8305 H         1 UNK         0.0600 
    162 H162        0.0095  -16.2276  -48.4507 H         1 UNK         0.0600 
    163 H163       -0.2450  -17.8760  -49.0085 H         1 UNK         0.0600 
    164 H164        1.8268  -16.1794  -46.6680 H         1 UNK         0.3000 
    165 H165        2.2857  -15.7945  -43.2413 H         1 UNK         0.0600 
    166 H166        4.3950  -17.0678  -45.0572 H         1 UNK         0.0600 
    167 H167        4.7047  -16.1908  -43.5586 H         1 UNK         0.0600 
    168 H168        3.8363  -17.7174  -43.5212 H         1 UNK         0.0600 
    169 H169        2.8158  -13.9577  -44.2685 H         1 UNK         0.3000 
    170 H170        4.4961  -13.0083  -47.1297 H         1 UNK         0.0600 
    171 H171        1.6547  -12.1056  -46.4886 H         1 UNK         0.0600 
    172 H172        2.8141  -11.3052  -47.5391 H         1 UNK         0.0600 
    173 H173        2.1285  -12.8541  -48.0096 H         1 UNK         0.0600 
    174 H174        3.2897  -11.6952  -44.8021 H         1 UNK         0.3000 
    175 H175        6.1014  -12.1600  -42.7129 H         1 UNK         0.0600 
    176 H176        5.4298   -9.5579  -44.1894 H         1 UNK         0.0600 
    177 H177        6.3089   -9.6899  -42.6653 H         1 UNK         0.0600 
    178 H178        7.0136  -10.3230  -44.1437 H         1 UNK         0.0600 
    179 H179        3.8834  -10.4075  -42.4539 H         1 UNK         0.3000 
    180 H180        2.2371  -12.3925  -40.2771 H         1 UNK         0.0600 
    181 H181        1.9541   -9.8310  -41.9500 H         1 UNK         0.0600 
    182 H182        2.9089  -10.0019  -40.4772 H         1 UNK         0.0600 
    183 H183        1.1657  -10.1669  -40.4159 H         1 UNK         0.0600 
    184 H184        0.3986  -13.0363  -41.3171 H         1 UNK         0.3000 
    185 H185       -0.6719  -13.9162  -43.4939 H         1 UNK         0.0600 
    186 H186       -2.8818  -12.8186  -42.9104 H         1 UNK         0.0600 
    187 H187       -1.7457  -12.7711  -41.5784 H         1 UNK         0.0600 
    188 H188       -2.0227  -11.3252  -42.5430 H         1 UNK         0.0600 
    189 H189       -1.5606  -11.5122  -45.0042 H         1 UNK         0.3000 
    190 H190       -3.9198  -23.4595  -43.7972 H         1 UNK         0.3000 
    191 H191       -5.4737  -25.8731  -43.7932 H         1 UNK         0.0600 
    192 H192       -3.1259  -24.9561  -42.0436 H         1 UNK         0.0600 
    193 H193       -4.8354  -24.6701  -41.7165 H         1 UNK         0.0600 
    194 H194       -4.1971  -26.3055  -41.6838 H         1 UNK         0.0600 
    195 H195       -2.4221  -25.0992  -45.2354 H         1 UNK         0.3000 
    196 H196       -1.5909  -27.9481  -45.5043 H         1 UNK         0.0600 
    197 H197        0.1069  -26.3635  -44.5412 H         1 UNK         0.0600 
    198 H198       -0.0018  -25.3718  -45.9941 H         1 UNK         0.0600 
    199 H199        0.6098  -27.0171  -46.0906 H         1 UNK         0.0600 
    200 H200       -3.8914  -26.8607  -46.8542 H         1 UNK         0.3000 
    201 H201       -4.9367  -26.8055  -48.8052 H         1 UNK         0.0600 
    202 H202       -4.1679  -28.3262  -50.6004 H         1 UNK         0.0600 
    203 H203       -3.9694  -29.0973  -49.0355 H         1 UNK         0.0600 
    204 H204       -2.5695  -28.4355  -49.8774 H         1 UNK         0.0600 
    205 H205       -3.7448  -24.4952  -48.2491 H         1 UNK         0.3000 
    206 H206       -3.1434  -22.4768  -49.0232 H         1 UNK         0.0600 
    207 H207       -5.0364  -22.8392  -50.6321 H         1 UNK         0.0600 
    208 H208       -3.9087  -23.5046  -51.8087 H         1 UNK         0.0600 
    209 H209       -3.7851  -21.8269  -51.3198 H         1 UNK         0.0600 
    210 H210       -1.1156  -23.9417  -48.3499 H         1 UNK         0.3000 
    211 H211        1.0618  -24.3743  -48.4586 H         1 UNK         0.0600 
    212 H212        1.2210  -21.8715  -48.7813 H         1 UNK         0.0600 
    213 H213        2.5483  -22.7239  -49.5484 H         1 UNK         0.0600 
    214 H214        1.2227  -22.1020  -50.5197 H         1 UNK         0.0600 
    215 H215       -0.3898  -26.1818  -49.8281 H         1 UNK         0.3000 
    216 H216       -0.5839  -27.6847  -51.4424 H         1 UNK         0.0600 
    217 H217        1.4745  -28.6765  -52.3850 H         1 UNK         0.0600 
    218 H218        2.4190  -27.2723  -51.9085 H         1 UNK         0.0600 
    219 H219        1.7089  -28.3202  -50.6811 H         1 UNK         0.0600 
    220 H220       -1.5957  -25.3996  -52.1729 H         1 UNK         0.3000 
    221 H221       -2.3943  -24.1052  -53.7269 H         1 UNK         0.0600 
    222 H222       -1.3483  -26.1087  -55.7911 H         1 UNK         0.0600 
    223 H223       -2.8534  -26.2761  -54.8869 H         1 UNK         0.0600 
    224 H224       -2.6514  -24.9517  -56.0198 H         1 UNK         0.0600 
    225 H225        0.5325  -23.7010  -52.9465 H         1 UNK         0.3000 
    226 H226        1.6020  -22.2132  -55.2531 H         1 UNK         0.0600 
    227 H227        3.1109  -23.5179  -53.7166 H         1 UNK         0.0600 
    228 H228        3.5344  -21.8159  -53.8297 H         1 UNK         0.0600 
    229 H229        2.6955  -22.4105  -52.4077 H         1 UNK         0.0600 
    230 H230       -0.4016  -21.5590  -52.4364 H         1 UNK         0.3000 
    231 H231        0.0970  -18.6839  -52.3695 H         1 UNK         0.0600 
    232 H232       -1.7322  -18.6718  -50.7266 H         1 UNK         0.0600 
    233 H233       -0.6460  -20.0000  -50.3459 H         1 UNK         0.0600 
    234 H234       -2.1857  -20.3115  -51.1415 H         1 UNK         0.0600 
    235 H235       -1.7723  -17.1757  -52.6508 H         1 UNK         0.3000 
    236 H236       -2.3456  -16.8930  -55.2919 H         1 UNK         0.0600 
    237 H237       -2.3424  -15.0570  -53.6210 H         1 UNK         0.0600 
    238 H238       -3.8260  -15.0207  -54.5595 H         1 UNK         0.0600 
    239 H239       -3.8467  -15.6614  -52.9232 H         1 UNK         0.0600 
    240 H240       -4.4606  -18.5376  -52.9761 H         1 UNK         0.3000 
    241 H241       -6.5438  -18.9249  -55.0710 H         1 UNK         0.0600 
    242 H242       -3.7625  -20.5915  -54.4385 H         1 UNK         0.3800 
    243 H243       -4.4132  -22.2009  -54.6296 H         1 UNK         0.3800 
    244 H244       -8.0795  -19.5605  -53.2848 H         1 UNK         0.0800 
    245 H245       -6.8158  -19.4518  -52.0931 H         1 UNK         0.0800 
    246 H246       -8.4587  -17.7606  -50.6395 H         1 UNK         0.0800 
    247 H247       -8.0145  -16.0803  -50.7808 H         1 UNK         0.0800 
@<TRIPOS>BOND
     1    1    2 1    
     2    1  127 1    
     3    1  128 1    
     4    1  129 1    
     5    2    3 2    
     6    2    4 am   BACKBONE|DICT|INTERRES
     7    4    5 1    
     8    4  130 1    
     9    5    6 1    
    10    5   65 1    
    11    5  131 1    
    12    6    7 1    
    13    6  132 1    
    14    6  133 1    
    15    7    8 1    
    16    8    9 1    
    17    8  134 1    
    18    8  135 1    
    19    9   10 ar   
    20    9   14 ar   
    21   10   11 ar   
    22   10  136 1    
    23   11   12 ar   
    24   11  126 1    
    25   12   13 ar   
    26   12  137 1    
    27   13   14 ar   
    28   13   15 1    
    29   14  138 1    
    30   15   16 1    
    31   15  139 1    
    32   15  140 1    
    33   16   17 1    
    34   17   18 1    
    35   17  141 1    
    36   17  142 1    
    37   18   19 1    
    38   18   67 1    
    39   18  143 1    
    40   19   20 am   BACKBONE|DICT|INTERRES
    41   19  144 1    
    42   20   21 2    
    43   20   22 1    
    44   22   23 1    
    45   22   24 1    
    46   22  145 1    
    47   23  146 1    
    48   23  147 1    
    49   23  148 1    
    50   24   25 am   BACKBONE|DICT|INTERRES
    51   24  149 1    
    52   25   26 2    
    53   25   27 1    
    54   27   28 1    
    55   27   29 1    
    56   27  150 1    
    57   28  151 1    
    58   28  152 1    
    59   28  153 1    
    60   29   30 am   BACKBONE|DICT|INTERRES
    61   29  154 1    
    62   30   31 2    
    63   30   32 1    
    64   32   33 1    
    65   32   34 1    
    66   32  155 1    
    67   33  156 1    
    68   33  157 1    
    69   33  158 1    
    70   34   35 am   BACKBONE|DICT|INTERRES
    71   34  159 1    
    72   35   36 2    
    73   35   37 1    
    74   37   38 1    
    75   37   39 1    
    76   37  160 1    
    77   38  161 1    
    78   38  162 1    
    79   38  163 1    
    80   39   40 am   BACKBONE|DICT|INTERRES
    81   39  164 1    
    82   40   41 2    
    83   40   42 1    
    84   42   43 1    
    85   42   44 1    
    86   42  165 1    
    87   43  166 1    
    88   43  167 1    
    89   43  168 1    
    90   44   45 am   BACKBONE|DICT|INTERRES
    91   44  169 1    
    92   45   46 2    
    93   45   47 1    
    94   47   48 1    
    95   47   49 1    
    96   47  170 1    
    97   48  171 1    
    98   48  172 1    
    99   48  173 1    
   100   49   50 am   BACKBONE|DICT|INTERRES
   101   49  174 1    
   102   50   51 2    
   103   50   52 1    
   104   52   53 1    
   105   52   54 1    
   106   52  175 1    
   107   53  176 1    
   108   53  177 1    
   109   53  178 1    
   110   54   55 am   BACKBONE|DICT|INTERRES
   111   54  179 1    
   112   55   56 2    
   113   55   57 1    
   114   57   58 1    
   115   57   59 1    
   116   57  180 1    
   117   58  181 1    
   118   58  182 1    
   119   58  183 1    
   120   59   60 am   BACKBONE|DICT|INTERRES
   121   59  184 1    
   122   60   61 2    
   123   60   62 1    
   124   62   63 1    
   125   62   64 1    
   126   62  185 1    
   127   63  186 1    
   128   63  187 1    
   129   63  188 1    
   130   64   65 am   BACKBONE|DICT|INTERRES
   131   64  189 1    
   132   65   66 2    
   133   67   68 2    
   134   67   69 am   BACKBONE|DICT|INTERRES
   135   69   70 1    
   136   69  190 1    
   137   70   71 1    
   138   70   72 1    
   139   70  191 1    
   140   71  192 1    
   141   71  193 1    
   142   71  194 1    
   143   72   73 2    
   144   72   74 am   BACKBONE|DICT|INTERRES
   145   74   75 1    
   146   74  195 1    
   147   75   76 1    
   148   75   77 1    
   149   75  196 1    
   150   76  197 1    
   151   76  198 1    
   152   76  199 1    
   153   77   78 2    
   154   77   79 am   BACKBONE|DICT|INTERRES
   155   79   80 1    
   156   79  200 1    
   157   80   81 1    
   158   80   82 1    
   159   80  201 1    
   160   81  202 1    
   161   81  203 1    
   162   81  204 1    
   163   82   83 2    
   164   82   84 am   BACKBONE|DICT|INTERRES
   165   84   85 1    
   166   84  205 1    
   167   85   86 1    
   168   85   87 1    
   169   85  206 1    
   170   86  207 1    
   171   86  208 1    
   172   86  209 1    
   173   87   88 2    
   174   87   89 am   BACKBONE|DICT|INTERRES
   175   89   90 1    
   176   89  210 1    
   177   90   91 1    
   178   90   92 1    
   179   90  211 1    
   180   91  212 1    
   181   91  213 1    
   182   91  214 1    
   183   92   93 2    
   184   92   94 am   BACKBONE|DICT|INTERRES
   185   94   95 1    
   186   94  215 1    
   187   95   96 1    
   188   95   97 1    
   189   95  216 1    
   190   96  217 1    
   191   96  218 1    
   192   96  219 1    
   193   97   98 2    
   194   97   99 am   BACKBONE|DICT|INTERRES
   195   99  100 1    
   196   99  220 1    
   197  100  101 1    
   198  100  102 1    
   199  100  221 1    
   200  101  222 1    
   201  101  223 1    
   202  101  224 1    
   203  102  103 2    
   204  102  104 am   BACKBONE|DICT|INTERRES
   205  104  105 1    
   206  104  225 1    
   207  105  106 1    
   208  105  107 1    
   209  105  226 1    
   210  106  227 1    
   211  106  228 1    
   212  106  229 1    
   213  107  108 2    
   214  107  109 am   BACKBONE|DICT|INTERRES
   215  109  110 1    
   216  109  230 1    
   217  110  111 1    
   218  110  112 1    
   219  110  231 1    
   220  111  232 1    
   221  111  233 1    
   222  111  234 1    
   223  112  113 2    
   224  112  114 am   BACKBONE|DICT|INTERRES
   225  114  115 1    
   226  114  235 1    
   227  115  116 1    
   228  115  117 1    
   229  115  236 1    
   230  116  237 1    
   231  116  238 1    
   232  116  239 1    
   233  117  118 2    
   234  117  119 am   BACKBONE|DICT|INTERRES
   235  119  120 1    
   236  119  240 1    
   237  120  121 1    
   238  120  124 1    
   239  120  241 1    
   240  121  122 am   BACKBONE|DICT|INTERRES
   241  121  123 2    
   242  122  242 1    
   243  122  243 1    
   244  124  125 1    
   245  124  244 1    
   246  124  245 1    
   247  125  126 1    
   248  126  246 1    
   249  126  247 1    
@<TRIPOS>SUBSTRUCTURE
     1 UNK         1 GROUP             0       ****    0 ROOT    
