@<TRIPOS>MOLECULE
3R540
247   249    1
SMALL
USER_CHARGES


@<TRIPOS>ATOM
      1 CA          6.5420  -13.8004  -45.6574 C.3       0 UNK        -0.1800 
      2 C           5.2623  -13.9060  -46.4732 C.2       0 UNK         0.5000 
      3 O           4.2220  -13.4060  -46.0464 O.2       0 UNK        -0.5000 
      4 N           5.3400  -14.5326  -47.6562 N.am      1 UNK        -0.5000 
      5 CA          4.2212  -14.8279  -48.5693 C.3       1 UNK         0.1400 
      6 C6          4.6705  -15.6702  -49.7884 C.3       23 UNK        -0.0398 
      7 S7          5.5487  -17.2008  -49.3166 S.3       23 UNK        -0.2404 
      8 C8          5.0440  -18.3447  -50.6392 C.3       23 UNK        -0.0205 
      9 C9          3.8012  -19.1391  -50.2657 C.ar      23 UNK        -0.0193 
     10 C10         2.5302  -18.7008  -50.6536 C.ar      23 UNK        -0.1150 
     11 C11         1.3927  -19.4538  -50.3408 C.ar      23 UNK        -0.0193 
     12 C12         1.5441  -20.6508  -49.6309 C.ar      23 UNK        -0.1150 
     13 C13         2.8081  -21.1182  -49.2643 C.ar      23 UNK        -0.0193 
     14 C14         3.9325  -20.3490  -49.5754 C.ar      23 UNK        -0.1150 
     15 C15         2.9652  -22.4933  -48.6212 C.3       23 UNK        -0.0205 
     16 S16         3.5537  -22.4238  -46.8998 S.3       23 UNK        -0.2404 
     17 C17         2.0463  -21.9256  -46.0071 C.3       23 UNK        -0.0398 
     18 CA          1.8761  -22.6571  -44.6451 C.3       11 UNK         0.1400 
     19 N           1.4260  -21.7235  -43.6040 N.am      11 UNK        -0.5000 
     20 C           1.4717  -21.9236  -42.2795 C.2       10 UNK         0.5000 
     21 O           1.9896  -22.9080  -41.7524 O.2       10 UNK        -0.5000 
     22 CA          0.7702  -20.8663  -41.4040 C.3       10 UNK         0.1400 
     23 CB          1.7356  -19.7328  -41.0252 C.3       10 UNK        -0.1800 
     24 N          -0.4133  -20.3047  -42.0635 N.am      10 UNK        -0.5000 
     25 C          -1.5773  -20.9553  -42.2099 C.2       9 UNK         0.5000 
     26 O          -1.7965  -22.0723  -41.7418 O.2       9 UNK        -0.5000 
     27 CA         -2.6591  -20.2700  -43.0675 C.3       9 UNK         0.1400 
     28 CB         -3.4379  -19.2369  -42.2404 C.3       9 UNK        -0.1800 
     29 N          -2.1078  -19.6256  -44.2593 N.am      9 UNK        -0.5000 
     30 C          -1.4966  -20.2736  -45.2606 C.2       8 UNK         0.5000 
     31 O          -1.4213  -21.4970  -45.3323 O.2       8 UNK        -0.5000 
     32 CA         -0.8116  -19.4207  -46.3406 C.3       8 UNK         0.1400 
     33 CB         -1.7622  -19.1677  -47.5048 C.3       8 UNK        -0.1800 
     34 N          -0.3005  -18.1424  -45.8458 N.am      8 UNK        -0.5000 
     35 C           0.6598  -18.0182  -44.9207 C.2       7 UNK         0.5000 
     36 O           1.1962  -18.9734  -44.3635 O.2       7 UNK        -0.5000 
     37 CA          1.0528  -16.5917  -44.5196 C.3       7 UNK         0.1400 
     38 CB          2.0090  -15.9841  -45.5543 C.3       7 UNK        -0.1800 
     39 N          -0.1307  -15.7476  -44.3601 N.am      7 UNK        -0.5000 
     40 C          -0.9325  -15.7882  -43.2857 C.2       6 UNK         0.5000 
     41 O          -0.6978  -16.4673  -42.2857 O.2       6 UNK        -0.5000 
     42 CA         -2.2325  -14.9636  -43.3487 C.3       6 UNK         0.1400 
     43 CB         -1.9993  -13.5377  -42.8302 C.3       6 UNK        -0.1800 
     44 N          -2.8031  -14.9058  -44.6954 N.am      6 UNK        -0.5000 
     45 C          -3.3469  -15.9579  -45.3247 C.2       5 UNK         0.5000 
     46 O          -3.4564  -17.0722  -44.8153 O.2       5 UNK        -0.5000 
     47 CA         -3.7991  -15.7528  -46.7831 C.3       5 UNK         0.1400 
     48 CB         -5.2904  -15.3967  -46.8514 C.3       5 UNK        -0.1800 
     49 N          -3.0267  -14.7500  -47.5179 N.am      5 UNK        -0.5000 
     50 C          -1.7038  -14.7956  -47.7250 C.2       4 UNK         0.5000 
     51 O          -0.9771  -15.6775  -47.2644 O.2       4 UNK        -0.5000 
     52 CA         -1.0792  -13.6771  -48.5787 C.3       4 UNK         0.1400 
     53 CB         -2.1033  -12.6980  -49.1971 C.3       4 UNK        -0.1800 
     54 N          -0.0566  -12.9372  -47.8389 N.am      4 UNK        -0.5000 
     55 C          -0.2156  -12.2313  -46.7075 C.2       3 UNK         0.5000 
     56 O          -1.2732  -12.1908  -46.0766 O.2       3 UNK        -0.5000 
     57 CA          0.9957  -11.4211  -46.1899 C.3       3 UNK         0.1400 
     58 CB          1.4267  -11.8970  -44.7944 C.3       3 UNK        -0.1800 
     59 N           2.1526  -11.4592  -47.0897 N.am      3 UNK        -0.5000 
     60 C           2.2493  -10.7697  -48.2380 C.2       2 UNK         0.5000 
     61 O           1.4158   -9.9394  -48.6013 O.2       2 UNK        -0.5000 
     62 CA          3.4503  -11.0780  -49.1596 C.3       2 UNK         0.1400 
     63 CB          4.5318   -9.9972  -49.0113 C.3       2 UNK        -0.1800 
     64 N           4.0604  -12.3899  -48.9288 N.am      2 UNK        -0.5000 
     65 C           3.4465  -13.5769  -49.0458 C.2       1 UNK         0.5000 
     66 O           2.2968  -13.7022  -49.4667 O.2       1 UNK        -0.5000 
     67 C           0.9700  -23.9132  -44.7616 C.2       11 UNK         0.5000 
     68 O           1.3585  -24.8831  -45.4119 O.2       11 UNK        -0.5000 
     69 N          -0.2076  -23.8689  -44.1180 N.am      12 UNK        -0.5000 
     70 CA         -1.2505  -24.8910  -43.9769 C.3       12 UNK         0.1400 
     71 CB         -0.6783  -26.2073  -43.4121 C.3       12 UNK        -0.1800 
     72 C          -2.1169  -25.1236  -45.2316 C.2       12 UNK         0.5000 
     73 O          -3.0391  -25.9383  -45.1702 O.2       12 UNK        -0.5000 
     74 N          -1.8468  -24.4016  -46.3235 N.am      13 UNK        -0.5000 
     75 CA         -2.5281  -24.4635  -47.6140 C.3       13 UNK         0.1400 
     76 CB         -2.3827  -25.8639  -48.2473 C.3       13 UNK        -0.1800 
     77 C          -1.9054  -23.4130  -48.5432 C.2       13 UNK         0.5000 
     78 O          -0.7990  -22.9373  -48.2792 O.2       13 UNK        -0.5000 
     79 N          -2.5940  -23.1216  -49.6506 N.am      14 UNK        -0.5000 
     80 CA         -2.0639  -22.3892  -50.7958 C.3       14 UNK         0.1400 
     81 CB         -3.1084  -21.3728  -51.2843 C.3       14 UNK        -0.1800 
     82 C          -1.6864  -23.4248  -51.8658 C.2       14 UNK         0.5000 
     83 O          -2.3707  -23.5524  -52.8831 O.2       14 UNK        -0.5000 
     84 N          -0.6332  -24.1991  -51.5672 N.am      15 UNK        -0.5000 
     85 CA         -0.1711  -25.3782  -52.3028 C.3       15 UNK         0.1400 
     86 CB          0.3728  -24.9913  -53.6971 C.3       15 UNK        -0.1800 
     87 C          -1.2644  -26.4658  -52.3257 C.2       15 UNK         0.5000 
     88 O          -1.4783  -27.1185  -51.3040 O.2       15 UNK        -0.5000 
     89 N          -1.9409  -26.6336  -53.4676 N.am      16 UNK        -0.5000 
     90 CA         -3.0554  -27.5656  -53.6395 C.3       16 UNK         0.1400 
     91 CB         -3.1152  -27.9870  -55.1165 C.3       16 UNK        -0.1800 
     92 C          -4.4124  -26.9813  -53.1956 C.2       16 UNK         0.5000 
     93 O          -5.3503  -27.7519  -52.9841 O.2       16 UNK        -0.5000 
     94 N          -4.5139  -25.6498  -53.0928 N.am      17 UNK        -0.5000 
     95 CA         -5.7441  -24.9297  -52.7663 C.3       17 UNK         0.1400 
     96 CB         -5.8201  -23.6808  -53.6604 C.3       17 UNK        -0.1800 
     97 C          -5.7948  -24.5372  -51.2797 C.2       17 UNK         0.5000 
     98 O          -4.7874  -24.6177  -50.5720 O.2       17 UNK        -0.5000 
     99 N          -6.9742  -24.0844  -50.8357 N.am      18 UNK        -0.5000 
    100 CA        -7.1879  -23.4740  -49.5225 C.3       18 UNK         0.1400 
    101 CB        -8.6968  -23.2995  -49.2941 C.3       18 UNK        -0.1800 
    102 C         -6.4712  -22.1151  -49.4167 C.2       18 UNK         0.5000 
    103 O         -6.3248  -21.4278  -50.4290 O.2       18 UNK        -0.5000 
    104 N         -6.0683  -21.7449  -48.1926 N.am      19 UNK        -0.5000 
    105 CA        -5.2330  -20.5810  -47.8637 C.3       19 UNK         0.1400 
    106 CB        -5.1165  -20.4665  -46.3351 C.3       19 UNK        -0.1800 
    107 C         -5.6815  -19.2361  -48.4714 C.2       19 UNK         0.5000 
    108 O         -4.8321  -18.4254  -48.8400 O.2       19 UNK        -0.5000 
    109 N         -6.9997  -19.0443  -48.6154 N.am      20 UNK        -0.5000 
    110 CA        -7.6229  -17.8726  -49.2360 C.3       20 UNK         0.1400 
    111 CB        -9.1491  -18.0091  -49.1333 C.3       20 UNK        -0.1800 
    112 C         -7.2031  -17.6249  -50.7009 C.2       20 UNK         0.5000 
    113 O         -7.1969  -16.4724  -51.1365 O.2       20 UNK        -0.5000 
    114 N         -6.8215  -18.6880  -51.4265 N.am      21 UNK        -0.5000 
    115 CA        -6.3475  -18.6243  -52.8130 C.3       21 UNK         0.1400 
    116 CB        -6.3162  -20.0420  -53.4020 C.3       21 UNK        -0.1800 
    117 C         -4.9744  -17.9375  -52.9716 C.2       21 UNK         0.5000 
    118 O         -4.6162  -17.5614  -54.0883 O.2       21 UNK        -0.5000 
    119 N         -4.2415  -17.7673  -51.8632 N.am      22 UNK        -0.5000 
    120 CA        -2.9956  -16.9896  -51.7849 C.3       22 UNK         0.1400 
    121 C         -3.1999  -15.4489  -51.9086 C.2       22 UNK         0.5000 
    122 N         -4.4113  -14.9220  -51.7575 N.am      22 UNK        -0.7600 
    123 O         -2.2459  -14.7182  -52.1561 O.2       22 UNK        -0.5000 
    124 C124       -2.2217  -17.3555  -50.4948 C.3       23 UNK        -0.0398 
    125 S125       -0.3980  -17.2807  -50.6365 S.3       23 UNK        -0.2404 
    126 C126        0.0040  -19.0511  -50.8328 C.3       23 UNK        -0.0205 
    127 H127        6.7921  -12.7534  -45.4867 H         1 UNK         0.0600 
    128 H128        7.3846  -14.2751  -46.1607 H         1 UNK         0.0600 
    129 H129        6.4082  -14.2824  -44.6890 H         1 UNK         0.0600 
    130 H130        6.2287  -14.9192  -47.9423 H         1 UNK         0.3000 
    131 H131        3.5086  -15.4285  -48.0017 H         1 UNK         0.0600 
    132 H132        3.8024  -15.9355  -50.3943 H         1 UNK         0.0800 
    133 H133        5.3297  -15.0889  -50.4356 H         1 UNK         0.0800 
    134 H134        4.8878  -17.7998  -51.5715 H         1 UNK         0.0800 
    135 H135        5.8683  -19.0329  -50.8328 H         1 UNK         0.0800 
    136 H136        2.4271  -17.7853  -51.2183 H         1 UNK         0.1150 
    137 H137        0.6779  -21.2483  -49.3971 H         1 UNK         0.1150 
    138 H138        4.9150  -20.7067  -49.3006 H         1 UNK         0.1150 
    139 H139        2.0308  -23.0557  -48.6626 H         1 UNK         0.0800 
    140 H140        3.6845  -23.0678  -49.2064 H         1 UNK         0.0800 
    141 H141        2.1458  -20.8506  -45.8606 H         1 UNK         0.0800 
    142 H142        1.1688  -22.0539  -46.6427 H         1 UNK         0.0800 
    143 H143        2.8543  -23.0174  -44.3198 H         1 UNK         0.0600 
    144 H144        1.0667  -20.8305  -43.9286 H         1 UNK         0.3000 
    145 H145        0.4505  -21.3570  -40.4822 H         1 UNK         0.0600 
    146 H146        1.2504  -19.0018  -40.3782 H         1 UNK         0.0600 
    147 H147        2.1107  -19.2056  -41.9023 H         1 UNK         0.0600 
    148 H148        2.5991  -20.1230  -40.4851 H         1 UNK         0.0600 
    149 H149       -0.2987  -19.4043  -42.5086 H         1 UNK         0.3000 
    150 H150       -3.3593  -21.0403  -43.3975 H         1 UNK         0.0600 
    151 H151       -3.8535  -19.6890  -41.3391 H         1 UNK         0.0600 
    152 H152       -4.2709  -18.8254  -42.8106 H         1 UNK         0.0600 
    153 H153       -2.8021  -18.4065  -41.9309 H         1 UNK         0.0600 
    154 H154       -2.2180  -18.6194  -44.3256 H         1 UNK         0.3000 
    155 H155        0.0392  -19.9814  -46.7277 H         1 UNK         0.0600 
    156 H156       -1.9870  -20.0929  -48.0358 H         1 UNK         0.0600 
    157 H157       -1.3043  -18.4800  -48.2082 H         1 UNK         0.0600 
    158 H158       -2.6999  -18.7302  -47.1705 H         1 UNK         0.0600 
    159 H159       -0.6591  -17.3000  -46.2875 H         1 UNK         0.3000 
    160 H160        1.5837  -16.6473  -43.5666 H         1 UNK         0.0600 
    161 H161        1.5228  -15.8055  -46.5131 H         1 UNK         0.0600 
    162 H162        2.8606  -16.6414  -45.7353 H         1 UNK         0.0600 
    163 H163        2.4085  -15.0388  -45.1968 H         1 UNK         0.0600 
    164 H164       -0.4321  -15.2321  -45.1767 H         1 UNK         0.3000 
    165 H165       -2.9604  -15.4466  -42.6931 H         1 UNK         0.0600 
    166 H166       -2.9297  -12.9702  -42.8038 H         1 UNK         0.0600 
    167 H167       -1.5973  -13.5513  -41.8163 H         1 UNK         0.0600 
    168 H168       -1.2930  -12.9938  -43.4562 H         1 UNK         0.0600 
    169 H169       -2.7137  -14.0302  -45.1944 H         1 UNK         0.3000 
    170 H170       -3.6581  -16.7005  -47.2996 H         1 UNK         0.0600 
    171 H171       -5.8953  -16.1588  -46.3580 H         1 UNK         0.0600 
    172 H172       -5.4996  -14.4424  -46.3667 H         1 UNK         0.0600 
    173 H173       -5.6312  -15.3329  -47.8850 H         1 UNK         0.0600 
    174 H174       -3.5461  -13.9775  -47.9082 H         1 UNK         0.3000 
    175 H175       -0.5652  -14.1786  -49.4002 H         1 UNK         0.0600 
    176 H176       -2.6480  -12.1325  -48.4405 H         1 UNK         0.0600 
    177 H177       -1.6042  -11.9792  -49.8471 H         1 UNK         0.0600 
    178 H178       -2.8343  -13.2241  -49.8110 H         1 UNK         0.0600 
    179 H179        0.8654  -12.9678  -48.2605 H         1 UNK         0.3000 
    180 H180        0.6689  -10.3833  -46.0986 H         1 UNK         0.0600 
    181 H181        0.6309  -11.7416  -44.0660 H         1 UNK         0.0600 
    182 H182        2.2991  -11.3476  -44.4401 H         1 UNK         0.0600 
    183 H183        1.6741  -12.9569  -44.7887 H         1 UNK         0.0600 
    184 H184        2.8883  -12.1161  -46.8456 H         1 UNK         0.3000 
    185 H185        3.0836  -11.0602  -50.1878 H         1 UNK         0.0600 
    186 H186        4.1228   -9.0048  -49.2059 H         1 UNK         0.0600 
    187 H187        4.9537   -9.9871  -48.0054 H         1 UNK         0.0600 
    188 H188        5.3475  -10.1545  -49.7173 H         1 UNK         0.0600 
    189 H189        4.9990  -12.3866  -48.5570 H         1 UNK         0.3000 
    190 H190       -0.4407  -22.9853  -43.6853 H         1 UNK         0.3000 
    191 H191       -1.9339  -24.4925  -43.2259 H         1 UNK         0.0600 
    192 H192       -1.4792  -26.8953  -43.1392 H         1 UNK         0.0600 
    193 H193       -0.0867  -26.0278  -42.5143 H         1 UNK         0.0600 
    194 H194       -0.0458  -26.7202  -44.1369 H         1 UNK         0.0600 
    195 H195       -1.1162  -23.6997  -46.2790 H         1 UNK         0.3000 
    196 H196       -3.5833  -24.2238  -47.4703 H         1 UNK         0.0600 
    197 H197       -2.8854  -26.6328  -47.6624 H         1 UNK         0.0600 
    198 H198       -2.8249  -25.8958  -49.2432 H         1 UNK         0.0600 
    199 H199       -1.3352  -26.1505  -48.3483 H         1 UNK         0.0600 
    200 H200       -3.4521  -23.6385  -49.8424 H         1 UNK         0.3000 
    201 H201       -1.1595  -21.8466  -50.5293 H         1 UNK         0.0600 
    202 H202       -2.7385  -20.8090  -52.1413 H         1 UNK         0.0600 
    203 H203       -3.3603  -20.6548  -50.5052 H         1 UNK         0.0600 
    204 H204       -4.0282  -21.8692  -51.5888 H         1 UNK         0.0600 
    205 H205       -0.1757  -24.0410  -50.6801 H         1 UNK         0.3000 
    206 H206        0.6614  -25.7931  -51.7326 H         1 UNK         0.0600 
    207 H207        1.2070  -24.2957  -53.6061 H         1 UNK         0.0600 
    208 H208        0.7440  -25.8689  -54.2278 H         1 UNK         0.0600 
    209 H209       -0.3792  -24.5174  -54.3280 H         1 UNK         0.0600 
    210 H210       -1.7229  -26.0340  -54.2503 H         1 UNK         0.3000 
    211 H211       -2.8720  -28.4609  -53.0415 H         1 UNK         0.0600 
    212 H212       -3.2995  -27.1344  -55.7714 H         1 UNK         0.0600 
    213 H213       -3.9147  -28.7096  -55.2855 H         1 UNK         0.0600 
    214 H214       -2.1831  -28.4572  -55.4306 H         1 UNK         0.0600 
    215 H215       -3.6806  -25.0777  -53.1842 H         1 UNK         0.3000 
    216 H216       -6.6142  -25.5541  -52.9794 H         1 UNK         0.0600 
    217 H217       -5.8222  -23.9535  -54.7158 H         1 UNK         0.0600 
    218 H218       -4.9753  -23.0129  -53.4927 H         1 UNK         0.0600 
    219 H219       -6.7308  -23.1111  -53.4733 H         1 UNK         0.0600 
    220 H220       -7.7433  -24.0160  -51.4853 H         1 UNK         0.3000 
    221 H221       -6.7881  -24.1461  -48.7602 H         1 UNK         0.0600 
    222 H222       -9.2171  -24.2561  -49.3471 H         1 UNK         0.0600 
    223 H223       -8.8985  -22.8760  -48.3094 H         1 UNK         0.0600 
    224 H224       -9.1417  -22.6335  -50.0349 H         1 UNK         0.0600 
    225 H225       -6.2787  -22.3586  -47.4190 H         1 UNK         0.3000 
    226 H226       -4.2395  -20.7889  -48.2620 H         1 UNK         0.0600 
    227 H227       -4.5911  -21.3243  -45.9144 H         1 UNK         0.0600 
    228 H228       -4.5631  -19.5742  -46.0405 H         1 UNK         0.0600 
    229 H229       -6.0971  -20.4061  -45.8618 H         1 UNK         0.0600 
    230 H230       -7.6213  -19.7782  -48.3102 H         1 UNK         0.3000 
    231 H231       -7.3192  -16.9967  -48.6601 H         1 UNK         0.0600 
    232 H232       -9.6496  -17.1403  -49.5631 H         1 UNK         0.0600 
    233 H233       -9.4701  -18.0856  -48.0943 H         1 UNK         0.0600 
    234 H234       -9.5095  -18.8917  -49.6634 H         1 UNK         0.0600 
    235 H235       -6.7975  -19.6050  -50.9879 H         1 UNK         0.3000 
    236 H236       -7.0693  -18.0380  -53.3853 H         1 UNK         0.0600 
    237 H237       -5.5792  -20.6655  -52.8980 H         1 UNK         0.0600 
    238 H238       -7.2865  -20.5304  -53.3129 H         1 UNK         0.0600 
    239 H239       -6.0567  -20.0216  -54.4611 H         1 UNK         0.0600 
    240 H240       -4.6188  -18.0910  -50.9803 H         1 UNK         0.3000 
    241 H241       -2.3874  -17.2905  -52.6400 H         1 UNK         0.0600 
    242 H242       -5.2170  -15.5044  -51.5709 H         1 UNK         0.3800 
    243 H243       -4.5308  -13.9270  -51.8590 H         1 UNK         0.3800 
    244 H244       -2.4956  -18.3632  -50.1874 H         1 UNK         0.0800 
    245 H245       -2.5388  -16.7288  -49.6618 H         1 UNK         0.0800 
    246 H246       -0.0923  -19.3209  -51.8851 H         1 UNK         0.0800 
    247 H247       -0.7375  -19.6389  -50.2960 H         1 UNK         0.0800 
@<TRIPOS>BOND
     1    1    2 1    
     2    1  127 1    
     3    1  128 1    
     4    1  129 1    
     5    2    3 2    
     6    2    4 am   BACKBONE|DICT|INTERRES
     7    4    5 1    
     8    4  130 1    
     9    5    6 1    
    10    5   65 1    
    11    5  131 1    
    12    6    7 1    
    13    6  132 1    
    14    6  133 1    
    15    7    8 1    
    16    8    9 1    
    17    8  134 1    
    18    8  135 1    
    19    9   10 ar   
    20    9   14 ar   
    21   10   11 ar   
    22   10  136 1    
    23   11   12 ar   
    24   11  126 1    
    25   12   13 ar   
    26   12  137 1    
    27   13   14 ar   
    28   13   15 1    
    29   14  138 1    
    30   15   16 1    
    31   15  139 1    
    32   15  140 1    
    33   16   17 1    
    34   17   18 1    
    35   17  141 1    
    36   17  142 1    
    37   18   19 1    
    38   18   67 1    
    39   18  143 1    
    40   19   20 am   BACKBONE|DICT|INTERRES
    41   19  144 1    
    42   20   21 2    
    43   20   22 1    
    44   22   23 1    
    45   22   24 1    
    46   22  145 1    
    47   23  146 1    
    48   23  147 1    
    49   23  148 1    
    50   24   25 am   BACKBONE|DICT|INTERRES
    51   24  149 1    
    52   25   26 2    
    53   25   27 1    
    54   27   28 1    
    55   27   29 1    
    56   27  150 1    
    57   28  151 1    
    58   28  152 1    
    59   28  153 1    
    60   29   30 am   BACKBONE|DICT|INTERRES
    61   29  154 1    
    62   30   31 2    
    63   30   32 1    
    64   32   33 1    
    65   32   34 1    
    66   32  155 1    
    67   33  156 1    
    68   33  157 1    
    69   33  158 1    
    70   34   35 am   BACKBONE|DICT|INTERRES
    71   34  159 1    
    72   35   36 2    
    73   35   37 1    
    74   37   38 1    
    75   37   39 1    
    76   37  160 1    
    77   38  161 1    
    78   38  162 1    
    79   38  163 1    
    80   39   40 am   BACKBONE|DICT|INTERRES
    81   39  164 1    
    82   40   41 2    
    83   40   42 1    
    84   42   43 1    
    85   42   44 1    
    86   42  165 1    
    87   43  166 1    
    88   43  167 1    
    89   43  168 1    
    90   44   45 am   BACKBONE|DICT|INTERRES
    91   44  169 1    
    92   45   46 2    
    93   45   47 1    
    94   47   48 1    
    95   47   49 1    
    96   47  170 1    
    97   48  171 1    
    98   48  172 1    
    99   48  173 1    
   100   49   50 am   BACKBONE|DICT|INTERRES
   101   49  174 1    
   102   50   51 2    
   103   50   52 1    
   104   52   53 1    
   105   52   54 1    
   106   52  175 1    
   107   53  176 1    
   108   53  177 1    
   109   53  178 1    
   110   54   55 am   BACKBONE|DICT|INTERRES
   111   54  179 1    
   112   55   56 2    
   113   55   57 1    
   114   57   58 1    
   115   57   59 1    
   116   57  180 1    
   117   58  181 1    
   118   58  182 1    
   119   58  183 1    
   120   59   60 am   BACKBONE|DICT|INTERRES
   121   59  184 1    
   122   60   61 2    
   123   60   62 1    
   124   62   63 1    
   125   62   64 1    
   126   62  185 1    
   127   63  186 1    
   128   63  187 1    
   129   63  188 1    
   130   64   65 am   BACKBONE|DICT|INTERRES
   131   64  189 1    
   132   65   66 2    
   133   67   68 2    
   134   67   69 am   BACKBONE|DICT|INTERRES
   135   69   70 1    
   136   69  190 1    
   137   70   71 1    
   138   70   72 1    
   139   70  191 1    
   140   71  192 1    
   141   71  193 1    
   142   71  194 1    
   143   72   73 2    
   144   72   74 am   BACKBONE|DICT|INTERRES
   145   74   75 1    
   146   74  195 1    
   147   75   76 1    
   148   75   77 1    
   149   75  196 1    
   150   76  197 1    
   151   76  198 1    
   152   76  199 1    
   153   77   78 2    
   154   77   79 am   BACKBONE|DICT|INTERRES
   155   79   80 1    
   156   79  200 1    
   157   80   81 1    
   158   80   82 1    
   159   80  201 1    
   160   81  202 1    
   161   81  203 1    
   162   81  204 1    
   163   82   83 2    
   164   82   84 am   BACKBONE|DICT|INTERRES
   165   84   85 1    
   166   84  205 1    
   167   85   86 1    
   168   85   87 1    
   169   85  206 1    
   170   86  207 1    
   171   86  208 1    
   172   86  209 1    
   173   87   88 2    
   174   87   89 am   BACKBONE|DICT|INTERRES
   175   89   90 1    
   176   89  210 1    
   177   90   91 1    
   178   90   92 1    
   179   90  211 1    
   180   91  212 1    
   181   91  213 1    
   182   91  214 1    
   183   92   93 2    
   184   92   94 am   BACKBONE|DICT|INTERRES
   185   94   95 1    
   186   94  215 1    
   187   95   96 1    
   188   95   97 1    
   189   95  216 1    
   190   96  217 1    
   191   96  218 1    
   192   96  219 1    
   193   97   98 2    
   194   97   99 am   BACKBONE|DICT|INTERRES
   195   99  100 1    
   196   99  220 1    
   197  100  101 1    
   198  100  102 1    
   199  100  221 1    
   200  101  222 1    
   201  101  223 1    
   202  101  224 1    
   203  102  103 2    
   204  102  104 am   BACKBONE|DICT|INTERRES
   205  104  105 1    
   206  104  225 1    
   207  105  106 1    
   208  105  107 1    
   209  105  226 1    
   210  106  227 1    
   211  106  228 1    
   212  106  229 1    
   213  107  108 2    
   214  107  109 am   BACKBONE|DICT|INTERRES
   215  109  110 1    
   216  109  230 1    
   217  110  111 1    
   218  110  112 1    
   219  110  231 1    
   220  111  232 1    
   221  111  233 1    
   222  111  234 1    
   223  112  113 2    
   224  112  114 am   BACKBONE|DICT|INTERRES
   225  114  115 1    
   226  114  235 1    
   227  115  116 1    
   228  115  117 1    
   229  115  236 1    
   230  116  237 1    
   231  116  238 1    
   232  116  239 1    
   233  117  118 2    
   234  117  119 am   BACKBONE|DICT|INTERRES
   235  119  120 1    
   236  119  240 1    
   237  120  121 1    
   238  120  124 1    
   239  120  241 1    
   240  121  122 am   BACKBONE|DICT|INTERRES
   241  121  123 2    
   242  122  242 1    
   243  122  243 1    
   244  124  125 1    
   245  124  244 1    
   246  124  245 1    
   247  125  126 1    
   248  126  246 1    
   249  126  247 1    
@<TRIPOS>SUBSTRUCTURE
     1 UNK         1 GROUP             0       ****    0 ROOT    
