@<TRIPOS>MOLECULE
3R540
247   249    1
SMALL
USER_CHARGES


@<TRIPOS>ATOM
      1 CA          4.7627  -13.3447  -49.0880 C.3       0 UNK        -0.1800 
      2 C           3.5687  -13.1044  -48.1782 C.2       0 UNK         0.5000 
      3 O           3.6943  -13.2251  -46.9577 O.2       0 UNK        -0.5000 
      4 N           2.4098  -12.7607  -48.7571 N.am      1 UNK        -0.5000 
      5 CA          1.1505  -12.5055  -48.0423 C.3       1 UNK         0.1400 
      6 C6         -0.0505  -12.3066  -48.9989 C.3       23 UNK        -0.0398 
      7 S7         -0.3624  -13.7835  -50.0253 S.3       23 UNK        -0.2404 
      8 C8         -1.6483  -14.6065  -49.0296 C.3       23 UNK        -0.0205 
      9 C9         -1.8224  -16.0835  -49.3632 C.ar      23 UNK        -0.0193 
     10 C10        -3.1015  -16.6187  -49.5422 C.ar      23 UNK        -0.1150 
     11 C11        -3.2833  -17.9862  -49.7766 C.ar      23 UNK        -0.0193 
     12 C12        -2.1568  -18.8160  -49.8547 C.ar      23 UNK        -0.1150 
     13 C13        -0.8743  -18.3003  -49.6580 C.ar      23 UNK        -0.0193 
     14 C14        -0.7150  -16.9343  -49.4201 C.ar      23 UNK        -0.1150 
     15 C15         0.3390  -19.2175  -49.6790 C.3       23 UNK        -0.0205 
     16 S16         0.6233  -19.9801  -48.0481 S.3       23 UNK        -0.2404 
     17 C17        -0.6124  -21.3194  -48.0573 C.3       23 UNK        -0.0398 
     18 CA         -0.1762  -22.5057  -47.1673 C.3       11 UNK         0.1400 
     19 N          -0.2093  -22.1941  -45.7358 N.am      11 UNK        -0.5000 
     20 C           0.3250  -22.9682  -44.7801 C.2       10 UNK         0.5000 
     21 O           0.9460  -24.0052  -45.0084 O.2       10 UNK        -0.5000 
     22 CA          0.0726  -22.5441  -43.3235 C.3       10 UNK         0.1400 
     23 CB          1.0535  -21.4411  -42.8985 C.3       10 UNK        -0.1800 
     24 N          -1.3042  -22.0922  -43.1212 N.am      10 UNK        -0.5000 
     25 C          -2.3743  -22.9010  -43.1800 C.2       9 UNK         0.5000 
     26 O          -2.2968  -24.1177  -43.3488 O.2       9 UNK        -0.5000 
     27 CA         -3.7666  -22.2433  -43.0863 C.3       9 UNK         0.1400 
     28 CB         -4.2321  -22.1774  -41.6245 C.3       9 UNK        -0.1800 
     29 N          -3.8115  -20.9004  -43.6653 N.am      9 UNK        -0.5000 
     30 C          -3.5185  -20.5995  -44.9378 C.2       8 UNK         0.5000 
     31 O          -3.2880  -21.4491  -45.7982 O.2       8 UNK        -0.5000 
     32 CA         -3.4059  -19.1061  -45.3009 C.3       8 UNK         0.1400 
     33 CB         -4.6569  -18.6404  -46.0591 C.3       8 UNK        -0.1800 
     34 N          -3.1778  -18.2016  -44.1679 N.am      8 UNK        -0.5000 
     35 C          -2.1533  -18.2379  -43.3039 C.2       7 UNK         0.5000 
     36 O          -1.3201  -19.1450  -43.2723 O.2       7 UNK        -0.5000 
     37 CA         -2.0375  -17.0349  -42.3409 C.3       7 UNK         0.1400 
     38 CB         -1.0055  -17.2713  -41.2244 C.3       7 UNK        -0.1800 
     39 N          -1.6579  -15.8341  -43.0833 N.am      7 UNK        -0.5000 
     40 C          -2.4638  -15.1523  -43.9110 C.2       6 UNK         0.5000 
     41 O          -3.6851  -15.3117  -43.9506 O.2       6 UNK        -0.5000 
     42 CA         -1.7944  -14.1857  -44.9101 C.3       6 UNK         0.1400 
     43 CB         -1.8985  -12.7386  -44.4078 C.3       6 UNK        -0.1800 
     44 N          -0.3905  -14.5104  -45.1953 N.am      6 UNK        -0.5000 
     45 C           0.0510  -15.6776  -45.6945 C.2       5 UNK         0.5000 
     46 O          -0.7006  -16.5559  -46.1123 O.2       5 UNK        -0.5000 
     47 CA          1.5714  -15.9427  -45.6805 C.3       5 UNK         0.1400 
     48 CB          2.1152  -16.2326  -47.0878 C.3       5 UNK        -0.1800 
     49 N           2.3807  -14.8981  -45.0381 N.am      5 UNK        -0.5000 
     50 C           2.4038  -14.6863  -43.7130 C.2       4 UNK         0.5000 
     51 O           1.6177  -15.2327  -42.9367 O.2       4 UNK        -0.5000 
     52 CA          3.4736  -13.7450  -43.1349 C.3       4 UNK         0.1400 
     53 CB          4.6304  -14.5845  -42.5535 C.3       4 UNK        -0.1800 
     54 N           3.9906  -12.7594  -44.0908 N.am      4 UNK        -0.5000 
     55 C           4.6985  -11.6782  -43.7310 C.2       3 UNK         0.5000 
     56 O           4.9336  -11.3699  -42.5615 O.2       3 UNK        -0.5000 
     57 CA          5.2338  -10.7833  -44.8596 C.3       3 UNK         0.1400 
     58 CB          6.3677  -11.4762  -45.6339 C.3       3 UNK        -0.1800 
     59 N           4.1717  -10.3866  -45.7795 N.am      3 UNK        -0.5000 
     60 C           3.3249   -9.3701  -45.5622 C.2       2 UNK         0.5000 
     61 O           3.3675   -8.6471  -44.5659 O.2       2 UNK        -0.5000 
     62 CA          2.2590   -9.0959  -46.6422 C.3       2 UNK         0.1400 
     63 CB          2.7030   -7.9408  -47.5530 C.3       2 UNK        -0.1800 
     64 N           1.9630  -10.2643  -47.4721 N.am      2 UNK        -0.5000 
     65 C           1.2694  -11.3308  -47.0529 C.2       1 UNK         0.5000 
     66 O           0.7851  -11.4337  -45.9268 O.2       1 UNK        -0.5000 
     67 C          -1.0049  -23.7623  -47.4867 C.2       11 UNK         0.5000 
     68 O          -0.5460  -24.5963  -48.2653 O.2       11 UNK        -0.5000 
     69 N          -2.1814  -23.9027  -46.8611 N.am      12 UNK        -0.5000 
     70 CA         -3.0375  -25.0842  -46.9762 C.3       12 UNK         0.1400 
     71 CB         -4.3726  -24.8289  -46.2626 C.3       12 UNK        -0.1800 
     72 C          -2.3569  -26.3625  -46.4509 C.2       12 UNK         0.5000 
     73 O          -2.4075  -27.3921  -47.1239 O.2       12 UNK        -0.5000 
     74 N          -1.6910  -26.2621  -45.2911 N.am      13 UNK        -0.5000 
     75 CA         -0.9104  -27.3425  -44.6836 C.3       13 UNK         0.1400 
     76 CB         -0.5009  -26.9387  -43.2592 C.3       13 UNK        -0.1800 
     77 C           0.3269  -27.7367  -45.5137 C.2       13 UNK         0.5000 
     78 O           0.6285  -28.9253  -45.6272 O.2       13 UNK        -0.5000 
     79 N           1.0074  -26.7390  -46.0938 N.am      14 UNK        -0.5000 
     80 CA          2.1803  -26.9136  -46.9547 C.3       14 UNK         0.1400 
     81 CB          2.9361  -25.5772  -47.0329 C.3       14 UNK        -0.1800 
     82 C           1.8473  -27.4123  -48.3759 C.2       14 UNK         0.5000 
     83 O           2.7662  -27.7960  -49.1007 O.2       14 UNK        -0.5000 
     84 N           0.5620  -27.3647  -48.7587 N.am      15 UNK        -0.5000 
     85 CA          0.0233  -27.5989  -50.1044 C.3       15 UNK         0.1400 
     86 CB          0.2562  -29.0536  -50.5627 C.3       15 UNK        -0.1800 
     87 C           0.5158  -26.5462  -51.1239 C.2       15 UNK         0.5000 
     88 O           0.7223  -26.8569  -52.2980 O.2       15 UNK        -0.5000 
     89 N           0.6786  -25.3086  -50.6419 N.am      16 UNK        -0.5000 
     90 CA          1.0942  -24.1239  -51.3917 C.3       16 UNK         0.1400 
     91 CB          2.1555  -23.3778  -50.5659 C.3       16 UNK        -0.1800 
     92 C          -0.0991  -23.1995  -51.7064 C.2       16 UNK         0.5000 
     93 O           0.1001  -22.1215  -52.2681 O.2       16 UNK        -0.5000 
     94 N          -1.3188  -23.6205  -51.3417 N.am      17 UNK        -0.5000 
     95 CA         -2.5940  -22.9301  -51.5507 C.3       17 UNK         0.1400 
     96 CB         -3.6387  -23.5503  -50.6064 C.3       17 UNK        -0.1800 
     97 C          -3.0485  -22.9236  -53.0287 C.2       17 UNK         0.5000 
     98 O          -4.1485  -23.3757  -53.3498 O.2       17 UNK        -0.5000 
     99 N          -2.1769  -22.4205  -53.9092 N.am      18 UNK        -0.5000 
    100 CA        -2.4236  -22.2435  -55.3399 C.3       18 UNK         0.1400 
    101 CB        -1.0779  -22.2930  -56.0799 C.3       18 UNK        -0.1800 
    102 C         -3.1606  -20.9261  -55.6477 C.2       18 UNK         0.5000 
    103 O         -3.7597  -20.8046  -56.7173 O.2       18 UNK        -0.5000 
    104 N         -3.0963  -19.9617  -54.7185 N.am      19 UNK        -0.5000 
    105 CA        -3.7884  -18.6773  -54.7898 C.3       19 UNK         0.1400 
    106 CB        -3.2482  -17.7588  -53.6833 C.3       19 UNK        -0.1800 
    107 C         -5.3088  -18.8581  -54.6463 C.2       19 UNK         0.5000 
    108 O         -5.7530  -19.6276  -53.7910 O.2       19 UNK        -0.5000 
    109 N         -6.0807  -18.1177  -55.4523 N.am      20 UNK        -0.5000 
    110 CA        -7.5441  -18.2064  -55.5543 C.3       20 UNK         0.1400 
    111 CB        -8.0170  -17.2737  -56.6804 C.3       20 UNK        -0.1800 
    112 C         -8.3145  -17.9085  -54.2506 C.2       20 UNK         0.5000 
    113 O         -9.4784  -18.2938  -54.1338 O.2       20 UNK        -0.5000 
    114 N         -7.6536  -17.2454  -53.2932 N.am      21 UNK        -0.5000 
    115 CA        -8.1671  -16.9624  -51.9551 C.3       21 UNK         0.1400 
    116 CB        -7.2738  -15.8957  -51.3004 C.3       21 UNK        -0.1800 
    117 C         -8.2865  -18.2066  -51.0485 C.2       21 UNK         0.5000 
    118 O         -9.0031  -18.1346  -50.0488 O.2       21 UNK        -0.5000 
    119 N         -7.5972  -19.3089  -51.3801 N.am      22 UNK        -0.5000 
    120 CA        -7.6006  -20.5439  -50.5762 C.3       22 UNK         0.1400 
    121 C         -7.3642  -21.8610  -51.3673 C.2       22 UNK         0.5000 
    122 N         -6.8766  -21.8370  -52.5997 N.am      22 UNK        -0.7600 
    123 O         -7.6536  -22.9381  -50.8532 O.2       22 UNK        -0.5000 
    124 C124       -6.6989  -20.4366  -49.3156 C.3       23 UNK        -0.0398 
    125 S125       -4.9087  -20.3082  -49.6618 S.3       23 UNK        -0.2404 
    126 C126       -4.7087  -18.5147  -49.9356 C.3       23 UNK        -0.0205 
    127 H127        5.1291  -14.3632  -48.9600 H         1 UNK         0.0600 
    128 H128        5.5694  -12.6565  -48.8359 H         1 UNK         0.0600 
    129 H129        4.5073  -13.2029  -50.1382 H         1 UNK         0.0600 
    130 H130        2.3593  -12.6979  -49.7642 H         1 UNK         0.3000 
    131 H131        0.9414  -13.3869  -47.4374 H         1 UNK         0.0600 
    132 H132       -0.9576  -12.0668  -48.4404 H         1 UNK         0.0800 
    133 H133        0.1264  -11.4597  -49.6641 H         1 UNK         0.0800 
    134 H134       -1.3855  -14.5310  -47.9765 H         1 UNK         0.0800 
    135 H135       -2.5876  -14.0661  -49.1559 H         1 UNK         0.0800 
    136 H136       -3.9643  -15.9706  -49.4785 H         1 UNK         0.1150 
    137 H137       -2.2671  -19.8718  -50.0446 H         1 UNK         0.1150 
    138 H138        0.2737  -16.5322  -49.2607 H         1 UNK         0.1150 
    139 H139        0.2250  -19.9855  -50.4455 H         1 UNK         0.0800 
    140 H140        1.2276  -18.6480  -49.9551 H         1 UNK         0.0800 
    141 H141       -0.7433  -21.6501  -49.0888 H         1 UNK         0.0800 
    142 H142       -1.5763  -20.9187  -47.7410 H         1 UNK         0.0800 
    143 H143        0.8585  -22.7483  -47.4175 H         1 UNK         0.0600 
    144 H144       -0.7282  -21.3726  -45.4630 H         1 UNK         0.3000 
    145 H145        0.2427  -23.4137  -42.6851 H         1 UNK         0.0600 
    146 H146        2.0846  -21.7884  -42.9749 H         1 UNK         0.0600 
    147 H147        0.8860  -21.1403  -41.8642 H         1 UNK         0.0600 
    148 H148        0.9610  -20.5529  -43.5246 H         1 UNK         0.0600 
    149 H149       -1.4409  -21.0896  -43.0272 H         1 UNK         0.3000 
    150 H150       -4.4682  -22.8675  -43.6422 H         1 UNK         0.0600 
    151 H151       -3.5822  -21.5400  -41.0235 H         1 UNK         0.0600 
    152 H152       -4.2313  -23.1691  -41.1700 H         1 UNK         0.0600 
    153 H153       -5.2477  -21.7882  -41.5505 H         1 UNK         0.0600 
    154 H154       -3.9814  -20.1367  -43.0283 H         1 UNK         0.3000 
    155 H155       -2.5481  -19.0071  -45.9699 H         1 UNK         0.0600 
    156 H156       -5.5370  -18.6282  -45.4153 H         1 UNK         0.0600 
    157 H157       -4.8740  -19.3018  -46.8972 H         1 UNK         0.0600 
    158 H158       -4.5199  -17.6381  -46.4660 H         1 UNK         0.0600 
    159 H159       -3.7685  -17.3781  -44.1362 H         1 UNK         0.3000 
    160 H160       -3.0124  -16.8786  -41.8745 H         1 UNK         0.0600 
    161 H161       -0.0003  -17.4074  -41.6263 H         1 UNK         0.0600 
    162 H162       -1.2526  -18.1620  -40.6454 H         1 UNK         0.0600 
    163 H163       -0.9759  -16.4303  -40.5315 H         1 UNK         0.0600 
    164 H164       -0.6650  -15.6403  -43.1271 H         1 UNK         0.3000 
    165 H165       -2.3534  -14.2627  -45.8440 H         1 UNK         0.0600 
    166 H166       -1.6315  -12.0311  -45.1915 H         1 UNK         0.0600 
    167 H167       -2.9178  -12.4999  -44.1008 H         1 UNK         0.0600 
    168 H168       -1.2465  -12.5603  -43.5519 H         1 UNK         0.0600 
    169 H169        0.2961  -13.8381  -44.8834 H         1 UNK         0.3000 
    170 H170        1.7104  -16.8556  -45.0969 H         1 UNK         0.0600 
    171 H171        3.1983  -16.3554  -47.0811 H         1 UNK         0.0600 
    172 H172        1.8681  -15.4441  -47.7952 H         1 UNK         0.0600 
    173 H173        1.6912  -17.1587  -47.4758 H         1 UNK         0.0600 
    174 H174        3.0168  -14.3947  -45.6483 H         1 UNK         0.3000 
    175 H175        2.9928  -13.2038  -42.3172 H         1 UNK         0.0600 
    176 H176        4.2576  -15.3535  -41.8753 H         1 UNK         0.0600 
    177 H177        5.1924  -15.0867  -43.3417 H         1 UNK         0.0600 
    178 H178        5.3287  -13.9727  -41.9831 H         1 UNK         0.0600 
    179 H179        3.8239  -12.9256  -45.0787 H         1 UNK         0.3000 
    180 H180        5.6559   -9.8856  -44.4022 H         1 UNK         0.0600 
    181 H181        6.0392  -12.3991  -46.1109 H         1 UNK         0.0600 
    182 H182        7.1910  -11.7321  -44.9659 H         1 UNK         0.0600 
    183 H183        6.7701  -10.8242  -46.4092 H         1 UNK         0.0600 
    184 H184        4.0331  -10.9704  -46.5914 H         1 UNK         0.3000 
    185 H185        1.3425   -8.7940  -46.1306 H         1 UNK         0.0600 
    186 H186        2.9045   -7.0399  -46.9717 H         1 UNK         0.0600 
    187 H187        3.6129   -8.1873  -48.1018 H         1 UNK         0.0600 
    188 H188        1.9292   -7.6905  -48.2790 H         1 UNK         0.0600 
    189 H189        2.3469  -10.2693  -48.4061 H         1 UNK         0.3000 
    190 H190       -2.5234  -23.1380  -46.2853 H         1 UNK         0.3000 
    191 H191       -3.2479  -25.2385  -48.0361 H         1 UNK         0.0600 
    192 H192       -4.8629  -23.9355  -46.6505 H         1 UNK         0.0600 
    193 H193       -5.0565  -25.6660  -46.4074 H         1 UNK         0.0600 
    194 H194       -4.2380  -24.6992  -45.1894 H         1 UNK         0.0600 
    195 H195       -1.7384  -25.3905  -44.7720 H         1 UNK         0.3000 
    196 H196       -1.5549  -28.2212  -44.6138 H         1 UNK         0.0600 
    197 H197        0.0703  -27.7323  -42.7759 H         1 UNK         0.0600 
    198 H198       -1.3756  -26.7434  -42.6387 H         1 UNK         0.0600 
    199 H199        0.1168  -26.0401  -43.2572 H         1 UNK         0.0600 
    200 H200        0.7365  -25.7813  -45.8916 H         1 UNK         0.3000 
    201 H201        2.8405  -27.6522  -46.4956 H         1 UNK         0.0600 
    202 H202        3.8392  -25.6691  -47.6376 H         1 UNK         0.0600 
    203 H203        3.2429  -25.2386  -46.0433 H         1 UNK         0.0600 
    204 H204        2.3208  -24.7954  -47.4795 H         1 UNK         0.0600 
    205 H205       -0.1032  -27.0074  -48.0852 H         1 UNK         0.3000 
    206 H206       -1.0546  -27.4534  -50.0207 H         1 UNK         0.0600 
    207 H207       -0.0941  -29.7632  -49.8131 H         1 UNK         0.0600 
    208 H208       -0.2870  -29.2622  -51.4850 H         1 UNK         0.0600 
    209 H209        1.3097  -29.2585  -50.7537 H         1 UNK         0.0600 
    210 H210        0.4149  -25.1421  -49.6715 H         1 UNK         0.3000 
    211 H211        1.5406  -24.4180  -52.3435 H         1 UNK         0.0600 
    212 H212        1.7481  -23.0111  -49.6240 H         1 UNK         0.0600 
    213 H213        2.5455  -22.5174  -51.1111 H         1 UNK         0.0600 
    214 H214        3.0013  -24.0256  -50.3346 H         1 UNK         0.0600 
    215 H215       -1.3759  -24.5228  -50.8940 H         1 UNK         0.3000 
    216 H216       -2.4692  -21.8855  -51.2615 H         1 UNK         0.0600 
    217 H217       -4.6224  -23.1049  -50.7556 H         1 UNK         0.0600 
    218 H218       -3.3700  -23.3805  -49.5644 H         1 UNK         0.0600 
    219 H219       -3.7397  -24.6246  -50.7631 H         1 UNK         0.0600 
    220 H220       -1.2741  -22.1168  -53.5529 H         1 UNK         0.3000 
    221 H221       -3.0443  -23.0652  -55.7035 H         1 UNK         0.0600 
    222 H222       -0.4099  -21.4944  -55.7543 H         1 UNK         0.0600 
    223 H223       -0.5709  -23.2433  -55.9116 H         1 UNK         0.0600 
    224 H224       -1.2188  -22.1863  -57.1563 H         1 UNK         0.0600 
    225 H225       -2.6088  -20.1636  -53.8594 H         1 UNK         0.3000 
    226 H226       -3.5719  -18.2225  -55.7588 H         1 UNK         0.0600 
    227 H227       -3.7556  -16.7933  -53.6876 H         1 UNK         0.0600 
    228 H228       -3.3854  -18.1988  -52.6958 H         1 UNK         0.0600 
    229 H229       -2.1834  -17.5662  -53.8153 H         1 UNK         0.0600 
    230 H230       -5.6333  -17.4924  -56.1072 H         1 UNK         0.3000 
    231 H231       -7.7876  -19.2325  -55.8372 H         1 UNK         0.0600 
    232 H232       -7.7710  -16.2324  -56.4686 H         1 UNK         0.0600 
    233 H233       -9.0981  -17.3350  -56.8131 H         1 UNK         0.0600 
    234 H234       -7.5603  -17.5409  -57.6335 H         1 UNK         0.0600 
    235 H235       -6.7032  -16.9661  -53.4834 H         1 UNK         0.3000 
    236 H236       -9.1707  -16.5446  -52.0589 H         1 UNK         0.0600 
    237 H237       -7.2890  -14.9672  -51.8715 H         1 UNK         0.0600 
    238 H238       -7.6173  -15.6594  -50.2924 H         1 UNK         0.0600 
    239 H239       -6.2372  -16.2235  -51.2255 H         1 UNK         0.0600 
    240 H240       -7.0294  -19.3160  -52.2190 H         1 UNK         0.3000 
    241 H241       -8.6226  -20.6634  -50.2106 H         1 UNK         0.0600 
    242 H242       -6.7029  -22.7142  -53.0639 H         1 UNK         0.3800 
    243 H243       -6.5300  -20.9831  -53.0323 H         1 UNK         0.3800 
    244 H244       -6.8469  -21.3124  -48.6817 H         1 UNK         0.0800 
    245 H245       -7.0067  -19.5897  -48.7018 H         1 UNK         0.0800 
    246 H246       -5.3626  -17.9800  -49.2453 H         1 UNK         0.0800 
    247 H247       -5.0519  -18.2803  -50.9424 H         1 UNK         0.0800 
@<TRIPOS>BOND
     1    1    2 1    
     2    1  127 1    
     3    1  128 1    
     4    1  129 1    
     5    2    3 2    
     6    2    4 am   BACKBONE|DICT|INTERRES
     7    4    5 1    
     8    4  130 1    
     9    5    6 1    
    10    5   65 1    
    11    5  131 1    
    12    6    7 1    
    13    6  132 1    
    14    6  133 1    
    15    7    8 1    
    16    8    9 1    
    17    8  134 1    
    18    8  135 1    
    19    9   10 ar   
    20    9   14 ar   
    21   10   11 ar   
    22   10  136 1    
    23   11   12 ar   
    24   11  126 1    
    25   12   13 ar   
    26   12  137 1    
    27   13   14 ar   
    28   13   15 1    
    29   14  138 1    
    30   15   16 1    
    31   15  139 1    
    32   15  140 1    
    33   16   17 1    
    34   17   18 1    
    35   17  141 1    
    36   17  142 1    
    37   18   19 1    
    38   18   67 1    
    39   18  143 1    
    40   19   20 am   BACKBONE|DICT|INTERRES
    41   19  144 1    
    42   20   21 2    
    43   20   22 1    
    44   22   23 1    
    45   22   24 1    
    46   22  145 1    
    47   23  146 1    
    48   23  147 1    
    49   23  148 1    
    50   24   25 am   BACKBONE|DICT|INTERRES
    51   24  149 1    
    52   25   26 2    
    53   25   27 1    
    54   27   28 1    
    55   27   29 1    
    56   27  150 1    
    57   28  151 1    
    58   28  152 1    
    59   28  153 1    
    60   29   30 am   BACKBONE|DICT|INTERRES
    61   29  154 1    
    62   30   31 2    
    63   30   32 1    
    64   32   33 1    
    65   32   34 1    
    66   32  155 1    
    67   33  156 1    
    68   33  157 1    
    69   33  158 1    
    70   34   35 am   BACKBONE|DICT|INTERRES
    71   34  159 1    
    72   35   36 2    
    73   35   37 1    
    74   37   38 1    
    75   37   39 1    
    76   37  160 1    
    77   38  161 1    
    78   38  162 1    
    79   38  163 1    
    80   39   40 am   BACKBONE|DICT|INTERRES
    81   39  164 1    
    82   40   41 2    
    83   40   42 1    
    84   42   43 1    
    85   42   44 1    
    86   42  165 1    
    87   43  166 1    
    88   43  167 1    
    89   43  168 1    
    90   44   45 am   BACKBONE|DICT|INTERRES
    91   44  169 1    
    92   45   46 2    
    93   45   47 1    
    94   47   48 1    
    95   47   49 1    
    96   47  170 1    
    97   48  171 1    
    98   48  172 1    
    99   48  173 1    
   100   49   50 am   BACKBONE|DICT|INTERRES
   101   49  174 1    
   102   50   51 2    
   103   50   52 1    
   104   52   53 1    
   105   52   54 1    
   106   52  175 1    
   107   53  176 1    
   108   53  177 1    
   109   53  178 1    
   110   54   55 am   BACKBONE|DICT|INTERRES
   111   54  179 1    
   112   55   56 2    
   113   55   57 1    
   114   57   58 1    
   115   57   59 1    
   116   57  180 1    
   117   58  181 1    
   118   58  182 1    
   119   58  183 1    
   120   59   60 am   BACKBONE|DICT|INTERRES
   121   59  184 1    
   122   60   61 2    
   123   60   62 1    
   124   62   63 1    
   125   62   64 1    
   126   62  185 1    
   127   63  186 1    
   128   63  187 1    
   129   63  188 1    
   130   64   65 am   BACKBONE|DICT|INTERRES
   131   64  189 1    
   132   65   66 2    
   133   67   68 2    
   134   67   69 am   BACKBONE|DICT|INTERRES
   135   69   70 1    
   136   69  190 1    
   137   70   71 1    
   138   70   72 1    
   139   70  191 1    
   140   71  192 1    
   141   71  193 1    
   142   71  194 1    
   143   72   73 2    
   144   72   74 am   BACKBONE|DICT|INTERRES
   145   74   75 1    
   146   74  195 1    
   147   75   76 1    
   148   75   77 1    
   149   75  196 1    
   150   76  197 1    
   151   76  198 1    
   152   76  199 1    
   153   77   78 2    
   154   77   79 am   BACKBONE|DICT|INTERRES
   155   79   80 1    
   156   79  200 1    
   157   80   81 1    
   158   80   82 1    
   159   80  201 1    
   160   81  202 1    
   161   81  203 1    
   162   81  204 1    
   163   82   83 2    
   164   82   84 am   BACKBONE|DICT|INTERRES
   165   84   85 1    
   166   84  205 1    
   167   85   86 1    
   168   85   87 1    
   169   85  206 1    
   170   86  207 1    
   171   86  208 1    
   172   86  209 1    
   173   87   88 2    
   174   87   89 am   BACKBONE|DICT|INTERRES
   175   89   90 1    
   176   89  210 1    
   177   90   91 1    
   178   90   92 1    
   179   90  211 1    
   180   91  212 1    
   181   91  213 1    
   182   91  214 1    
   183   92   93 2    
   184   92   94 am   BACKBONE|DICT|INTERRES
   185   94   95 1    
   186   94  215 1    
   187   95   96 1    
   188   95   97 1    
   189   95  216 1    
   190   96  217 1    
   191   96  218 1    
   192   96  219 1    
   193   97   98 2    
   194   97   99 am   BACKBONE|DICT|INTERRES
   195   99  100 1    
   196   99  220 1    
   197  100  101 1    
   198  100  102 1    
   199  100  221 1    
   200  101  222 1    
   201  101  223 1    
   202  101  224 1    
   203  102  103 2    
   204  102  104 am   BACKBONE|DICT|INTERRES
   205  104  105 1    
   206  104  225 1    
   207  105  106 1    
   208  105  107 1    
   209  105  226 1    
   210  106  227 1    
   211  106  228 1    
   212  106  229 1    
   213  107  108 2    
   214  107  109 am   BACKBONE|DICT|INTERRES
   215  109  110 1    
   216  109  230 1    
   217  110  111 1    
   218  110  112 1    
   219  110  231 1    
   220  111  232 1    
   221  111  233 1    
   222  111  234 1    
   223  112  113 2    
   224  112  114 am   BACKBONE|DICT|INTERRES
   225  114  115 1    
   226  114  235 1    
   227  115  116 1    
   228  115  117 1    
   229  115  236 1    
   230  116  237 1    
   231  116  238 1    
   232  116  239 1    
   233  117  118 2    
   234  117  119 am   BACKBONE|DICT|INTERRES
   235  119  120 1    
   236  119  240 1    
   237  120  121 1    
   238  120  124 1    
   239  120  241 1    
   240  121  122 am   BACKBONE|DICT|INTERRES
   241  121  123 2    
   242  122  242 1    
   243  122  243 1    
   244  124  125 1    
   245  124  244 1    
   246  124  245 1    
   247  125  126 1    
   248  126  246 1    
   249  126  247 1    
@<TRIPOS>SUBSTRUCTURE
     1 UNK         1 GROUP             0       ****    0 ROOT    
