@<TRIPOS>MOLECULE
3R540
247   249    1
SMALL
USER_CHARGES


@<TRIPOS>ATOM
      1 CA         -4.3533  -10.4215  -46.3463 C.3       0 UNK        -0.1800 
      2 C          -3.2267  -11.4443  -46.3479 C.2       0 UNK         0.5000 
      3 O          -2.1193  -11.1344  -45.9125 O.2       0 UNK        -0.5000 
      4 N          -3.5060  -12.6654  -46.8232 N.am      1 UNK        -0.5000 
      5 CA         -2.5604  -13.7875  -46.9103 C.3       1 UNK         0.1400 
      6 C6         -3.2130  -14.9877  -47.6407 C.3       23 UNK        -0.0398 
      7 S7         -2.0527  -16.3135  -48.1105 S.3       23 UNK        -0.2404 
      8 C8         -1.5000  -15.7581  -49.7538 C.3       23 UNK        -0.0205 
      9 C9         -0.8959  -16.9162  -50.5303 C.ar      23 UNK        -0.0193 
     10 C10        -1.6226  -17.5340  -51.5506 C.ar      23 UNK        -0.1150 
     11 C11        -1.1030  -18.6456  -52.2201 C.ar      23 UNK        -0.0193 
     12 C12         0.1583  -19.1342  -51.8699 C.ar      23 UNK        -0.1150 
     13 C13         0.8868  -18.5331  -50.8388 C.ar      23 UNK        -0.0193 
     14 C14         0.3668  -17.4082  -50.1922 C.ar      23 UNK        -0.1150 
     15 C15         2.1763  -19.1689  -50.3376 C.3       23 UNK        -0.0205 
     16 S16         1.8836  -20.7721  -49.5021 S.3       23 UNK        -0.2404 
     17 C17         0.3027  -20.4786  -48.6353 C.3       23 UNK        -0.0398 
     18 CA         -0.1823  -21.6827  -47.8034 C.3       11 UNK         0.1400 
     19 N           0.7483  -22.0014  -46.7116 N.am      11 UNK        -0.5000 
     20 C           0.5642  -22.8368  -45.6795 C.2       10 UNK         0.5000 
     21 O          -0.4991  -23.4051  -45.4292 O.2       10 UNK        -0.5000 
     22 CA          1.7767  -23.0996  -44.7788 C.3       10 UNK         0.1400 
     23 CB          3.1224  -23.0548  -45.5299 C.3       10 UNK        -0.1800 
     24 N           1.7954  -22.1501  -43.6689 N.am      10 UNK        -0.5000 
     25 C           2.1670  -22.4634  -42.4199 C.2       9 UNK         0.5000 
     26 O           2.4598  -23.6087  -42.0714 O.2       9 UNK        -0.5000 
     27 CA          2.2684  -21.3327  -41.3743 C.3       9 UNK         0.1400 
     28 CB          3.7366  -21.1081  -40.9769 C.3       9 UNK        -0.1800 
     29 N           1.7106  -20.0550  -41.8128 N.am      9 UNK        -0.5000 
     30 C           0.4080  -19.7462  -41.8328 C.2       8 UNK         0.5000 
     31 O          -0.4848  -20.5103  -41.4668 O.2       8 UNK        -0.5000 
     32 CA          0.0459  -18.3535  -42.3860 C.3       8 UNK         0.1400 
     33 CB          0.1249  -17.2964  -41.2758 C.3       8 UNK        -0.1800 
     34 N           0.8936  -17.9436  -43.5087 N.am      8 UNK        -0.5000 
     35 C           1.0004  -18.6084  -44.6675 C.2       7 UNK         0.5000 
     36 O           0.3671  -19.6302  -44.9240 O.2       7 UNK        -0.5000 
     37 CA          2.0211  -18.0849  -45.6880 C.3       7 UNK         0.1400 
     38 CB          1.4335  -16.9305  -46.5050 C.3       7 UNK        -0.1800 
     39 N           3.2540  -17.6538  -45.0342 N.am      7 UNK        -0.5000 
     40 C           4.2077  -18.4938  -44.6089 C.2       6 UNK         0.5000 
     41 O           4.1697  -19.7121  -44.7763 O.2       6 UNK        -0.5000 
     42 CA          5.3937  -17.8715  -43.8487 C.3       6 UNK         0.1400 
     43 CB          6.4924  -17.4333  -44.8286 C.3       6 UNK        -0.1800 
     44 N           5.0051  -16.7306  -43.0181 N.am      6 UNK        -0.5000 
     45 C           4.2171  -16.8150  -41.9374 C.2       5 UNK         0.5000 
     46 O           3.7454  -17.8703  -41.5158 O.2       5 UNK        -0.5000 
     47 CA          3.8595  -15.4898  -41.2391 C.3       5 UNK         0.1400 
     48 CB          4.9414  -15.1096  -40.2174 C.3       5 UNK        -0.1800 
     49 N           3.6477  -14.3702  -42.1627 N.am      5 UNK        -0.5000 
     50 C           2.7163  -14.3421  -43.1246 C.2       4 UNK         0.5000 
     51 O           1.9775  -15.2922  -43.3880 O.2       4 UNK        -0.5000 
     52 CA          2.5837  -13.0395  -43.9252 C.3       4 UNK         0.1400 
     53 CB          2.7620  -13.2862  -45.4314 C.3       4 UNK        -0.1800 
     54 N           1.2603  -12.4786  -43.6811 N.am      4 UNK        -0.5000 
     55 C           0.9645  -11.6549  -42.6659 C.2       3 UNK         0.5000 
     56 O           1.8086  -11.1894  -41.8989 O.2       3 UNK        -0.5000 
     57 CA         -0.5199  -11.2959  -42.4568 C.3       3 UNK         0.1400 
     58 CB         -0.8424   -9.9372  -43.0963 C.3       3 UNK        -0.1800 
     59 N          -1.4265  -12.3183  -42.9851 N.am      3 UNK        -0.5000 
     60 C          -1.6257  -13.5101  -42.4004 C.2       2 UNK         0.5000 
     61 O          -1.1299  -13.8157  -41.3155 O.2       2 UNK        -0.5000 
     62 CA         -2.5220  -14.5384  -43.1239 C.3       2 UNK         0.1400 
     63 CB         -3.8267  -14.7662  -42.3448 C.3       2 UNK        -0.1800 
     64 N          -2.8573  -14.1924  -44.5065 N.am      2 UNK        -0.5000 
     65 C          -1.9903  -14.1824  -45.5286 C.2       1 UNK         0.5000 
     66 O          -0.7874  -14.4044  -45.3997 O.2       1 UNK        -0.5000 
     67 C          -1.6452  -21.4276  -47.3876 C.2       11 UNK         0.5000 
     68 O          -2.5512  -21.8693  -48.0954 O.2       11 UNK        -0.5000 
     69 N          -1.8575  -20.7472  -46.2552 N.am      12 UNK        -0.5000 
     70 CA         -3.1784  -20.4367  -45.7055 C.3       12 UNK         0.1400 
     71 CB         -3.0101  -19.5105  -44.4936 C.3       12 UNK        -0.1800 
     72 C          -4.0091  -21.6808  -45.3289 C.2       12 UNK         0.5000 
     73 O          -5.2367  -21.5930  -45.3042 O.2       12 UNK        -0.5000 
     74 N          -3.3362  -22.8091  -45.0682 N.am      13 UNK        -0.5000 
     75 CA         -3.9459  -24.1124  -44.8193 C.3       13 UNK         0.1400 
     76 CB         -3.3790  -24.6906  -43.5130 C.3       13 UNK        -0.1800 
     77 C          -3.6861  -25.0732  -45.9917 C.2       13 UNK         0.5000 
     78 O          -4.6121  -25.7554  -46.4291 O.2       13 UNK        -0.5000 
     79 N          -2.4378  -25.1137  -46.4802 N.am      14 UNK        -0.5000 
     80 CA         -1.9590  -26.0675  -47.4839 C.3       14 UNK         0.1400 
     81 CB         -0.4233  -26.0271  -47.5271 C.3       14 UNK        -0.1800 
     82 C          -2.5413  -25.8369  -48.8890 C.2       14 UNK         0.5000 
     83 O          -2.8662  -26.8062  -49.5754 O.2       14 UNK        -0.5000 
     84 N          -2.6670  -24.5644  -49.2829 N.am      15 UNK        -0.5000 
     85 CA         -3.2523  -24.1333  -50.5544 C.3       15 UNK         0.1400 
     86 CB         -2.2777  -23.1530  -51.2354 C.3       15 UNK        -0.1800 
     87 C          -4.6268  -23.4721  -50.3434 C.2       15 UNK         0.5000 
     88 O          -5.2471  -23.0496  -51.3180 O.2       15 UNK        -0.5000 
     89 N          -5.0524  -23.3290  -49.0769 N.am      16 UNK        -0.5000 
     90 CA         -6.2343  -22.5947  -48.6044 C.3       16 UNK         0.1400 
     91 CB         -7.5239  -23.3179  -49.0438 C.3       16 UNK        -0.1800 
     92 C          -6.2312  -21.1008  -49.0088 C.2       16 UNK         0.5000 
     93 O          -7.2943  -20.4809  -49.0647 O.2       16 UNK        -0.5000 
     94 N          -5.0394  -20.5701  -49.3308 N.am      17 UNK        -0.5000 
     95 CA         -4.7730  -19.2790  -49.9749 C.3       17 UNK         0.1400 
     96 CB         -5.0907  -18.1193  -49.0093 C.3       17 UNK        -0.1800 
     97 C          -5.4552  -19.0995  -51.3561 C.2       17 UNK         0.5000 
     98 O          -5.6046  -17.9633  -51.8090 O.2       17 UNK        -0.5000 
     99 N          -5.8617  -20.1993  -52.0104 N.am      18 UNK        -0.5000 
    100 CA        -6.5593  -20.1860  -53.2958 C.3       18 UNK         0.1400 
    101 CB        -7.3035  -21.5163  -53.4871 C.3       18 UNK        -0.1800 
    102 C         -5.5746  -19.9461  -54.4496 C.2       18 UNK         0.5000 
    103 O         -4.5624  -20.6428  -54.5338 O.2       18 UNK        -0.5000 
    104 N         -5.9026  -18.9916  -55.3311 N.am      19 UNK        -0.5000 
    105 CA        -5.0518  -18.4999  -56.4230 C.3       19 UNK         0.1400 
    106 CB        -5.7990  -17.3859  -57.1721 C.3       19 UNK        -0.1800 
    107 C         -4.5651  -19.5756  -57.4154 C.2       19 UNK         0.5000 
    108 O         -3.4764  -19.4418  -57.9745 O.2       19 UNK        -0.5000 
    109 N         -5.3720  -20.6257  -57.6082 N.am      20 UNK        -0.5000 
    110 CA        -5.0564  -21.7676  -58.4662 C.3       20 UNK         0.1400 
    111 CB        -6.3724  -22.4562  -58.8621 C.3       20 UNK        -0.1800 
    112 C         -4.0968  -22.7838  -57.8128 C.2       20 UNK         0.5000 
    113 O         -3.5462  -23.6239  -58.5258 O.2       20 UNK        -0.5000 
    114 N         -3.9331  -22.7203  -56.4844 N.am      21 UNK        -0.5000 
    115 CA        -3.1917  -23.6974  -55.6861 C.3       21 UNK         0.1400 
    116 CB        -4.0658  -24.0988  -54.4863 C.3       21 UNK        -0.1800 
    117 C         -1.8155  -23.1856  -55.2195 C.2       21 UNK         0.5000 
    118 O         -1.0945  -23.9439  -54.5690 O.2       21 UNK        -0.5000 
    119 N         -1.4670  -21.9294  -55.5326 N.am      22 UNK        -0.5000 
    120 CA        -0.1798  -21.3083  -55.1754 C.3       22 UNK         0.1400 
    121 C          1.0419  -22.0103  -55.8356 C.2       22 UNK         0.5000 
    122 N          2.1597  -22.1238  -55.1305 N.am      22 UNK        -0.7600 
    123 O          1.0006  -22.4095  -56.9974 O.2       22 UNK        -0.5000 
    124 C124       -0.1414  -19.7879  -55.4924 C.3       23 UNK        -0.0398 
    125 S125       -1.5736  -18.7874  -54.9540 S.3       23 UNK        -0.2404 
    126 C126       -1.9446  -19.3540  -53.2658 C.3       23 UNK        -0.0205 
    127 H127       -4.5457  -10.0784  -45.3298 H         1 UNK         0.0600 
    128 H128       -5.2787  -10.8358  -46.7471 H         1 UNK         0.0600 
    129 H129       -4.0762   -9.5585  -46.9516 H         1 UNK         0.0600 
    130 H130       -4.4387  -12.8504  -47.1643 H         1 UNK         0.3000 
    131 H131       -1.7203  -13.4418  -47.5166 H         1 UNK         0.0600 
    132 H132       -3.7189  -14.6442  -48.5438 H         1 UNK         0.0800 
    133 H133       -3.9952  -15.4308  -47.0217 H         1 UNK         0.0800 
    134 H134       -2.3393  -15.3345  -50.3073 H         1 UNK         0.0800 
    135 H135       -0.7645  -14.9604  -49.6408 H         1 UNK         0.0800 
    136 H136       -2.6080  -17.1680  -51.8043 H         1 UNK         0.1150 
    137 H137        0.5500  -20.0170  -52.3525 H         1 UNK         0.1150 
    138 H138        0.9161  -16.9475  -49.3846 H         1 UNK         0.1150 
    139 H139        2.8593  -19.3192  -51.1746 H         1 UNK         0.0800 
    140 H140        2.6860  -18.5008  -49.6415 H         1 UNK         0.0800 
    141 H141       -0.4492  -20.2432  -49.3904 H         1 UNK         0.0800 
    142 H142        0.3999  -19.5902  -48.0091 H         1 UNK         0.0800 
    143 H143       -0.1970  -22.5582  -48.4553 H         1 UNK         0.0600 
    144 H144        1.6625  -21.5845  -46.8064 H         1 UNK         0.3000 
    145 H145        1.6438  -24.1147  -44.3986 H         1 UNK         0.0600 
    146 H146        3.9369  -23.3888  -44.8870 H         1 UNK         0.0600 
    147 H147        3.1092  -23.7118  -46.4007 H         1 UNK         0.0600 
    148 H148        3.3691  -22.0501  -45.8735 H         1 UNK         0.0600 
    149 H149        1.5079  -21.2023  -43.8814 H         1 UNK         0.3000 
    150 H150        1.7245  -21.6632  -40.4871 H         1 UNK         0.0600 
    151 H151        4.1930  -22.0283  -40.6101 H         1 UNK         0.0600 
    152 H152        3.8206  -20.3672  -40.1816 H         1 UNK         0.0600 
    153 H153        4.3306  -20.7597  -41.8231 H         1 UNK         0.0600 
    154 H154        2.3801  -19.3377  -42.0705 H         1 UNK         0.3000 
    155 H155       -0.9828  -18.3877  -42.7454 H         1 UNK         0.0600 
    156 H156       -0.1110  -16.3039  -41.6572 H         1 UNK         0.0600 
    157 H157       -0.5829  -17.5168  -40.4761 H         1 UNK         0.0600 
    158 H158        1.1190  -17.2540  -40.8315 H         1 UNK         0.0600 
    159 H159        1.4061  -17.0716  -43.3990 H         1 UNK         0.3000 
    160 H160        2.2543  -18.8981  -46.3790 H         1 UNK         0.0600 
    161 H161        1.1562  -16.0925  -45.8680 H         1 UNK         0.0600 
    162 H162        0.5333  -17.2501  -47.0288 H         1 UNK         0.0600 
    163 H163        2.1407  -16.5691  -47.2513 H         1 UNK         0.0600 
    164 H164        3.3251  -16.6742  -44.7998 H         1 UNK         0.3000 
    165 H165        5.8068  -18.6417  -43.1937 H         1 UNK         0.0600 
    166 H166        7.3699  -17.0636  -44.2978 H         1 UNK         0.0600 
    167 H167        6.8177  -18.2695  -45.4490 H         1 UNK         0.0600 
    168 H168        6.1457  -16.6440  -45.4969 H         1 UNK         0.0600 
    169 H169        5.3459  -15.8223  -43.2966 H         1 UNK         0.3000 
    170 H170        2.9248  -15.6473  -40.6978 H         1 UNK         0.0600 
    171 H171        5.1059  -15.9183  -39.5039 H         1 UNK         0.0600 
    172 H172        5.8962  -14.8984  -40.7004 H         1 UNK         0.0600 
    173 H173        4.6515  -14.2281  -39.6452 H         1 UNK         0.0600 
    174 H174        4.2071  -13.5449  -42.0015 H         1 UNK         0.3000 
    175 H175        3.3562  -12.3362  -43.6067 H         1 UNK         0.0600 
    176 H176        3.7164  -13.7708  -45.6405 H         1 UNK         0.0600 
    177 H177        1.9732  -13.9205  -45.8349 H         1 UNK         0.0600 
    178 H178        2.7447  -12.3474  -45.9851 H         1 UNK         0.0600 
    179 H179        0.5032  -12.8818  -44.2197 H         1 UNK         0.3000 
    180 H180       -0.6917  -11.2077  -41.3819 H         1 UNK         0.0600 
    181 H181       -0.5977   -9.9230  -44.1585 H         1 UNK         0.0600 
    182 H182       -0.2682   -9.1406  -42.6218 H         1 UNK         0.0600 
    183 H183       -1.8979   -9.6864  -42.9890 H         1 UNK         0.0600 
    184 H184       -1.8439  -12.1326  -43.8884 H         1 UNK         0.3000 
    185 H185       -1.9705  -15.4809  -43.1427 H         1 UNK         0.0600 
    186 H186       -3.6224  -15.0719  -41.3178 H         1 UNK         0.0600 
    187 H187       -4.4330  -13.8605  -42.3034 H         1 UNK         0.0600 
    188 H188       -4.4268  -15.5537  -42.8012 H         1 UNK         0.0600 
    189 H189       -3.8200  -13.9497  -44.6894 H         1 UNK         0.3000 
    190 H190       -1.0513  -20.4169  -45.7265 H         1 UNK         0.3000 
    191 H191       -3.7353  -19.8966  -46.4734 H         1 UNK         0.0600 
    192 H192       -2.4532  -20.0031  -43.6958 H         1 UNK         0.0600 
    193 H193       -3.9782  -19.2154  -44.0870 H         1 UNK         0.0600 
    194 H194       -2.4791  -18.5978  -44.7658 H         1 UNK         0.0600 
    195 H195       -2.3226  -22.7920  -45.1293 H         1 UNK         0.3000 
    196 H196       -5.0275  -24.0169  -44.7033 H         1 UNK         0.0600 
    197 H197       -3.8042  -25.6728  -43.3027 H         1 UNK         0.0600 
    198 H198       -3.6138  -24.0461  -42.6658 H         1 UNK         0.0600 
    199 H199       -2.2947  -24.8023  -43.5557 H         1 UNK         0.0600 
    200 H200       -1.7294  -24.5164  -46.0583 H         1 UNK         0.3000 
    201 H201       -2.2601  -27.0669  -47.1626 H         1 UNK         0.0600 
    202 H202        0.0052  -26.2479  -46.5493 H         1 UNK         0.0600 
    203 H203       -0.0537  -25.0508  -47.8421 H         1 UNK         0.0600 
    204 H204       -0.0329  -26.7665  -48.2275 H         1 UNK         0.0600 
    205 H205       -2.4022  -23.8193  -48.6491 H         1 UNK         0.3000 
    206 H206       -3.4039  -24.9829  -51.2229 H         1 UNK         0.0600 
    207 H207       -1.3160  -23.6275  -51.4309 H         1 UNK         0.0600 
    208 H208       -2.6657  -22.8100  -52.1941 H         1 UNK         0.0600 
    209 H209       -2.0953  -22.2658  -50.6299 H         1 UNK         0.0600 
    210 H210       -4.4580  -23.7027  -48.3521 H         1 UNK         0.3000 
    211 H211       -6.1976  -22.6210  -47.5160 H         1 UNK         0.0600 
    212 H212       -7.5030  -24.3691  -48.7565 H         1 UNK         0.0600 
    213 H213       -8.4023  -22.8727  -48.5753 H         1 UNK         0.0600 
    214 H214       -7.6687  -23.2673  -50.1235 H         1 UNK         0.0600 
    215 H215       -4.2254  -21.1582  -49.1893 H         1 UNK         0.3000 
    216 H216       -3.6995  -19.2594  -50.1679 H         1 UNK         0.0600 
    217 H217       -6.1586  -18.0419  -48.8051 H         1 UNK         0.0600 
    218 H218       -4.7683  -17.1641  -49.4251 H         1 UNK         0.0600 
    219 H219       -4.5746  -18.2445  -48.0580 H         1 UNK         0.0600 
    220 H220       -5.6578  -21.1163  -51.6250 H         1 UNK         0.3000 
    221 H221       -7.3004  -19.3840  -53.2802 H         1 UNK         0.0600 
    222 H222       -7.9925  -21.7048  -52.6634 H         1 UNK         0.0600 
    223 H223       -6.6156  -22.3603  -53.5455 H         1 UNK         0.0600 
    224 H224       -7.8884  -21.5075  -54.4075 H         1 UNK         0.0600 
    225 H225       -6.7657  -18.4869  -55.1899 H         1 UNK         0.3000 
    226 H226       -4.1675  -18.0563  -55.9652 H         1 UNK         0.0600 
    227 H227       -6.0508  -16.5609  -56.5054 H         1 UNK         0.0600 
    228 H228       -5.1860  -16.9753  -57.9757 H         1 UNK         0.0600 
    229 H229       -6.7238  -17.7526  -57.6193 H         1 UNK         0.0600 
    230 H230       -6.2470  -20.6584  -57.1061 H         1 UNK         0.3000 
    231 H231       -4.5771  -21.4029  -59.3773 H         1 UNK         0.0600 
    232 H232       -6.9017  -22.8435  -57.9906 H         1 UNK         0.0600 
    233 H233       -6.1889  -23.2955  -59.5343 H         1 UNK         0.0600 
    234 H234       -7.0382  -21.7666  -59.3814 H         1 UNK         0.0600 
    235 H235       -4.3616  -21.9624  -55.9606 H         1 UNK         0.3000 
    236 H236       -3.0050  -24.5999  -56.2715 H         1 UNK         0.0600 
    237 H237       -5.0093  -24.5347  -54.8145 H         1 UNK         0.0600 
    238 H238       -3.5671  -24.8399  -53.8608 H         1 UNK         0.0600 
    239 H239       -4.2986  -23.2401  -53.8576 H         1 UNK         0.0600 
    240 H240       -2.1120  -21.3611  -56.0619 H         1 UNK         0.3000 
    241 H241       -0.0671  -21.4333  -54.0983 H         1 UNK         0.0600 
    242 H242        2.9614  -22.5627  -55.5567 H         1 UNK         0.3800 
    243 H243        2.2247  -21.8022  -54.1775 H         1 UNK         0.3800 
    244 H244       -0.0501  -19.6365  -56.5697 H         1 UNK         0.0800 
    245 H245        0.7525  -19.3414  -55.0534 H         1 UNK         0.0800 
    246 H246       -2.9947  -19.1372  -53.0741 H         1 UNK         0.0800 
    247 H247       -1.8577  -20.4352  -53.1707 H         1 UNK         0.0800 
@<TRIPOS>BOND
     1    1    2 1    
     2    1  127 1    
     3    1  128 1    
     4    1  129 1    
     5    2    3 2    
     6    2    4 am   BACKBONE|DICT|INTERRES
     7    4    5 1    
     8    4  130 1    
     9    5    6 1    
    10    5   65 1    
    11    5  131 1    
    12    6    7 1    
    13    6  132 1    
    14    6  133 1    
    15    7    8 1    
    16    8    9 1    
    17    8  134 1    
    18    8  135 1    
    19    9   10 ar   
    20    9   14 ar   
    21   10   11 ar   
    22   10  136 1    
    23   11   12 ar   
    24   11  126 1    
    25   12   13 ar   
    26   12  137 1    
    27   13   14 ar   
    28   13   15 1    
    29   14  138 1    
    30   15   16 1    
    31   15  139 1    
    32   15  140 1    
    33   16   17 1    
    34   17   18 1    
    35   17  141 1    
    36   17  142 1    
    37   18   19 1    
    38   18   67 1    
    39   18  143 1    
    40   19   20 am   BACKBONE|DICT|INTERRES
    41   19  144 1    
    42   20   21 2    
    43   20   22 1    
    44   22   23 1    
    45   22   24 1    
    46   22  145 1    
    47   23  146 1    
    48   23  147 1    
    49   23  148 1    
    50   24   25 am   BACKBONE|DICT|INTERRES
    51   24  149 1    
    52   25   26 2    
    53   25   27 1    
    54   27   28 1    
    55   27   29 1    
    56   27  150 1    
    57   28  151 1    
    58   28  152 1    
    59   28  153 1    
    60   29   30 am   BACKBONE|DICT|INTERRES
    61   29  154 1    
    62   30   31 2    
    63   30   32 1    
    64   32   33 1    
    65   32   34 1    
    66   32  155 1    
    67   33  156 1    
    68   33  157 1    
    69   33  158 1    
    70   34   35 am   BACKBONE|DICT|INTERRES
    71   34  159 1    
    72   35   36 2    
    73   35   37 1    
    74   37   38 1    
    75   37   39 1    
    76   37  160 1    
    77   38  161 1    
    78   38  162 1    
    79   38  163 1    
    80   39   40 am   BACKBONE|DICT|INTERRES
    81   39  164 1    
    82   40   41 2    
    83   40   42 1    
    84   42   43 1    
    85   42   44 1    
    86   42  165 1    
    87   43  166 1    
    88   43  167 1    
    89   43  168 1    
    90   44   45 am   BACKBONE|DICT|INTERRES
    91   44  169 1    
    92   45   46 2    
    93   45   47 1    
    94   47   48 1    
    95   47   49 1    
    96   47  170 1    
    97   48  171 1    
    98   48  172 1    
    99   48  173 1    
   100   49   50 am   BACKBONE|DICT|INTERRES
   101   49  174 1    
   102   50   51 2    
   103   50   52 1    
   104   52   53 1    
   105   52   54 1    
   106   52  175 1    
   107   53  176 1    
   108   53  177 1    
   109   53  178 1    
   110   54   55 am   BACKBONE|DICT|INTERRES
   111   54  179 1    
   112   55   56 2    
   113   55   57 1    
   114   57   58 1    
   115   57   59 1    
   116   57  180 1    
   117   58  181 1    
   118   58  182 1    
   119   58  183 1    
   120   59   60 am   BACKBONE|DICT|INTERRES
   121   59  184 1    
   122   60   61 2    
   123   60   62 1    
   124   62   63 1    
   125   62   64 1    
   126   62  185 1    
   127   63  186 1    
   128   63  187 1    
   129   63  188 1    
   130   64   65 am   BACKBONE|DICT|INTERRES
   131   64  189 1    
   132   65   66 2    
   133   67   68 2    
   134   67   69 am   BACKBONE|DICT|INTERRES
   135   69   70 1    
   136   69  190 1    
   137   70   71 1    
   138   70   72 1    
   139   70  191 1    
   140   71  192 1    
   141   71  193 1    
   142   71  194 1    
   143   72   73 2    
   144   72   74 am   BACKBONE|DICT|INTERRES
   145   74   75 1    
   146   74  195 1    
   147   75   76 1    
   148   75   77 1    
   149   75  196 1    
   150   76  197 1    
   151   76  198 1    
   152   76  199 1    
   153   77   78 2    
   154   77   79 am   BACKBONE|DICT|INTERRES
   155   79   80 1    
   156   79  200 1    
   157   80   81 1    
   158   80   82 1    
   159   80  201 1    
   160   81  202 1    
   161   81  203 1    
   162   81  204 1    
   163   82   83 2    
   164   82   84 am   BACKBONE|DICT|INTERRES
   165   84   85 1    
   166   84  205 1    
   167   85   86 1    
   168   85   87 1    
   169   85  206 1    
   170   86  207 1    
   171   86  208 1    
   172   86  209 1    
   173   87   88 2    
   174   87   89 am   BACKBONE|DICT|INTERRES
   175   89   90 1    
   176   89  210 1    
   177   90   91 1    
   178   90   92 1    
   179   90  211 1    
   180   91  212 1    
   181   91  213 1    
   182   91  214 1    
   183   92   93 2    
   184   92   94 am   BACKBONE|DICT|INTERRES
   185   94   95 1    
   186   94  215 1    
   187   95   96 1    
   188   95   97 1    
   189   95  216 1    
   190   96  217 1    
   191   96  218 1    
   192   96  219 1    
   193   97   98 2    
   194   97   99 am   BACKBONE|DICT|INTERRES
   195   99  100 1    
   196   99  220 1    
   197  100  101 1    
   198  100  102 1    
   199  100  221 1    
   200  101  222 1    
   201  101  223 1    
   202  101  224 1    
   203  102  103 2    
   204  102  104 am   BACKBONE|DICT|INTERRES
   205  104  105 1    
   206  104  225 1    
   207  105  106 1    
   208  105  107 1    
   209  105  226 1    
   210  106  227 1    
   211  106  228 1    
   212  106  229 1    
   213  107  108 2    
   214  107  109 am   BACKBONE|DICT|INTERRES
   215  109  110 1    
   216  109  230 1    
   217  110  111 1    
   218  110  112 1    
   219  110  231 1    
   220  111  232 1    
   221  111  233 1    
   222  111  234 1    
   223  112  113 2    
   224  112  114 am   BACKBONE|DICT|INTERRES
   225  114  115 1    
   226  114  235 1    
   227  115  116 1    
   228  115  117 1    
   229  115  236 1    
   230  116  237 1    
   231  116  238 1    
   232  116  239 1    
   233  117  118 2    
   234  117  119 am   BACKBONE|DICT|INTERRES
   235  119  120 1    
   236  119  240 1    
   237  120  121 1    
   238  120  124 1    
   239  120  241 1    
   240  121  122 am   BACKBONE|DICT|INTERRES
   241  121  123 2    
   242  122  242 1    
   243  122  243 1    
   244  124  125 1    
   245  124  244 1    
   246  124  245 1    
   247  125  126 1    
   248  126  246 1    
   249  126  247 1    
@<TRIPOS>SUBSTRUCTURE
     1 UNK         1 GROUP             0       ****    0 ROOT    
