@<TRIPOS>MOLECULE
3R540
247   249    1
SMALL
USER_CHARGES


@<TRIPOS>ATOM
      1 CA         -5.7095  -14.5385  -45.9230 C.3       0 UNK        -0.1800 
      2 C          -4.9116  -13.2672  -46.1771 C.2       0 UNK         0.5000 
      3 O          -5.2998  -12.1943  -45.7143 O.2       0 UNK        -0.5000 
      4 N          -3.7994  -13.3833  -46.9107 N.am      1 UNK        -0.5000 
      5 CA         -2.8678  -12.2952  -47.2038 C.3       1 UNK         0.1400 
      6 C6         -1.9856  -12.6126  -48.4351 C.3       23 UNK        -0.0398 
      7 S7         -2.8798  -12.6332  -50.0301 S.3       23 UNK        -0.2404 
      8 C8         -3.6421  -14.2938  -50.1531 C.3       23 UNK        -0.0205 
      9 C9         -2.8099  -15.4329  -49.5741 C.ar      23 UNK        -0.0193 
     10 C10        -1.4697  -15.6073  -49.9381 C.ar      23 UNK        -0.1150 
     11 C11        -0.6985  -16.6045  -49.3353 C.ar      23 UNK        -0.0193 
     12 C12        -1.2887  -17.4674  -48.4093 C.ar      23 UNK        -0.1150 
     13 C13        -2.6346  -17.3280  -48.0644 C.ar      23 UNK        -0.0193 
     14 C14        -3.3885  -16.3074  -48.6483 C.ar      23 UNK        -0.1150 
     15 C15        -3.2568  -18.2465  -47.0256 C.3       23 UNK        -0.0205 
     16 S16        -4.4740  -19.3814  -47.7545 S.3       23 UNK        -0.2404 
     17 C17        -4.7201  -20.5328  -46.3586 C.3       23 UNK        -0.0398 
     18 CA         -4.1479  -21.9485  -46.6272 C.3       11 UNK         0.1400 
     19 N          -2.7567  -21.9176  -47.0758 N.am      11 UNK        -0.5000 
     20 C          -2.2440  -22.7157  -48.0187 C.2       10 UNK         0.5000 
     21 O          -2.8891  -23.5810  -48.6089 O.2       10 UNK        -0.5000 
     22 CA         -0.7443  -22.5370  -48.3245 C.3       10 UNK         0.1400 
     23 CB         -0.5487  -21.3670  -49.3005 C.3       10 UNK        -0.1800 
     24 N           0.0610  -22.3055  -47.1221 N.am      10 UNK        -0.5000 
     25 C           0.0884  -23.1166  -46.0528 C.2       9 UNK         0.5000 
     26 O          -0.4828  -24.2064  -46.0121 O.2       9 UNK        -0.5000 
     27 CA          0.8033  -22.6069  -44.7858 C.3       9 UNK         0.1400 
     28 CB          2.2297  -23.1699  -44.7166 C.3       9 UNK        -0.1800 
     29 N           0.8598  -21.1476  -44.6664 N.am      9 UNK        -0.5000 
     30 C          -0.1737  -20.2942  -44.7268 C.2       8 UNK         0.5000 
     31 O          -1.3485  -20.6515  -44.8300 O.2       8 UNK        -0.5000 
     32 CA          0.1562  -18.7881  -44.7257 C.3       8 UNK         0.1400 
     33 CB         -0.2266  -18.1664  -43.3762 C.3       8 UNK        -0.1800 
     34 N           1.5526  -18.4627  -45.0456 N.am      8 UNK        -0.5000 
     35 C           2.1741  -18.7503  -46.2025 C.2       7 UNK         0.5000 
     36 O           1.6291  -19.3685  -47.1187 O.2       7 UNK        -0.5000 
     37 CA          3.6491  -18.3199  -46.3458 C.3       7 UNK         0.1400 
     38 CB          3.9617  -17.7614  -47.7452 C.3       7 UNK        -0.1800 
     39 N           4.0167  -17.3121  -45.3523 N.am      7 UNK        -0.5000 
     40 C           4.8776  -17.4798  -44.3396 C.2       6 UNK         0.5000 
     41 O           5.4819  -18.5309  -44.1250 O.2       6 UNK        -0.5000 
     42 CA          5.1034  -16.2757  -43.3981 C.3       6 UNK         0.1400 
     43 CB          6.4254  -15.5709  -43.7388 C.3       6 UNK        -0.1800 
     44 N           4.0212  -15.2885  -43.4345 N.am      6 UNK        -0.5000 
     45 C           2.7732  -15.5039  -42.9965 C.2       5 UNK         0.5000 
     46 O           2.4250  -16.5419  -42.4349 O.2       5 UNK        -0.5000 
     47 CA          1.7273  -14.4050  -43.2780 C.3       5 UNK         0.1400 
     48 CB          1.5299  -13.5199  -42.0391 C.3       5 UNK        -0.1800 
     49 N           2.0247  -13.5549  -44.4370 N.am      5 UNK        -0.5000 
     50 C           2.1846  -13.9832  -45.6993 C.2       4 UNK         0.5000 
     51 O           2.1709  -15.1733  -46.0157 O.2       4 UNK        -0.5000 
     52 CA          2.4183  -12.9086  -46.7766 C.3       4 UNK         0.1400 
     53 CB          1.9509  -13.3688  -48.1689 C.3       4 UNK        -0.1800 
     54 N           1.7313  -11.6660  -46.4250 N.am      4 UNK        -0.5000 
     55 C           2.3089  -10.4623  -46.3073 C.2       3 UNK         0.5000 
     56 O           3.5125  -10.2663  -46.4786 O.2       3 UNK        -0.5000 
     57 CA          1.4030   -9.2654  -45.9441 C.3       3 UNK         0.1400 
     58 CB          1.2015   -8.3573  -47.1675 C.3       3 UNK        -0.1800 
     59 N           0.0877   -9.6533  -45.4319 N.am      3 UNK        -0.5000 
     60 C          -0.1450  -10.1917  -44.2272 C.2       2 UNK         0.5000 
     61 O           0.7299  -10.3684  -43.3798 O.2       2 UNK        -0.5000 
     62 CA         -1.5905  -10.6532  -43.9450 C.3       2 UNK         0.1400 
     63 CB         -2.3718   -9.5560  -43.2072 C.3       2 UNK        -0.1800 
     64 N          -2.3325  -11.0454  -45.1508 N.am      2 UNK        -0.5000 
     65 C          -1.9834  -12.0497  -45.9661 C.2       1 UNK         0.5000 
     66 O          -0.9939  -12.7595  -45.7786 O.2       1 UNK        -0.5000 
     67 C          -4.2791  -22.8186  -45.3644 C.2       11 UNK         0.5000 
     68 O          -5.2271  -23.5956  -45.2567 O.2       11 UNK        -0.5000 
     69 N          -3.3427  -22.6474  -44.4208 N.am      12 UNK        -0.5000 
     70 CA         -3.4255  -23.2014  -43.0710 C.3       12 UNK         0.1400 
     71 CB         -2.5291  -22.3713  -42.1386 C.3       12 UNK        -0.1800 
     72 C          -3.0698  -24.6946  -42.9678 C.2       12 UNK         0.5000 
     73 O          -3.6025  -25.3642  -42.0814 O.2       12 UNK        -0.5000 
     74 N          -2.1732  -25.1858  -43.8338 N.am      13 UNK        -0.5000 
     75 CA         -1.6586  -26.5556  -43.7878 C.3       13 UNK         0.1400 
     76 CB         -0.1386  -26.5330  -43.5504 C.3       13 UNK        -0.1800 
     77 C          -2.0110  -27.3296  -45.0646 C.2       13 UNK         0.5000 
     78 O          -2.5611  -28.4273  -44.9659 O.2       13 UNK        -0.5000 
     79 N          -1.6903  -26.7607  -46.2356 N.am      14 UNK        -0.5000 
     80 CA         -1.9462  -27.3823  -47.5362 C.3       14 UNK         0.1400 
     81 CB         -1.0932  -26.7077  -48.6212 C.3       14 UNK        -0.1800 
     82 C          -3.4407  -27.3607  -47.8968 C.2       14 UNK         0.5000 
     83 O          -3.9961  -28.4044  -48.2411 O.2       14 UNK        -0.5000 
     84 N          -4.0580  -26.1741  -47.7983 N.am      15 UNK        -0.5000 
     85 CA         -5.4799  -25.8407  -47.9723 C.3       15 UNK         0.1400 
     86 CB         -6.3521  -26.5828  -46.9434 C.3       15 UNK        -0.1800 
     87 C          -6.0346  -26.0184  -49.4001 C.2       15 UNK         0.5000 
     88 O          -6.8322  -25.1930  -49.8441 O.2       15 UNK        -0.5000 
     89 N          -5.5943  -27.0626  -50.1107 N.am      16 UNK        -0.5000 
     90 CA         -5.9766  -27.3890  -51.4865 C.3       16 UNK         0.1400 
     91 CB         -5.4481  -28.7919  -51.8228 C.3       16 UNK        -0.1800 
     92 C          -5.4859  -26.3649  -52.5298 C.2       16 UNK         0.5000 
     93 O          -6.0445  -26.3066  -53.6258 O.2       16 UNK        -0.5000 
     94 N          -4.4633  -25.5794  -52.1711 N.am      17 UNK        -0.5000 
     95 CA         -3.8775  -24.5188  -52.9866 C.3       17 UNK         0.1400 
     96 CB         -2.4980  -24.9734  -53.4933 C.3       17 UNK        -0.1800 
     97 C          -3.8244  -23.1980  -52.1972 C.2       17 UNK         0.5000 
     98 O          -2.8694  -22.4328  -52.3492 O.2       17 UNK        -0.5000 
     99 N          -4.8585  -22.9514  -51.3760 N.am      18 UNK        -0.5000 
    100 CA        -5.0652  -21.7296  -50.5942 C.3       18 UNK         0.1400 
    101 CB        -6.4048  -21.8248  -49.8473 C.3       18 UNK        -0.1800 
    102 C         -5.0225  -20.4737  -51.4803 C.2       18 UNK         0.5000 
    103 O         -5.8085  -20.3745  -52.4250 O.2       18 UNK        -0.5000 
    104 N         -4.0540  -19.5898  -51.2053 N.am      19 UNK        -0.5000 
    105 CA        -3.6538  -18.3932  -51.9583 C.3       19 UNK         0.1400 
    106 CB        -4.8015  -17.3703  -52.0430 C.3       19 UNK        -0.1800 
    107 C         -3.0577  -18.6777  -53.3544 C.2       19 UNK         0.5000 
    108 O         -2.1434  -17.9666  -53.7675 O.2       19 UNK        -0.5000 
    109 N         -3.5519  -19.7113  -54.0480 N.am      20 UNK        -0.5000 
    110 CA        -3.1231  -20.1564  -55.3745 C.3       20 UNK         0.1400 
    111 CB        -4.0102  -21.3262  -55.8261 C.3       20 UNK        -0.1800 
    112 C         -1.6360  -20.5468  -55.4431 C.2       20 UNK         0.5000 
    113 O         -0.9672  -20.2030  -56.4191 O.2       20 UNK        -0.5000 
    114 N         -1.1278  -21.2032  -54.3887 N.am      21 UNK        -0.5000 
    115 CA         0.2875  -21.5615  -54.2370 C.3       21 UNK         0.1400 
    116 CB         0.4567  -22.4541  -52.9989 C.3       21 UNK        -0.1800 
    117 C          1.2291  -20.3433  -54.1402 C.2       21 UNK         0.5000 
    118 O          2.4153  -20.4698  -54.4470 O.2       21 UNK        -0.5000 
    119 N          0.6828  -19.1940  -53.7289 N.am      22 UNK        -0.5000 
    120 CA         1.3764  -17.9032  -53.6354 C.3       22 UNK         0.1400 
    121 C          1.2937  -17.0608  -54.9433 C.2       22 UNK         0.5000 
    122 N          0.6536  -17.5293  -56.0097 N.am      22 UNK        -0.7600 
    123 O          1.8416  -15.9633  -55.0021 O.2       22 UNK        -0.5000 
    124 C124        0.8965  -17.0958  -52.4016 C.3       23 UNK        -0.0398 
    125 S125        1.1599  -18.0066  -50.8424 S.3       23 UNK        -0.2404 
    126 C126        0.7888  -16.7159  -49.6214 C.3       23 UNK        -0.0205 
    127 H127       -5.9772  -14.6100  -44.8688 H         1 UNK         0.0600 
    128 H128       -5.1434  -15.4318  -46.1860 H         1 UNK         0.0600 
    129 H129       -6.6281  -14.5286  -46.5094 H         1 UNK         0.0600 
    130 H130       -3.5150  -14.2926  -47.2451 H         1 UNK         0.3000 
    131 H131       -3.4323  -11.3847  -47.4170 H         1 UNK         0.0600 
    132 H132       -1.4441  -13.5452  -48.2874 H         1 UNK         0.0800 
    133 H133       -1.2121  -11.8492  -48.5400 H         1 UNK         0.0800 
    134 H134       -3.8388  -14.5037  -51.2045 H         1 UNK         0.0800 
    135 H135       -4.6179  -14.2506  -49.6670 H         1 UNK         0.0800 
    136 H136       -1.0153  -14.9319  -50.6493 H         1 UNK         0.1150 
    137 H137       -0.6865  -18.2340  -47.9433 H         1 UNK         0.1150 
    138 H138       -4.4284  -16.1963  -48.3755 H         1 UNK         0.1150 
    139 H139       -2.4832  -18.8340  -46.5328 H         1 UNK         0.0800 
    140 H140       -3.7358  -17.6494  -46.2486 H         1 UNK         0.0800 
    141 H141       -5.7926  -20.5958  -46.1667 H         1 UNK         0.0800 
    142 H142       -4.2815  -20.1000  -45.4571 H         1 UNK         0.0800 
    143 H143       -4.7659  -22.4057  -47.4012 H         1 UNK         0.0600 
    144 H144       -2.1412  -21.2818  -46.5832 H         1 UNK         0.3000 
    145 H145       -0.3844  -23.4500  -48.8014 H         1 UNK         0.0600 
    146 H146       -0.8301  -20.4157  -48.8492 H         1 UNK         0.0600 
    147 H147        0.4898  -21.2871  -49.6224 H         1 UNK         0.0600 
    148 H148       -1.1621  -21.4959  -50.1932 H         1 UNK         0.0600 
    149 H149        0.5624  -21.4267  -47.0758 H         1 UNK         0.3000 
    150 H150        0.2467  -22.9858  -43.9277 H         1 UNK         0.0600 
    151 H151        2.2255  -24.2588  -44.7823 H         1 UNK         0.0600 
    152 H152        2.7135  -22.9056  -43.7760 H         1 UNK         0.0600 
    153 H153        2.8498  -22.7940  -45.5315 H         1 UNK         0.0600 
    154 H154        1.7817  -20.7458  -44.5859 H         1 UNK         0.3000 
    155 H155       -0.4632  -18.3245  -45.4938 H         1 UNK         0.0600 
    156 H156       -1.2575  -18.4051  -43.1103 H         1 UNK         0.0600 
    157 H157       -0.1494  -17.0808  -43.4083 H         1 UNK         0.0600 
    158 H158        0.4130  -18.5284  -42.5705 H         1 UNK         0.0600 
    159 H159        2.0697  -17.9614  -44.3357 H         1 UNK         0.3000 
    160 H160        4.2421  -19.2260  -46.2095 H         1 UNK         0.0600 
    161 H161        3.4622  -16.8083  -47.9180 H         1 UNK         0.0600 
    162 H162        3.6503  -18.4490  -48.5328 H         1 UNK         0.0600 
    163 H163        5.0323  -17.5971  -47.8667 H         1 UNK         0.0600 
    164 H164        3.5234  -16.4277  -45.4427 H         1 UNK         0.3000 
    165 H165        5.1741  -16.6648  -42.3803 H         1 UNK         0.0600 
    166 H166        6.6354  -14.7640  -43.0364 H         1 UNK         0.0600 
    167 H167        7.2637  -16.2673  -43.6910 H         1 UNK         0.0600 
    168 H168        6.4078  -15.1471  -44.7437 H         1 UNK         0.0600 
    169 H169        4.2237  -14.4079  -43.8840 H         1 UNK         0.3000 
    170 H170        0.7817  -14.9077  -43.4869 H         1 UNK         0.0600 
    171 H171        1.3166  -14.1227  -41.1552 H         1 UNK         0.0600 
    172 H172        2.4174  -12.9232  -41.8251 H         1 UNK         0.0600 
    173 H173        0.6899  -12.8385  -42.1729 H         1 UNK         0.0600 
    174 H174        2.0436  -12.5590  -44.2674 H         1 UNK         0.3000 
    175 H175        3.4974  -12.7504  -46.8193 H         1 UNK         0.0600 
    176 H176        0.9019  -13.6635  -48.1616 H         1 UNK         0.0600 
    177 H177        2.0750  -12.5797  -48.9105 H         1 UNK         0.0600 
    178 H178        2.5310  -14.2271  -48.5095 H         1 UNK         0.0600 
    179 H179        0.7444  -11.7671  -46.2127 H         1 UNK         0.3000 
    180 H180        1.9168   -8.6900  -45.1711 H         1 UNK         0.0600 
    181 H181        0.6845   -8.8783  -47.9744 H         1 UNK         0.0600 
    182 H182        2.1584   -8.0112  -47.5608 H         1 UNK         0.0600 
    183 H183        0.6195   -7.4719  -46.9108 H         1 UNK         0.0600 
    184 H184       -0.6936   -9.5364  -46.0599 H         1 UNK         0.3000 
    185 H185       -1.5306  -11.5277  -43.2937 H         1 UNK         0.0600 
    186 H186       -3.3663   -9.9020  -42.9245 H         1 UNK         0.0600 
    187 H187       -1.8594   -9.2602  -42.2907 H         1 UNK         0.0600 
    188 H188       -2.4883   -8.6623  -43.8216 H         1 UNK         0.0600 
    189 H189       -3.1849  -10.5371  -45.3428 H         1 UNK         0.3000 
    190 H190       -2.6009  -21.9705  -44.5824 H         1 UNK         0.3000 
    191 H191       -4.4548  -23.0903  -42.7226 H         1 UNK         0.0600 
    192 H192       -2.8198  -21.3205  -42.1445 H         1 UNK         0.0600 
    193 H193       -2.6036  -22.7229  -41.1087 H         1 UNK         0.0600 
    194 H194       -1.4804  -22.4280  -42.4288 H         1 UNK         0.0600 
    195 H195       -1.8026  -24.5902  -44.5652 H         1 UNK         0.3000 
    196 H196       -2.1025  -27.1053  -42.9552 H         1 UNK         0.0600 
    197 H197        0.2564  -27.5466  -43.4723 H         1 UNK         0.0600 
    198 H198        0.1056  -26.0170  -42.6219 H         1 UNK         0.0600 
    199 H199        0.3984  -26.0369  -44.3582 H         1 UNK         0.0600 
    200 H200       -1.2267  -25.8548  -46.2351 H         1 UNK         0.3000 
    201 H201       -1.6361  -28.4282  -47.4806 H         1 UNK         0.0600 
    202 H202       -0.0301  -26.8017  -48.3992 H         1 UNK         0.0600 
    203 H203       -1.3191  -25.6479  -48.7153 H         1 UNK         0.0600 
    204 H204       -1.2648  -27.1675  -49.5953 H         1 UNK         0.0600 
    205 H205       -3.4704  -25.3679  -47.6219 H         1 UNK         0.3000 
    206 H206       -5.5535  -24.7753  -47.7519 H         1 UNK         0.0600 
    207 H207       -6.3418  -27.6615  -47.1010 H         1 UNK         0.0600 
    208 H208       -6.0096  -26.3879  -45.9269 H         1 UNK         0.0600 
    209 H209       -7.3901  -26.2538  -47.0048 H         1 UNK         0.0600 
    210 H210       -4.9660  -27.7086  -49.6388 H         1 UNK         0.3000 
    211 H211       -7.0671  -27.4101  -51.5368 H         1 UNK         0.0600 
    212 H212       -5.7370  -29.0887  -52.8319 H         1 UNK         0.0600 
    213 H213       -5.8493  -29.5391  -51.1378 H         1 UNK         0.0600 
    214 H214       -4.3597  -28.8346  -51.7657 H         1 UNK         0.0600 
    215 H215       -4.0843  -25.6853  -51.2405 H         1 UNK         0.3000 
    216 H216       -4.5059  -24.3209  -53.8570 H         1 UNK         0.0600 
    217 H217       -2.0688  -24.2363  -54.1728 H         1 UNK         0.0600 
    218 H218       -2.5708  -25.9119  -54.0429 H         1 UNK         0.0600 
    219 H219       -1.7981  -25.1208  -52.6701 H         1 UNK         0.0600 
    220 H220       -5.5938  -23.6421  -51.3158 H         1 UNK         0.3000 
    221 H221       -4.2642  -21.6652  -49.8584 H         1 UNK         0.0600 
    222 H222       -7.2372  -21.9835  -50.5339 H         1 UNK         0.0600 
    223 H223       -6.4014  -22.6456  -49.1314 H         1 UNK         0.0600 
    224 H224       -6.6106  -20.9108  -49.2896 H         1 UNK         0.0600 
    225 H225       -3.4648  -19.7876  -50.4091 H         1 UNK         0.3000 
    226 H226       -2.8535  -17.9378  -51.3727 H         1 UNK         0.0600 
    227 H227       -5.1678  -17.1074  -51.0507 H         1 UNK         0.0600 
    228 H228       -4.4640  -16.4508  -52.5217 H         1 UNK         0.0600 
    229 H229       -5.6437  -17.7452  -52.6245 H         1 UNK         0.0600 
    230 H230       -4.3288  -20.2112  -53.6275 H         1 UNK         0.3000 
    231 H231       -3.2777  -19.3234  -56.0630 H         1 UNK         0.0600 
    232 H232       -3.9108  -22.1852  -55.1626 H         1 UNK         0.0600 
    233 H233       -3.7418  -21.6547  -56.8310 H         1 UNK         0.0600 
    234 H234       -5.0617  -21.0391  -55.8477 H         1 UNK         0.0600 
    235 H235       -1.7493  -21.4688  -53.6287 H         1 UNK         0.3000 
    236 H236        0.5841  -22.1357  -55.1169 H         1 UNK         0.0600 
    237 H237       -0.1203  -23.3724  -53.0873 H         1 UNK         0.0600 
    238 H238        1.4998  -22.7413  -52.8605 H         1 UNK         0.0600 
    239 H239        0.1352  -21.9408  -52.0939 H         1 UNK         0.0600 
    240 H240       -0.3115  -19.1628  -53.5459 H         1 UNK         0.3000 
    241 H241        2.4409  -18.0965  -53.4906 H         1 UNK         0.0600 
    242 H242        0.6178  -16.9716  -56.8481 H         1 UNK         0.3800 
    243 H243        0.1955  -18.4315  -55.9895 H         1 UNK         0.3800 
    244 H244        1.4365  -16.1499  -52.3361 H         1 UNK         0.0800 
    245 H245       -0.1603  -16.8415  -52.4878 H         1 UNK         0.0800 
    246 H246        1.1942  -15.7588  -49.9507 H         1 UNK         0.0800 
    247 H247        1.3028  -16.9574  -48.6917 H         1 UNK         0.0800 
@<TRIPOS>BOND
     1    1    2 1    
     2    1  127 1    
     3    1  128 1    
     4    1  129 1    
     5    2    3 2    
     6    2    4 am   BACKBONE|DICT|INTERRES
     7    4    5 1    
     8    4  130 1    
     9    5    6 1    
    10    5   65 1    
    11    5  131 1    
    12    6    7 1    
    13    6  132 1    
    14    6  133 1    
    15    7    8 1    
    16    8    9 1    
    17    8  134 1    
    18    8  135 1    
    19    9   10 ar   
    20    9   14 ar   
    21   10   11 ar   
    22   10  136 1    
    23   11   12 ar   
    24   11  126 1    
    25   12   13 ar   
    26   12  137 1    
    27   13   14 ar   
    28   13   15 1    
    29   14  138 1    
    30   15   16 1    
    31   15  139 1    
    32   15  140 1    
    33   16   17 1    
    34   17   18 1    
    35   17  141 1    
    36   17  142 1    
    37   18   19 1    
    38   18   67 1    
    39   18  143 1    
    40   19   20 am   BACKBONE|DICT|INTERRES
    41   19  144 1    
    42   20   21 2    
    43   20   22 1    
    44   22   23 1    
    45   22   24 1    
    46   22  145 1    
    47   23  146 1    
    48   23  147 1    
    49   23  148 1    
    50   24   25 am   BACKBONE|DICT|INTERRES
    51   24  149 1    
    52   25   26 2    
    53   25   27 1    
    54   27   28 1    
    55   27   29 1    
    56   27  150 1    
    57   28  151 1    
    58   28  152 1    
    59   28  153 1    
    60   29   30 am   BACKBONE|DICT|INTERRES
    61   29  154 1    
    62   30   31 2    
    63   30   32 1    
    64   32   33 1    
    65   32   34 1    
    66   32  155 1    
    67   33  156 1    
    68   33  157 1    
    69   33  158 1    
    70   34   35 am   BACKBONE|DICT|INTERRES
    71   34  159 1    
    72   35   36 2    
    73   35   37 1    
    74   37   38 1    
    75   37   39 1    
    76   37  160 1    
    77   38  161 1    
    78   38  162 1    
    79   38  163 1    
    80   39   40 am   BACKBONE|DICT|INTERRES
    81   39  164 1    
    82   40   41 2    
    83   40   42 1    
    84   42   43 1    
    85   42   44 1    
    86   42  165 1    
    87   43  166 1    
    88   43  167 1    
    89   43  168 1    
    90   44   45 am   BACKBONE|DICT|INTERRES
    91   44  169 1    
    92   45   46 2    
    93   45   47 1    
    94   47   48 1    
    95   47   49 1    
    96   47  170 1    
    97   48  171 1    
    98   48  172 1    
    99   48  173 1    
   100   49   50 am   BACKBONE|DICT|INTERRES
   101   49  174 1    
   102   50   51 2    
   103   50   52 1    
   104   52   53 1    
   105   52   54 1    
   106   52  175 1    
   107   53  176 1    
   108   53  177 1    
   109   53  178 1    
   110   54   55 am   BACKBONE|DICT|INTERRES
   111   54  179 1    
   112   55   56 2    
   113   55   57 1    
   114   57   58 1    
   115   57   59 1    
   116   57  180 1    
   117   58  181 1    
   118   58  182 1    
   119   58  183 1    
   120   59   60 am   BACKBONE|DICT|INTERRES
   121   59  184 1    
   122   60   61 2    
   123   60   62 1    
   124   62   63 1    
   125   62   64 1    
   126   62  185 1    
   127   63  186 1    
   128   63  187 1    
   129   63  188 1    
   130   64   65 am   BACKBONE|DICT|INTERRES
   131   64  189 1    
   132   65   66 2    
   133   67   68 2    
   134   67   69 am   BACKBONE|DICT|INTERRES
   135   69   70 1    
   136   69  190 1    
   137   70   71 1    
   138   70   72 1    
   139   70  191 1    
   140   71  192 1    
   141   71  193 1    
   142   71  194 1    
   143   72   73 2    
   144   72   74 am   BACKBONE|DICT|INTERRES
   145   74   75 1    
   146   74  195 1    
   147   75   76 1    
   148   75   77 1    
   149   75  196 1    
   150   76  197 1    
   151   76  198 1    
   152   76  199 1    
   153   77   78 2    
   154   77   79 am   BACKBONE|DICT|INTERRES
   155   79   80 1    
   156   79  200 1    
   157   80   81 1    
   158   80   82 1    
   159   80  201 1    
   160   81  202 1    
   161   81  203 1    
   162   81  204 1    
   163   82   83 2    
   164   82   84 am   BACKBONE|DICT|INTERRES
   165   84   85 1    
   166   84  205 1    
   167   85   86 1    
   168   85   87 1    
   169   85  206 1    
   170   86  207 1    
   171   86  208 1    
   172   86  209 1    
   173   87   88 2    
   174   87   89 am   BACKBONE|DICT|INTERRES
   175   89   90 1    
   176   89  210 1    
   177   90   91 1    
   178   90   92 1    
   179   90  211 1    
   180   91  212 1    
   181   91  213 1    
   182   91  214 1    
   183   92   93 2    
   184   92   94 am   BACKBONE|DICT|INTERRES
   185   94   95 1    
   186   94  215 1    
   187   95   96 1    
   188   95   97 1    
   189   95  216 1    
   190   96  217 1    
   191   96  218 1    
   192   96  219 1    
   193   97   98 2    
   194   97   99 am   BACKBONE|DICT|INTERRES
   195   99  100 1    
   196   99  220 1    
   197  100  101 1    
   198  100  102 1    
   199  100  221 1    
   200  101  222 1    
   201  101  223 1    
   202  101  224 1    
   203  102  103 2    
   204  102  104 am   BACKBONE|DICT|INTERRES
   205  104  105 1    
   206  104  225 1    
   207  105  106 1    
   208  105  107 1    
   209  105  226 1    
   210  106  227 1    
   211  106  228 1    
   212  106  229 1    
   213  107  108 2    
   214  107  109 am   BACKBONE|DICT|INTERRES
   215  109  110 1    
   216  109  230 1    
   217  110  111 1    
   218  110  112 1    
   219  110  231 1    
   220  111  232 1    
   221  111  233 1    
   222  111  234 1    
   223  112  113 2    
   224  112  114 am   BACKBONE|DICT|INTERRES
   225  114  115 1    
   226  114  235 1    
   227  115  116 1    
   228  115  117 1    
   229  115  236 1    
   230  116  237 1    
   231  116  238 1    
   232  116  239 1    
   233  117  118 2    
   234  117  119 am   BACKBONE|DICT|INTERRES
   235  119  120 1    
   236  119  240 1    
   237  120  121 1    
   238  120  124 1    
   239  120  241 1    
   240  121  122 am   BACKBONE|DICT|INTERRES
   241  121  123 2    
   242  122  242 1    
   243  122  243 1    
   244  124  125 1    
   245  124  244 1    
   246  124  245 1    
   247  125  126 1    
   248  126  246 1    
   249  126  247 1    
@<TRIPOS>SUBSTRUCTURE
     1 UNK         1 GROUP             0       ****    0 ROOT    
