@<TRIPOS>MOLECULE
3R540
247   249    1
SMALL
USER_CHARGES


@<TRIPOS>ATOM
      1 CA         -3.1749  -11.7292  -49.3066 C.3       0 UNK        -0.1800 
      2 C          -2.1000  -12.0212  -48.2702 C.2       0 UNK         0.5000 
      3 O          -1.8802  -11.2133  -47.3687 O.2       0 UNK        -0.5000 
      4 N          -1.4433  -13.1834  -48.3787 N.am      1 UNK        -0.5000 
      5 CA         -0.3659  -13.6510  -47.4927 C.3       1 UNK         0.1400 
      6 C6          0.3160  -14.9323  -48.0307 C.3       23 UNK        -0.0398 
      7 S7         -0.8531  -16.2781  -48.4501 S.3       23 UNK        -0.2404 
      8 C8         -0.4547  -16.6074  -50.2066 C.3       23 UNK        -0.0205 
      9 C9          0.7591  -17.5091  -50.4530 C.ar      23 UNK        -0.0193 
     10 C10         0.8511  -18.2009  -51.6659 C.ar      23 UNK        -0.1150 
     11 C11         1.9183  -19.0708  -51.9248 C.ar      23 UNK        -0.0193 
     12 C12         2.9225  -19.2208  -50.9639 C.ar      23 UNK        -0.1150 
     13 C13         2.8638  -18.5156  -49.7598 C.ar      23 UNK        -0.0193 
     14 C14         1.7858  -17.6638  -49.5143 C.ar      23 UNK        -0.1150 
     15 C15         3.9674  -18.6635  -48.7231 C.3       23 UNK        -0.0205 
     16 S16         3.7533  -20.1517  -47.6983 S.3       23 UNK        -0.2404 
     17 C17         2.1972  -19.7939  -46.8103 C.3       23 UNK        -0.0398 
     18 CA          1.0336  -20.6702  -47.3275 C.3       11 UNK         0.1400 
     19 N           1.2763  -22.0949  -47.0953 N.am      11 UNK        -0.5000 
     20 C           0.5819  -23.0909  -47.6581 C.2       10 UNK         0.5000 
     21 O          -0.3301  -22.9202  -48.4638 O.2       10 UNK        -0.5000 
     22 CA          0.9360  -24.5149  -47.1959 C.3       10 UNK         0.1400 
     23 CB          2.1456  -25.0528  -47.9744 C.3       10 UNK        -0.1800 
     24 N           1.2086  -24.5769  -45.7575 N.am      10 UNK        -0.5000 
     25 C           0.2836  -24.3660  -44.8099 C.2       9 UNK         0.5000 
     26 O          -0.9014  -24.1387  -45.0524 O.2       9 UNK        -0.5000 
     27 CA          0.7725  -24.3647  -43.3498 C.3       9 UNK         0.1400 
     28 CB          0.8250  -25.7964  -42.7963 C.3       9 UNK        -0.1800 
     29 N           2.0790  -23.7236  -43.1690 N.am      9 UNK        -0.5000 
     30 C           2.3325  -22.4305  -43.4097 C.2       8 UNK         0.5000 
     31 O           1.5033  -21.6475  -43.8767 O.2       8 UNK        -0.5000 
     32 CA          3.7639  -21.9473  -43.1274 C.3       8 UNK         0.1400 
     33 CB          4.6433  -22.1100  -44.3746 C.3       8 UNK        -0.1800 
     34 N           3.7767  -20.5445  -42.7136 N.am      8 UNK        -0.5000 
     35 C           3.5267  -20.1223  -41.4697 C.2       7 UNK         0.5000 
     36 O           3.2688  -20.8802  -40.5330 O.2       7 UNK        -0.5000 
     37 CA          3.5923  -18.6054  -41.2127 C.3       7 UNK         0.1400 
     38 CB          5.0156  -18.0484  -41.4146 C.3       7 UNK        -0.1800 
     39 N           2.5956  -17.8279  -41.9535 N.am      7 UNK        -0.5000 
     40 C           2.4922  -17.5915  -43.2661 C.2       6 UNK         0.5000 
     41 O           3.2717  -18.0479  -44.1030 O.2       6 UNK        -0.5000 
     42 CA          1.3383  -16.6754  -43.7391 C.3       6 UNK         0.1400 
     43 CB          0.1076  -17.5023  -44.1369 C.3       6 UNK        -0.1800 
     44 N           0.9490  -15.5830  -42.8342 N.am      6 UNK        -0.5000 
     45 C           0.4598  -15.6281  -41.5855 C.2       5 UNK         0.5000 
     46 O           0.2748  -16.6765  -40.9663 O.2       5 UNK        -0.5000 
     47 CA          0.0991  -14.2905  -40.9052 C.3       5 UNK         0.1400 
     48 CB          0.6995  -14.1825  -39.4883 C.3       5 UNK        -0.1800 
     49 N           0.3949  -13.0957  -41.7066 N.am      5 UNK        -0.5000 
     50 C           1.5880  -12.5701  -42.0304 C.2       4 UNK         0.5000 
     51 O           2.6629  -13.0397  -41.6571 O.2       4 UNK        -0.5000 
     52 CA          1.5836  -11.3329  -42.9556 C.3       4 UNK         0.1400 
     53 CB          2.5980  -11.4883  -44.1022 C.3       4 UNK        -0.1800 
     54 N           0.2607  -11.0992  -43.5372 N.am      4 UNK        -0.5000 
     55 C          -0.6488  -10.2253  -43.0839 C.2       3 UNK         0.5000 
     56 O          -0.4376   -9.4324  -42.1662 O.2       3 UNK        -0.5000 
     57 CA         -2.0446  -10.2702  -43.7408 C.3       3 UNK         0.1400 
     58 CB         -2.1764   -9.1646  -44.7984 C.3       3 UNK        -0.1800 
     59 N          -2.3507  -11.5702  -44.3495 N.am      3 UNK        -0.5000 
     60 C          -2.5506  -12.7005  -43.6518 C.2       2 UNK         0.5000 
     61 O          -2.5585  -12.7379  -42.4217 O.2       2 UNK        -0.5000 
     62 CA         -2.7037  -14.0201  -44.4364 C.3       2 UNK         0.1400 
     63 CB         -4.1846  -14.4019  -44.5689 C.3       2 UNK        -0.1800 
     64 N          -2.0929  -13.9925  -45.7659 N.am      2 UNK        -0.5000 
     65 C          -0.7879  -13.8119  -46.0143 C.2       1 UNK         0.5000 
     66 O           0.0622  -13.7130  -45.1274 O.2       1 UNK        -0.5000 
     67 C          -0.3147  -20.2339  -46.7213 C.2       11 UNK         0.5000 
     68 O          -1.0564  -19.4926  -47.3611 O.2       11 UNK        -0.5000 
     69 N          -0.6317  -20.7290  -45.5158 N.am      12 UNK        -0.5000 
     70 CA         -1.9061  -20.4948  -44.8357 C.3       12 UNK         0.1400 
     71 CB         -1.8304  -21.0299  -43.3985 C.3       12 UNK        -0.1800 
     72 C          -3.1007  -21.1008  -45.5944 C.2       12 UNK         0.5000 
     73 O          -4.1530  -20.4673  -45.6681 O.2       12 UNK        -0.5000 
     74 N          -2.9070  -22.2890  -46.1843 N.am      13 UNK        -0.5000 
     75 CA         -3.8652  -22.9224  -47.0901 C.3       13 UNK         0.1400 
     76 CB         -3.4402  -24.3728  -47.3639 C.3       13 UNK        -0.1800 
     77 C          -4.0317  -22.1369  -48.4045 C.2       13 UNK         0.5000 
     78 O          -5.1592  -21.9618  -48.8629 O.2       13 UNK        -0.5000 
     79 N          -2.9164  -21.6420  -48.9606 N.am      14 UNK        -0.5000 
     80 CA         -2.8567  -20.8567  -50.1963 C.3       14 UNK         0.1400 
     81 CB         -1.3990  -20.7117  -50.6435 C.3       14 UNK        -0.1800 
     82 C          -3.5195  -19.4676  -50.1263 C.2       14 UNK         0.5000 
     83 O          -3.7540  -18.8643  -51.1739 O.2       14 UNK        -0.5000 
     84 N          -3.8372  -18.9857  -48.9174 N.am      15 UNK        -0.5000 
     85 CA         -4.6593  -17.7938  -48.7000 C.3       15 UNK         0.1400 
     86 CB         -4.5444  -17.3615  -47.2311 C.3       15 UNK        -0.1800 
     87 C          -6.1381  -18.0042  -49.1002 C.2       15 UNK         0.5000 
     88 O          -6.8641  -17.0226  -49.2632 O.2       15 UNK        -0.5000 
     89 N          -6.5514  -19.2672  -49.2625 N.am      16 UNK        -0.5000 
     90 CA         -7.8398  -19.7005  -49.7874 C.3       16 UNK         0.1400 
     91 CB         -8.6831  -20.2533  -48.6225 C.3       16 UNK        -0.1800 
     92 C          -7.5949  -20.7433  -50.8978 C.2       16 UNK         0.5000 
     93 O          -6.4961  -20.8031  -51.4574 O.2       16 UNK        -0.5000 
     94 N          -8.6293  -21.5363  -51.2192 N.am      17 UNK        -0.5000 
     95 CA         -8.6059  -22.6981  -52.1229 C.3       17 UNK         0.1400 
     96 CB         -7.8259  -23.8551  -51.4622 C.3       17 UNK        -0.1800 
     97 C          -8.0917  -22.3887  -53.5468 C.2       17 UNK         0.5000 
     98 O          -7.4572  -23.2407  -54.1701 O.2       17 UNK        -0.5000 
     99 N          -8.3264  -21.1524  -54.0145 N.am      18 UNK        -0.5000 
    100 CA        -7.8471  -20.5780  -55.2800 C.3       18 UNK         0.1400 
    101 CB        -8.5675  -21.2391  -56.4739 C.3       18 UNK        -0.1800 
    102 C         -6.3065  -20.5976  -55.4351 C.2       18 UNK         0.5000 
    103 O         -5.8075  -20.6009  -56.5616 O.2       18 UNK        -0.5000 
    104 N         -5.5854  -20.6276  -54.3025 N.am      19 UNK        -0.5000 
    105 CA        -4.1319  -20.7654  -54.1739 C.3       19 UNK         0.1400 
    106 CB        -3.4000  -19.5321  -54.7419 C.3       19 UNK        -0.1800 
    107 C         -3.5789  -22.1010  -54.7201 C.2       19 UNK         0.5000 
    108 O         -2.4036  -22.1714  -55.0811 O.2       19 UNK        -0.5000 
    109 N         -4.4106  -23.1563  -54.7473 N.am      20 UNK        -0.5000 
    110 CA        -4.0502  -24.4902  -55.2462 C.3       20 UNK         0.1400 
    111 CB        -5.2970  -25.3860  -55.2562 C.3       20 UNK        -0.1800 
    112 C         -2.9088  -25.1674  -54.4610 C.2       20 UNK         0.5000 
    113 O         -2.1585  -25.9581  -55.0357 O.2       20 UNK        -0.5000 
    114 N         -2.7658  -24.8080  -53.1771 N.am      21 UNK        -0.5000 
    115 CA        -1.6952  -25.2540  -52.2821 C.3       21 UNK         0.1400 
    116 CB        -2.0119  -24.7839  -50.8545 C.3       21 UNK        -0.1800 
    117 C         -0.2785  -24.8118  -52.7126 C.2       21 UNK         0.5000 
    118 O          0.6957  -25.4062  -52.2490 O.2       21 UNK        -0.5000 
    119 N         -0.1789  -23.8149  -53.6043 N.am      22 UNK        -0.5000 
    120 CA         1.0751  -23.4044  -54.2598 C.3       22 UNK         0.1400 
    121 C          1.5758  -24.4022  -55.3475 C.2       22 UNK         0.5000 
    122 N          0.7856  -25.3786  -55.7829 N.am      22 UNK        -0.7600 
    123 O          2.7109  -24.2915  -55.8027 O.2       22 UNK        -0.5000 
    124 C124        0.9927  -21.9693  -54.8445 C.3       23 UNK        -0.0398 
    125 S125        0.4617  -20.7382  -53.6109 S.3       23 UNK        -0.2404 
    126 C126        2.0030  -19.8442  -53.2382 C.3       23 UNK        -0.0205 
    127 H127       -3.2699  -12.5382  -50.0313 H         1 UNK         0.0600 
    128 H128       -2.9345  -10.8139  -49.8472 H         1 UNK         0.0600 
    129 H129       -4.1397  -11.5945  -48.8177 H         1 UNK         0.0600 
    130 H130       -1.6868  -13.8197  -49.1245 H         1 UNK         0.3000 
    131 H131        0.3918  -12.8645  -47.4918 H         1 UNK         0.0600 
    132 H132        0.8964  -14.6769  -48.9180 H         1 UNK         0.0800 
    133 H133        1.0440  -15.3111  -47.3107 H         1 UNK         0.0800 
    134 H134       -1.3337  -17.0809  -50.6473 H         1 UNK         0.0800 
    135 H135       -0.3174  -15.6653  -50.7383 H         1 UNK         0.0800 
    136 H136        0.0731  -18.0813  -52.4069 H         1 UNK         0.1150 
    137 H137        3.7547  -19.8851  -51.1501 H         1 UNK         0.1150 
    138 H138        1.7553  -17.1312  -48.5784 H         1 UNK         0.1150 
    139 H139        4.9334  -18.7201  -49.2269 H         1 UNK         0.0800 
    140 H140        4.0137  -17.7839  -48.0789 H         1 UNK         0.0800 
    141 H141        1.9608  -18.7334  -46.8986 H         1 UNK         0.0800 
    142 H142        2.3632  -19.9690  -45.7474 H         1 UNK         0.0800 
    143 H143        0.9617  -20.5200  -48.4066 H         1 UNK         0.0600 
    144 H144        1.9902  -22.3225  -46.4208 H         1 UNK         0.3000 
    145 H145        0.0790  -25.1573  -47.4098 H         1 UNK         0.0600 
    146 H146        2.3612  -26.0863  -47.7032 H         1 UNK         0.0600 
    147 H147        1.9561  -25.0322  -49.0488 H         1 UNK         0.0600 
    148 H148        3.0428  -24.4612  -47.7877 H         1 UNK         0.0600 
    149 H149        2.1598  -24.7608  -45.4751 H         1 UNK         0.3000 
    150 H150        0.0447  -23.8020  -42.7617 H         1 UNK         0.0600 
    151 H151        1.5637  -26.4051  -43.3192 H         1 UNK         0.0600 
    152 H152       -0.1417  -26.2910  -42.9013 H         1 UNK         0.0600 
    153 H153        1.0762  -25.8003  -41.7355 H         1 UNK         0.0600 
    154 H154        2.8163  -24.3065  -42.7994 H         1 UNK         0.3000 
    155 H155        4.1890  -22.5579  -42.3279 H         1 UNK         0.0600 
    156 H156        4.2768  -21.5075  -45.2036 H         1 UNK         0.0600 
    157 H157        4.6688  -23.1482  -44.7077 H         1 UNK         0.0600 
    158 H158        5.6713  -21.8084  -44.1731 H         1 UNK         0.0600 
    159 H159        3.8728  -19.8416  -43.4391 H         1 UNK         0.3000 
    160 H160        3.3421  -18.4599  -40.1606 H         1 UNK         0.0600 
    161 H161        5.3552  -18.1442  -42.4460 H         1 UNK         0.0600 
    162 H162        5.7319  -18.5800  -40.7871 H         1 UNK         0.0600 
    163 H163        5.0660  -16.9939  -41.1433 H         1 UNK         0.0600 
    164 H164        1.8390  -17.4509  -41.3859 H         1 UNK         0.3000 
    165 H165        1.6989  -16.1809  -44.6426 H         1 UNK         0.0600 
    166 H166       -0.6699  -16.8753  -44.5737 H         1 UNK         0.0600 
    167 H167        0.3830  -18.2422  -44.8838 H         1 UNK         0.0600 
    168 H168       -0.3203  -18.0351  -43.2874 H         1 UNK         0.0600 
    169 H169        1.0350  -14.6626  -43.2457 H         1 UNK         0.3000 
    170 H170       -0.9857  -14.3045  -40.7933 H         1 UNK         0.0600 
    171 H171        0.3254  -14.9794  -38.8446 H         1 UNK         0.0600 
    172 H172        1.7868  -14.2603  -39.4981 H         1 UNK         0.0600 
    173 H173        0.4331  -13.2363  -39.0174 H         1 UNK         0.0600 
    174 H174       -0.4286  -12.6340  -42.0729 H         1 UNK         0.3000 
    175 H175        1.8855  -10.4761  -42.3502 H         1 UNK         0.0600 
    176 H176        2.3889  -12.3686  -44.7107 H         1 UNK         0.0600 
    177 H177        2.5867  -10.6177  -44.7582 H         1 UNK         0.0600 
    178 H178        3.6139  -11.5886  -43.7182 H         1 UNK         0.0600 
    179 H179       -0.0074  -11.7392  -44.2755 H         1 UNK         0.3000 
    180 H180       -2.7836  -10.0812  -42.9593 H         1 UNK         0.0600 
    181 H181       -1.4250   -9.2660  -45.5821 H         1 UNK         0.0600 
    182 H182       -2.0478   -8.1791  -44.3491 H         1 UNK         0.0600 
    183 H183       -3.1591   -9.1818  -45.2702 H         1 UNK         0.0600 
    184 H184       -2.3270  -11.6078  -45.3633 H         1 UNK         0.3000 
    185 H185       -2.2011  -14.7982  -43.8578 H         1 UNK         0.0600 
    186 H186       -4.6751  -14.4143  -43.5946 H         1 UNK         0.0600 
    187 H187       -4.7275  -13.6989  -45.2018 H         1 UNK         0.0600 
    188 H188       -4.2951  -15.3981  -44.9955 H         1 UNK         0.0600 
    189 H189       -2.7186  -14.0568  -46.5551 H         1 UNK         0.3000 
    190 H190        0.0607  -21.2771  -45.0114 H         1 UNK         0.3000 
    191 H191       -2.0632  -19.4154  -44.7873 H         1 UNK         0.0600 
    192 H192       -1.0106  -20.5677  -42.8480 H         1 UNK         0.0600 
    193 H193       -2.7510  -20.8154  -42.8544 H         1 UNK         0.0600 
    194 H194       -1.6809  -22.1091  -43.3778 H         1 UNK         0.0600 
    195 H195       -2.0368  -22.7835  -46.0164 H         1 UNK         0.3000 
    196 H196       -4.8365  -22.9447  -46.5914 H         1 UNK         0.0600 
    197 H197       -4.1496  -24.8689  -48.0273 H         1 UNK         0.0600 
    198 H198       -3.3971  -24.9507  -46.4406 H         1 UNK         0.0600 
    199 H199       -2.4587  -24.4253  -47.8345 H         1 UNK         0.0600 
    200 H200       -2.0217  -21.8732  -48.5401 H         1 UNK         0.3000 
    201 H201       -3.3909  -21.4246  -50.9592 H         1 UNK         0.0600 
    202 H202       -1.3491  -20.1349  -51.5655 H         1 UNK         0.0600 
    203 H203       -0.9279  -21.6749  -50.8350 H         1 UNK         0.0600 
    204 H204       -0.8005  -20.1819  -49.9046 H         1 UNK         0.0600 
    205 H205       -3.5578  -19.5104  -48.0996 H         1 UNK         0.3000 
    206 H206       -4.2597  -16.9893  -49.3209 H         1 UNK         0.0600 
    207 H207       -3.5040  -17.2124  -46.9403 H         1 UNK         0.0600 
    208 H208       -5.0692  -16.4203  -47.0652 H         1 UNK         0.0600 
    209 H209       -4.9799  -18.1010  -46.5591 H         1 UNK         0.0600 
    210 H210       -5.8722  -20.0157  -49.1655 H         1 UNK         0.3000 
    211 H211       -8.3657  -18.8602  -50.2444 H         1 UNK         0.0600 
    212 H212       -8.2431  -21.1610  -48.2064 H         1 UNK         0.0600 
    213 H213       -9.7001  -20.4882  -48.9374 H         1 UNK         0.0600 
    214 H214       -8.7620  -19.5238  -47.8161 H         1 UNK         0.0600 
    215 H215       -9.5036  -21.3883  -50.7349 H         1 UNK         0.3000 
    216 H216       -9.6413  -23.0204  -52.2406 H         1 UNK         0.0600 
    217 H217       -7.8993  -24.7696  -52.0520 H         1 UNK         0.0600 
    218 H218       -8.2184  -24.0792  -50.4704 H         1 UNK         0.0600 
    219 H219       -6.7666  -23.6173  -51.3554 H         1 UNK         0.0600 
    220 H220       -8.8360  -20.5199  -53.4138 H         1 UNK         0.3000 
    221 H221       -8.1324  -19.5253  -55.2642 H         1 UNK         0.0600 
    222 H222       -8.2747  -22.2825  -56.5949 H         1 UNK         0.0600 
    223 H223       -9.6497  -21.2068  -56.3486 H         1 UNK         0.0600 
    224 H224       -8.3360  -20.7244  -57.4071 H         1 UNK         0.0600 
    225 H225       -6.0860  -20.6357  -53.4179 H         1 UNK         0.3000 
    226 H226       -3.9375  -20.7872  -53.1033 H         1 UNK         0.0600 
    227 H227       -3.7994  -18.6100  -54.3195 H         1 UNK         0.0600 
    228 H228       -2.3377  -19.5623  -54.4970 H         1 UNK         0.0600 
    229 H229       -3.4835  -19.4724  -55.8271 H         1 UNK         0.0600 
    230 H230       -5.3755  -23.0309  -54.4594 H         1 UNK         0.3000 
    231 H231       -3.7080  -24.3733  -56.2764 H         1 UNK         0.0600 
    232 H232       -5.7135  -25.5056  -54.2552 H         1 UNK         0.0600 
    233 H233       -5.0631  -26.3810  -55.6372 H         1 UNK         0.0600 
    234 H234       -6.0757  -24.9694  -55.8955 H         1 UNK         0.0600 
    235 H235       -3.4278  -24.1486  -52.7970 H         1 UNK         0.3000 
    236 H236       -1.6989  -26.3458  -52.2850 H         1 UNK         0.0600 
    237 H237       -1.2368  -25.0985  -50.1543 H         1 UNK         0.0600 
    238 H238       -2.0815  -23.6993  -50.7973 H         1 UNK         0.0600 
    239 H239       -2.9558  -25.1987  -50.5008 H         1 UNK         0.0600 
    240 H240       -1.0190  -23.3624  -53.9451 H         1 UNK         0.3000 
    241 H241        1.8505  -23.3900  -53.4914 H         1 UNK         0.0600 
    242 H242       -0.1570  -25.4908  -55.4282 H         1 UNK         0.3800 
    243 H243        1.1301  -26.0155  -56.4838 H         1 UNK         0.3800 
    244 H244        1.9538  -21.6646  -55.2621 H         1 UNK         0.0800 
    245 H245        0.2812  -21.9399  -55.6712 H         1 UNK         0.0800 
    246 H246        2.8249  -20.5608  -53.2014 H         1 UNK         0.0800 
    247 H247        2.2246  -19.1517  -54.0510 H         1 UNK         0.0800 
@<TRIPOS>BOND
     1    1    2 1    
     2    1  127 1    
     3    1  128 1    
     4    1  129 1    
     5    2    3 2    
     6    2    4 am   BACKBONE|DICT|INTERRES
     7    4    5 1    
     8    4  130 1    
     9    5    6 1    
    10    5   65 1    
    11    5  131 1    
    12    6    7 1    
    13    6  132 1    
    14    6  133 1    
    15    7    8 1    
    16    8    9 1    
    17    8  134 1    
    18    8  135 1    
    19    9   10 ar   
    20    9   14 ar   
    21   10   11 ar   
    22   10  136 1    
    23   11   12 ar   
    24   11  126 1    
    25   12   13 ar   
    26   12  137 1    
    27   13   14 ar   
    28   13   15 1    
    29   14  138 1    
    30   15   16 1    
    31   15  139 1    
    32   15  140 1    
    33   16   17 1    
    34   17   18 1    
    35   17  141 1    
    36   17  142 1    
    37   18   19 1    
    38   18   67 1    
    39   18  143 1    
    40   19   20 am   BACKBONE|DICT|INTERRES
    41   19  144 1    
    42   20   21 2    
    43   20   22 1    
    44   22   23 1    
    45   22   24 1    
    46   22  145 1    
    47   23  146 1    
    48   23  147 1    
    49   23  148 1    
    50   24   25 am   BACKBONE|DICT|INTERRES
    51   24  149 1    
    52   25   26 2    
    53   25   27 1    
    54   27   28 1    
    55   27   29 1    
    56   27  150 1    
    57   28  151 1    
    58   28  152 1    
    59   28  153 1    
    60   29   30 am   BACKBONE|DICT|INTERRES
    61   29  154 1    
    62   30   31 2    
    63   30   32 1    
    64   32   33 1    
    65   32   34 1    
    66   32  155 1    
    67   33  156 1    
    68   33  157 1    
    69   33  158 1    
    70   34   35 am   BACKBONE|DICT|INTERRES
    71   34  159 1    
    72   35   36 2    
    73   35   37 1    
    74   37   38 1    
    75   37   39 1    
    76   37  160 1    
    77   38  161 1    
    78   38  162 1    
    79   38  163 1    
    80   39   40 am   BACKBONE|DICT|INTERRES
    81   39  164 1    
    82   40   41 2    
    83   40   42 1    
    84   42   43 1    
    85   42   44 1    
    86   42  165 1    
    87   43  166 1    
    88   43  167 1    
    89   43  168 1    
    90   44   45 am   BACKBONE|DICT|INTERRES
    91   44  169 1    
    92   45   46 2    
    93   45   47 1    
    94   47   48 1    
    95   47   49 1    
    96   47  170 1    
    97   48  171 1    
    98   48  172 1    
    99   48  173 1    
   100   49   50 am   BACKBONE|DICT|INTERRES
   101   49  174 1    
   102   50   51 2    
   103   50   52 1    
   104   52   53 1    
   105   52   54 1    
   106   52  175 1    
   107   53  176 1    
   108   53  177 1    
   109   53  178 1    
   110   54   55 am   BACKBONE|DICT|INTERRES
   111   54  179 1    
   112   55   56 2    
   113   55   57 1    
   114   57   58 1    
   115   57   59 1    
   116   57  180 1    
   117   58  181 1    
   118   58  182 1    
   119   58  183 1    
   120   59   60 am   BACKBONE|DICT|INTERRES
   121   59  184 1    
   122   60   61 2    
   123   60   62 1    
   124   62   63 1    
   125   62   64 1    
   126   62  185 1    
   127   63  186 1    
   128   63  187 1    
   129   63  188 1    
   130   64   65 am   BACKBONE|DICT|INTERRES
   131   64  189 1    
   132   65   66 2    
   133   67   68 2    
   134   67   69 am   BACKBONE|DICT|INTERRES
   135   69   70 1    
   136   69  190 1    
   137   70   71 1    
   138   70   72 1    
   139   70  191 1    
   140   71  192 1    
   141   71  193 1    
   142   71  194 1    
   143   72   73 2    
   144   72   74 am   BACKBONE|DICT|INTERRES
   145   74   75 1    
   146   74  195 1    
   147   75   76 1    
   148   75   77 1    
   149   75  196 1    
   150   76  197 1    
   151   76  198 1    
   152   76  199 1    
   153   77   78 2    
   154   77   79 am   BACKBONE|DICT|INTERRES
   155   79   80 1    
   156   79  200 1    
   157   80   81 1    
   158   80   82 1    
   159   80  201 1    
   160   81  202 1    
   161   81  203 1    
   162   81  204 1    
   163   82   83 2    
   164   82   84 am   BACKBONE|DICT|INTERRES
   165   84   85 1    
   166   84  205 1    
   167   85   86 1    
   168   85   87 1    
   169   85  206 1    
   170   86  207 1    
   171   86  208 1    
   172   86  209 1    
   173   87   88 2    
   174   87   89 am   BACKBONE|DICT|INTERRES
   175   89   90 1    
   176   89  210 1    
   177   90   91 1    
   178   90   92 1    
   179   90  211 1    
   180   91  212 1    
   181   91  213 1    
   182   91  214 1    
   183   92   93 2    
   184   92   94 am   BACKBONE|DICT|INTERRES
   185   94   95 1    
   186   94  215 1    
   187   95   96 1    
   188   95   97 1    
   189   95  216 1    
   190   96  217 1    
   191   96  218 1    
   192   96  219 1    
   193   97   98 2    
   194   97   99 am   BACKBONE|DICT|INTERRES
   195   99  100 1    
   196   99  220 1    
   197  100  101 1    
   198  100  102 1    
   199  100  221 1    
   200  101  222 1    
   201  101  223 1    
   202  101  224 1    
   203  102  103 2    
   204  102  104 am   BACKBONE|DICT|INTERRES
   205  104  105 1    
   206  104  225 1    
   207  105  106 1    
   208  105  107 1    
   209  105  226 1    
   210  106  227 1    
   211  106  228 1    
   212  106  229 1    
   213  107  108 2    
   214  107  109 am   BACKBONE|DICT|INTERRES
   215  109  110 1    
   216  109  230 1    
   217  110  111 1    
   218  110  112 1    
   219  110  231 1    
   220  111  232 1    
   221  111  233 1    
   222  111  234 1    
   223  112  113 2    
   224  112  114 am   BACKBONE|DICT|INTERRES
   225  114  115 1    
   226  114  235 1    
   227  115  116 1    
   228  115  117 1    
   229  115  236 1    
   230  116  237 1    
   231  116  238 1    
   232  116  239 1    
   233  117  118 2    
   234  117  119 am   BACKBONE|DICT|INTERRES
   235  119  120 1    
   236  119  240 1    
   237  120  121 1    
   238  120  124 1    
   239  120  241 1    
   240  121  122 am   BACKBONE|DICT|INTERRES
   241  121  123 2    
   242  122  242 1    
   243  122  243 1    
   244  124  125 1    
   245  124  244 1    
   246  124  245 1    
   247  125  126 1    
   248  126  246 1    
   249  126  247 1    
@<TRIPOS>SUBSTRUCTURE
     1 UNK         1 GROUP             0       ****    0 ROOT    
