@<TRIPOS>MOLECULE
3R540
247   249    1
SMALL
USER_CHARGES


@<TRIPOS>ATOM
      1 CA          6.0016  -15.5773  -46.0391 C.3       0 UNK        -0.1800 
      2 C           5.0230  -14.4962  -45.6071 C.2       0 UNK         0.5000 
      3 O           5.2145  -13.8833  -44.5576 O.2       0 UNK        -0.5000 
      4 N           3.9857  -14.2480  -46.4184 N.am      1 UNK        -0.5000 
      5 CA          2.8820  -13.3120  -46.1478 C.3       1 UNK         0.1400 
      6 C6          1.7958  -13.3651  -47.2491 C.3       23 UNK        -0.0398 
      7 S7          1.0678  -15.0271  -47.4083 S.3       23 UNK        -0.2404 
      8 C8          0.3392  -14.9403  -49.0731 C.3       23 UNK        -0.0205 
      9 C9         -0.4789  -16.1899  -49.3521 C.ar      23 UNK        -0.0193 
     10 C10        -1.8439  -16.2170  -49.0543 C.ar      23 UNK        -0.1150 
     11 C11        -2.5827  -17.3926  -49.2143 C.ar      23 UNK        -0.0193 
     12 C12        -1.9465  -18.5420  -49.6931 C.ar      23 UNK        -0.1150 
     13 C13        -0.5879  -18.5209  -50.0223 C.ar      23 UNK        -0.0193 
     14 C14         0.1379  -17.3365  -49.8592 C.ar      23 UNK        -0.1150 
     15 C15         0.0942  -19.7906  -50.5195 C.3       23 UNK        -0.0205 
     16 S16         1.5780  -20.2458  -49.5546 S.3       23 UNK        -0.2404 
     17 C17         0.9570  -20.2395  -47.8361 C.3       23 UNK        -0.0398 
     18 CA          0.6319  -21.6405  -47.2713 C.3       11 UNK         0.1400 
     19 N           0.4436  -21.5877  -45.8222 N.am      11 UNK        -0.5000 
     20 C           0.2659  -22.6420  -45.0158 C.2       10 UNK         0.5000 
     21 O           0.2799  -23.8117  -45.3970 O.2       10 UNK        -0.5000 
     22 CA         -0.0273  -22.3268  -43.5390 C.3       10 UNK         0.1400 
     23 CB          1.2623  -21.9701  -42.7842 C.3       10 UNK        -0.1800 
     24 N          -0.9978  -21.2421  -43.3906 N.am      10 UNK        -0.5000 
     25 C          -2.2806  -21.3151  -43.7730 C.2       9 UNK         0.5000 
     26 O          -2.7948  -22.3174  -44.2688 O.2       9 UNK        -0.5000 
     27 CA         -3.1154  -20.0339  -43.6124 C.3       9 UNK         0.1400 
     28 CB         -3.5705  -19.8542  -42.1565 C.3       9 UNK        -0.1800 
     29 N          -2.3875  -18.8421  -44.0455 N.am      9 UNK        -0.5000 
     30 C          -2.0333  -18.5946  -45.3145 C.2       8 UNK         0.5000 
     31 O          -2.2816  -19.3473  -46.2549 O.2       8 UNK        -0.5000 
     32 CA         -1.2290  -17.3084  -45.5638 C.3       8 UNK         0.1400 
     33 CB         -2.1738  -16.0987  -45.6210 C.3       8 UNK        -0.1800 
     34 N          -0.2006  -17.0693  -44.5501 N.am      8 UNK        -0.5000 
     35 C           0.8078  -17.9073  -44.2623 C.2       7 UNK         0.5000 
     36 O           0.9846  -18.9815  -44.8346 O.2       7 UNK        -0.5000 
     37 CA          1.7666  -17.5086  -43.1246 C.3       7 UNK         0.1400 
     38 CB          3.0493  -16.9025  -43.7088 C.3       7 UNK        -0.1800 
     39 N           1.1813  -16.5705  -42.1657 N.am      7 UNK        -0.5000 
     40 C           0.1283  -16.8390  -41.3770 C.2       6 UNK         0.5000 
     41 O          -0.4298  -17.9370  -41.3416 O.2       6 UNK        -0.5000 
     42 CA         -0.4245  -15.6856  -40.5135 C.3       6 UNK         0.1400 
     43 CB          0.0734  -15.8158  -39.0662 C.3       6 UNK        -0.1800 
     44 N          -0.0856  -14.3497  -41.0113 N.am      6 UNK        -0.5000 
     45 C          -0.4370  -13.8460  -42.2036 C.2       5 UNK         0.5000 
     46 O          -1.1420  -14.4460  -43.0137 O.2       5 UNK        -0.5000 
     47 CA          0.1375  -12.4642  -42.5757 C.3       5 UNK         0.1400 
     48 CB         -0.8990  -11.3624  -42.3107 C.3       5 UNK        -0.1800 
     49 N           1.3865  -12.1257  -41.8824 N.am      5 UNK        -0.5000 
     50 C           2.5333  -12.8081  -41.9971 C.2       4 UNK         0.5000 
     51 O           2.6483  -13.8446  -42.6516 O.2       4 UNK        -0.5000 
     52 CA          3.7381  -12.2738  -41.2188 C.3       4 UNK         0.1400 
     53 CB          4.1148  -13.2239  -40.0678 C.3       4 UNK        -0.1800 
     54 N           4.8581  -12.1229  -42.1397 N.am      4 UNK        -0.5000 
     55 C           5.8800  -11.2762  -41.9650 C.2       3 UNK         0.5000 
     56 O           6.0109  -10.5558  -40.9743 O.2       3 UNK        -0.5000 
     57 CA          6.9161  -11.1957  -43.0970 C.3       3 UNK         0.1400 
     58 CB          7.8921  -12.3818  -43.0384 C.3       3 UNK        -0.1800 
     59 N           6.2624  -11.1551  -44.4045 N.am      3 UNK        -0.5000 
     60 C           5.8376  -10.0324  -45.0020 C.2       2 UNK         0.5000 
     61 O           5.9993   -8.9065  -44.5293 O.2       2 UNK        -0.5000 
     62 CA          5.1200  -10.1765  -46.3594 C.3       2 UNK         0.1400 
     63 CB          6.1090   -9.9550  -47.5142 C.3       2 UNK        -0.1800 
     64 N           4.4733  -11.4765  -46.5343 N.am      2 UNK        -0.5000 
     65 C           3.3426  -11.8551  -45.9223 C.2       1 UNK         0.5000 
     66 O           2.6809  -11.1152  -45.1937 O.2       1 UNK        -0.5000 
     67 C          -0.5784  -22.2853  -47.9749 C.2       11 UNK         0.5000 
     68 O          -0.3927  -23.2200  -48.7539 O.2       11 UNK        -0.5000 
     69 N          -1.7940  -21.8144  -47.6570 N.am      12 UNK        -0.5000 
     70 CA         -3.0473  -22.3535  -48.1848 C.3       12 UNK         0.1400 
     71 CB         -4.2291  -21.4917  -47.7215 C.3       12 UNK        -0.1800 
     72 C          -3.2729  -23.8272  -47.8109 C.2       12 UNK         0.5000 
     73 O          -3.6916  -24.6012  -48.6706 O.2       12 UNK        -0.5000 
     74 N          -2.9604  -24.1981  -46.5611 N.am      13 UNK        -0.5000 
     75 CA         -3.0253  -25.5752  -46.0718 C.3       13 UNK         0.1400 
     76 CB         -2.8100  -25.5999  -44.5510 C.3       13 UNK        -0.1800 
     77 C          -2.0263  -26.5049  -46.7840 C.2       13 UNK         0.5000 
     78 O          -2.4127  -27.5956  -47.2046 O.2       13 UNK        -0.5000 
     79 N          -0.7753  -26.0474  -46.9368 N.am      14 UNK        -0.5000 
     80 CA          0.2983  -26.7706  -47.6218 C.3       14 UNK         0.1400 
     81 CB          1.6327  -26.0444  -47.3934 C.3       14 UNK        -0.1800 
     82 C           0.0339  -26.9582  -49.1268 C.2       14 UNK         0.5000 
     83 O           0.2935  -28.0372  -49.6608 O.2       14 UNK        -0.5000 
     84 N          -0.4951  -25.9141  -49.7772 N.am      15 UNK        -0.5000 
     85 CA         -0.8547  -25.9120  -51.1957 C.3       15 UNK         0.1400 
     86 CB         -0.9104  -24.4562  -51.6851 C.3       15 UNK        -0.1800 
     87 C          -2.1913  -26.6184  -51.4960 C.2       15 UNK         0.5000 
     88 O          -2.5020  -26.8255  -52.6695 O.2       15 UNK        -0.5000 
     89 N          -2.9814  -26.9218  -50.4541 N.am      16 UNK        -0.5000 
     90 CA         -4.3589  -27.4306  -50.5009 C.3       16 UNK         0.1400 
     91 CB         -4.3880  -28.8810  -51.0244 C.3       16 UNK        -0.1800 
     92 C          -5.2965  -26.4802  -51.2797 C.2       16 UNK         0.5000 
     93 O          -6.0981  -26.9247  -52.1022 O.2       16 UNK        -0.5000 
     94 N          -5.1172  -25.1745  -51.0306 N.am      17 UNK        -0.5000 
     95 CA         -5.7227  -24.0132  -51.6935 C.3       17 UNK         0.1400 
     96 CB         -7.2554  -24.0124  -51.5259 C.3       17 UNK        -0.1800 
     97 C          -5.3058  -23.8132  -53.1682 C.2       17 UNK         0.5000 
     98 O          -5.8192  -22.8938  -53.8075 O.2       17 UNK        -0.5000 
     99 N          -4.3812  -24.6388  -53.6848 N.am      18 UNK        -0.5000 
    100 CA        -3.8790  -24.6557  -55.0624 C.3       18 UNK         0.1400 
    101 CB        -2.9573  -23.4397  -55.3063 C.3       18 UNK        -0.1800 
    102 C         -5.0258  -24.7940  -56.0904 C.2       18 UNK         0.5000 
    103 O         -5.9056  -25.6375  -55.9073 O.2       18 UNK        -0.5000 
    104 N         -5.0247  -23.9513  -57.1298 N.am      19 UNK        -0.5000 
    105 CA        -6.0893  -23.8293  -58.1260 C.3       19 UNK         0.1400 
    106 CB        -5.4480  -23.5629  -59.5004 C.3       19 UNK        -0.1800 
    107 C         -7.0910  -22.7309  -57.7096 C.2       19 UNK         0.5000 
    108 O         -7.3861  -21.8344  -58.5019 O.2       19 UNK        -0.5000 
    109 N         -7.5685  -22.8100  -56.4579 N.am      20 UNK        -0.5000 
    110 CA        -8.4340  -21.8454  -55.7680 C.3       20 UNK         0.1400 
    111 CB        -9.8325  -21.7892  -56.4184 C.3       20 UNK        -0.1800 
    112 C         -7.7623  -20.4623  -55.6328 C.2       20 UNK         0.5000 
    113 O         -8.3363  -19.4415  -56.0190 O.2       20 UNK        -0.5000 
    114 N         -6.5324  -20.4707  -55.1066 N.am      21 UNK        -0.5000 
    115 CA        -5.7256  -19.2842  -54.8327 C.3       21 UNK         0.1400 
    116 CB        -4.2601  -19.7176  -54.6644 C.3       21 UNK        -0.1800 
    117 C         -6.2122  -18.5248  -53.5835 C.2       21 UNK         0.5000 
    118 O         -6.9021  -19.1028  -52.7395 O.2       21 UNK        -0.5000 
    119 N         -5.7979  -17.2531  -53.4953 N.am      22 UNK        -0.5000 
    120 CA        -6.0498  -16.2918  -52.4068 C.3       22 UNK         0.1400 
    121 C         -7.5480  -16.1307  -51.9942 C.2       22 UNK         0.5000 
    122 N         -7.8605  -15.8704  -50.7312 N.am      22 UNK        -0.7600 
    123 O         -8.4392  -16.1654  -52.8401 O.2       22 UNK        -0.5000 
    124 C124       -5.0149  -16.4028  -51.2459 C.3       23 UNK        -0.0398 
    125 S125       -5.1443  -17.8915  -50.1967 S.3       23 UNK        -0.2404 
    126 C126       -4.0518  -17.4350  -48.8147 C.3       23 UNK        -0.0205 
    127 H127        6.0352  -16.3689  -45.2906 H         1 UNK         0.0600 
    128 H128        7.0027  -15.1582  -46.1394 H         1 UNK         0.0600 
    129 H129        5.7195  -16.0223  -46.9935 H         1 UNK         0.0600 
    130 H130        3.8839  -14.7933  -47.2625 H         1 UNK         0.3000 
    131 H131        2.4181  -13.6361  -45.2155 H         1 UNK         0.0600 
    132 H132        0.9844  -12.6695  -47.0260 H         1 UNK         0.0800 
    133 H133        2.2116  -13.0608  -48.2114 H         1 UNK         0.0800 
    134 H134        1.1307  -14.8331  -49.8164 H         1 UNK         0.0800 
    135 H135       -0.2896  -14.0522  -49.1528 H         1 UNK         0.0800 
    136 H136       -2.3200  -15.3311  -48.6584 H         1 UNK         0.1150 
    137 H137       -2.5132  -19.4565  -49.7975 H         1 UNK         0.1150 
    138 H138        1.1945  -17.3197  -50.0871 H         1 UNK         0.1150 
    139 H139       -0.6003  -20.6320  -50.5088 H         1 UNK         0.0800 
    140 H140        0.3834  -19.6478  -51.5613 H         1 UNK         0.0800 
    141 H141        0.1037  -19.5706  -47.7252 H         1 UNK         0.0800 
    142 H142        1.7502  -19.7895  -47.2380 H         1 UNK         0.0800 
    143 H143        1.4950  -22.2849  -47.4513 H         1 UNK         0.0600 
    144 H144        0.4570  -20.6586  -45.4072 H         1 UNK         0.3000 
    145 H145       -0.4517  -23.2243  -43.0840 H         1 UNK         0.0600 
    146 H146        1.0661  -21.8066  -41.7244 H         1 UNK         0.0600 
    147 H147        1.9922  -22.7770  -42.8590 H         1 UNK         0.0600 
    148 H148        1.7291  -21.0682  -43.1813 H         1 UNK         0.0600 
    149 H149       -0.6547  -20.3679  -43.0195 H         1 UNK         0.3000 
    150 H150       -4.0046  -20.1346  -44.2385 H         1 UNK         0.0600 
    151 H151       -4.1262  -20.7270  -41.8111 H         1 UNK         0.0600 
    152 H152       -4.2265  -18.9898  -42.0529 H         1 UNK         0.0600 
    153 H153       -2.7242  -19.7150  -41.4824 H         1 UNK         0.0600 
    154 H154       -2.1010  -18.1932  -43.3260 H         1 UNK         0.3000 
    155 H155       -0.7305  -17.4096  -46.5296 H         1 UNK         0.0600 
    156 H156       -2.6645  -15.9257  -44.6628 H         1 UNK         0.0600 
    157 H157       -2.9593  -16.2475  -46.3606 H         1 UNK         0.0600 
    158 H158       -1.6372  -15.1895  -45.8919 H         1 UNK         0.0600 
    159 H159       -0.2868  -16.2105  -44.0200 H         1 UNK         0.3000 
    160 H160        2.0319  -18.4184  -42.5824 H         1 UNK         0.0600 
    161 H161        2.8302  -16.0073  -44.2907 H         1 UNK         0.0600 
    162 H162        3.5515  -17.6087  -44.3712 H         1 UNK         0.0600 
    163 H163        3.7560  -16.6283  -42.9254 H         1 UNK         0.0600 
    164 H164        1.5770  -15.6367  -42.1578 H         1 UNK         0.3000 
    165 H165       -1.5128  -15.7735  -40.5134 H         1 UNK         0.0600 
    166 H166       -0.3786  -15.0604  -38.4232 H         1 UNK         0.0600 
    167 H167       -0.1844  -16.7906  -38.6500 H         1 UNK         0.0600 
    168 H168        1.1570  -15.7077  -39.0030 H         1 UNK         0.0600 
    169 H169        0.5005  -13.7836  -40.4163 H         1 UNK         0.3000 
    170 H170        0.3507  -12.4822  -43.6468 H         1 UNK         0.0600 
    171 H171       -1.8332  -11.5705  -42.8343 H         1 UNK         0.0600 
    172 H172       -1.1303  -11.2743  -41.2485 H         1 UNK         0.0600 
    173 H173       -0.5424  -10.3932  -42.6600 H         1 UNK         0.0600 
    174 H174        1.3688  -11.2898  -41.3159 H         1 UNK         0.3000 
    175 H175        3.4804  -11.2972  -40.8031 H         1 UNK         0.0600 
    176 H176        4.4110  -14.2056  -40.4399 H         1 UNK         0.0600 
    177 H177        4.9417  -12.8263  -39.4795 H         1 UNK         0.0600 
    178 H178        3.2737  -13.3689  -39.3888 H         1 UNK         0.0600 
    179 H179        4.8189  -12.7027  -42.9752 H         1 UNK         0.3000 
    180 H180        7.4995  -10.2832  -42.9556 H         1 UNK         0.0600 
    181 H181        7.3808  -13.3390  -43.1416 H         1 UNK         0.0600 
    182 H182        8.4245  -12.3983  -42.0867 H         1 UNK         0.0600 
    183 H183        8.6403  -12.3152  -43.8284 H         1 UNK         0.0600 
    184 H184        6.0209  -12.0525  -44.8091 H         1 UNK         0.3000 
    185 H185        4.3549   -9.3989  -46.4128 H         1 UNK         0.0600 
    186 H186        6.5917   -8.9801  -47.4335 H         1 UNK         0.0600 
    187 H187        6.8953  -10.7109  -47.5218 H         1 UNK         0.0600 
    188 H188        5.6026   -9.9861  -48.4791 H         1 UNK         0.0600 
    189 H189        4.9535  -12.1505  -47.1128 H         1 UNK         0.3000 
    190 H190       -1.8760  -21.0213  -47.0248 H         1 UNK         0.3000 
    191 H191       -2.9958  -22.2964  -49.2741 H         1 UNK         0.0600 
    192 H192       -4.2905  -21.4431  -46.6337 H         1 UNK         0.0600 
    193 H193       -5.1751  -21.8907  -48.0898 H         1 UNK         0.0600 
    194 H194       -4.1399  -20.4744  -48.0984 H         1 UNK         0.0600 
    195 H195       -2.6645  -23.4913  -45.8949 H         1 UNK         0.3000 
    196 H196       -4.0298  -25.9524  -46.2748 H         1 UNK         0.0600 
    197 H197       -2.8584  -26.6189  -44.1654 H         1 UNK         0.0600 
    198 H198       -3.5770  -25.0211  -44.0363 H         1 UNK         0.0600 
    199 H199       -1.8394  -25.1884  -44.2733 H         1 UNK         0.0600 
    200 H200       -0.5272  -25.1482  -46.5319 H         1 UNK         0.3000 
    201 H201        0.3716  -27.7631  -47.1724 H         1 UNK         0.0600 
    202 H202        1.8745  -25.9904  -46.3319 H         1 UNK         0.0600 
    203 H203        1.6076  -25.0255  -47.7820 H         1 UNK         0.0600 
    204 H204        2.4530  -26.5662  -47.8880 H         1 UNK         0.0600 
    205 H205       -0.6201  -25.0360  -49.2781 H         1 UNK         0.3000 
    206 H206       -0.0748  -26.4307  -51.7568 H         1 UNK         0.0600 
    207 H207        0.0313  -23.9392  -51.4989 H         1 UNK         0.0600 
    208 H208       -1.0953  -24.4136  -52.7580 H         1 UNK         0.0600 
    209 H209       -1.7043  -23.8952  -51.1898 H         1 UNK         0.0600 
    210 H210       -2.6458  -26.6746  -49.5323 H         1 UNK         0.3000 
    211 H211       -4.7175  -27.4411  -49.4705 H         1 UNK         0.0600 
    212 H212       -4.0845  -28.9425  -52.0698 H         1 UNK         0.0600 
    213 H213       -5.3912  -29.3023  -50.9500 H         1 UNK         0.0600 
    214 H214       -3.7236  -29.5211  -50.4440 H         1 UNK         0.0600 
    215 H215       -4.4599  -24.9456  -50.2860 H         1 UNK         0.3000 
    216 H216       -5.3379  -23.1427  -51.1603 H         1 UNK         0.0600 
    217 H217       -7.6854  -23.0711  -51.8706 H         1 UNK         0.0600 
    218 H218       -7.5382  -24.1326  -50.4802 H         1 UNK         0.0600 
    219 H219       -7.7270  -24.8121  -52.0974 H         1 UNK         0.0600 
    220 H220       -4.0354  -25.3910  -53.1014 H         1 UNK         0.3000 
    221 H221       -3.2734  -25.5579  -55.1568 H         1 UNK         0.0600 
    222 H222       -3.5082  -22.5007  -55.2747 H         1 UNK         0.0600 
    223 H223       -2.1744  -23.3825  -54.5515 H         1 UNK         0.0600 
    224 H224       -2.4584  -23.5060  -56.2738 H         1 UNK         0.0600 
    225 H225       -4.2865  -23.2645  -57.1857 H         1 UNK         0.3000 
    226 H226       -6.6471  -24.7653  -58.1971 H         1 UNK         0.0600 
    227 H227       -4.7601  -24.3629  -59.7748 H         1 UNK         0.0600 
    228 H228       -6.2061  -23.5071  -60.2826 H         1 UNK         0.0600 
    229 H229       -4.8920  -22.6245  -59.5116 H         1 UNK         0.0600 
    230 H230       -7.2215  -23.5638  -55.8791 H         1 UNK         0.3000 
    231 H231       -8.5618  -22.2220  -54.7519 H         1 UNK         0.0600 
    232 H232      -10.2824  -22.7805  -56.4709 H         1 UNK         0.0600 
    233 H233       -9.7980  -21.3824  -57.4293 H         1 UNK         0.0600 
    234 H234      -10.5054  -21.1580  -55.8367 H         1 UNK         0.0600 
    235 H235       -6.1792  -21.3511  -54.7366 H         1 UNK         0.3000 
    236 H236       -5.7936  -18.6137  -55.6921 H         1 UNK         0.0600 
    237 H237       -4.1450  -20.4353  -53.8508 H         1 UNK         0.0600 
    238 H238       -3.8814  -20.1759  -55.5777 H         1 UNK         0.0600 
    239 H239       -3.6165  -18.8655  -54.4426 H         1 UNK         0.0600 
    240 H240       -5.2539  -16.8846  -54.2618 H         1 UNK         0.3000 
    241 H241       -5.8372  -15.3305  -52.8759 H         1 UNK         0.0600 
    242 H242       -8.8291  -15.7412  -50.4832 H         1 UNK         0.3800 
    243 H243       -7.1573  -15.8587  -50.0099 H         1 UNK         0.3800 
    244 H244       -4.0067  -16.3817  -51.6621 H         1 UNK         0.0800 
    245 H245       -5.0779  -15.5189  -50.6097 H         1 UNK         0.0800 
    246 H246       -4.1744  -18.1588  -48.0091 H         1 UNK         0.0800 
    247 H247       -4.3754  -16.4758  -48.4083 H         1 UNK         0.0800 
@<TRIPOS>BOND
     1    1    2 1    
     2    1  127 1    
     3    1  128 1    
     4    1  129 1    
     5    2    3 2    
     6    2    4 am   BACKBONE|DICT|INTERRES
     7    4    5 1    
     8    4  130 1    
     9    5    6 1    
    10    5   65 1    
    11    5  131 1    
    12    6    7 1    
    13    6  132 1    
    14    6  133 1    
    15    7    8 1    
    16    8    9 1    
    17    8  134 1    
    18    8  135 1    
    19    9   10 ar   
    20    9   14 ar   
    21   10   11 ar   
    22   10  136 1    
    23   11   12 ar   
    24   11  126 1    
    25   12   13 ar   
    26   12  137 1    
    27   13   14 ar   
    28   13   15 1    
    29   14  138 1    
    30   15   16 1    
    31   15  139 1    
    32   15  140 1    
    33   16   17 1    
    34   17   18 1    
    35   17  141 1    
    36   17  142 1    
    37   18   19 1    
    38   18   67 1    
    39   18  143 1    
    40   19   20 am   BACKBONE|DICT|INTERRES
    41   19  144 1    
    42   20   21 2    
    43   20   22 1    
    44   22   23 1    
    45   22   24 1    
    46   22  145 1    
    47   23  146 1    
    48   23  147 1    
    49   23  148 1    
    50   24   25 am   BACKBONE|DICT|INTERRES
    51   24  149 1    
    52   25   26 2    
    53   25   27 1    
    54   27   28 1    
    55   27   29 1    
    56   27  150 1    
    57   28  151 1    
    58   28  152 1    
    59   28  153 1    
    60   29   30 am   BACKBONE|DICT|INTERRES
    61   29  154 1    
    62   30   31 2    
    63   30   32 1    
    64   32   33 1    
    65   32   34 1    
    66   32  155 1    
    67   33  156 1    
    68   33  157 1    
    69   33  158 1    
    70   34   35 am   BACKBONE|DICT|INTERRES
    71   34  159 1    
    72   35   36 2    
    73   35   37 1    
    74   37   38 1    
    75   37   39 1    
    76   37  160 1    
    77   38  161 1    
    78   38  162 1    
    79   38  163 1    
    80   39   40 am   BACKBONE|DICT|INTERRES
    81   39  164 1    
    82   40   41 2    
    83   40   42 1    
    84   42   43 1    
    85   42   44 1    
    86   42  165 1    
    87   43  166 1    
    88   43  167 1    
    89   43  168 1    
    90   44   45 am   BACKBONE|DICT|INTERRES
    91   44  169 1    
    92   45   46 2    
    93   45   47 1    
    94   47   48 1    
    95   47   49 1    
    96   47  170 1    
    97   48  171 1    
    98   48  172 1    
    99   48  173 1    
   100   49   50 am   BACKBONE|DICT|INTERRES
   101   49  174 1    
   102   50   51 2    
   103   50   52 1    
   104   52   53 1    
   105   52   54 1    
   106   52  175 1    
   107   53  176 1    
   108   53  177 1    
   109   53  178 1    
   110   54   55 am   BACKBONE|DICT|INTERRES
   111   54  179 1    
   112   55   56 2    
   113   55   57 1    
   114   57   58 1    
   115   57   59 1    
   116   57  180 1    
   117   58  181 1    
   118   58  182 1    
   119   58  183 1    
   120   59   60 am   BACKBONE|DICT|INTERRES
   121   59  184 1    
   122   60   61 2    
   123   60   62 1    
   124   62   63 1    
   125   62   64 1    
   126   62  185 1    
   127   63  186 1    
   128   63  187 1    
   129   63  188 1    
   130   64   65 am   BACKBONE|DICT|INTERRES
   131   64  189 1    
   132   65   66 2    
   133   67   68 2    
   134   67   69 am   BACKBONE|DICT|INTERRES
   135   69   70 1    
   136   69  190 1    
   137   70   71 1    
   138   70   72 1    
   139   70  191 1    
   140   71  192 1    
   141   71  193 1    
   142   71  194 1    
   143   72   73 2    
   144   72   74 am   BACKBONE|DICT|INTERRES
   145   74   75 1    
   146   74  195 1    
   147   75   76 1    
   148   75   77 1    
   149   75  196 1    
   150   76  197 1    
   151   76  198 1    
   152   76  199 1    
   153   77   78 2    
   154   77   79 am   BACKBONE|DICT|INTERRES
   155   79   80 1    
   156   79  200 1    
   157   80   81 1    
   158   80   82 1    
   159   80  201 1    
   160   81  202 1    
   161   81  203 1    
   162   81  204 1    
   163   82   83 2    
   164   82   84 am   BACKBONE|DICT|INTERRES
   165   84   85 1    
   166   84  205 1    
   167   85   86 1    
   168   85   87 1    
   169   85  206 1    
   170   86  207 1    
   171   86  208 1    
   172   86  209 1    
   173   87   88 2    
   174   87   89 am   BACKBONE|DICT|INTERRES
   175   89   90 1    
   176   89  210 1    
   177   90   91 1    
   178   90   92 1    
   179   90  211 1    
   180   91  212 1    
   181   91  213 1    
   182   91  214 1    
   183   92   93 2    
   184   92   94 am   BACKBONE|DICT|INTERRES
   185   94   95 1    
   186   94  215 1    
   187   95   96 1    
   188   95   97 1    
   189   95  216 1    
   190   96  217 1    
   191   96  218 1    
   192   96  219 1    
   193   97   98 2    
   194   97   99 am   BACKBONE|DICT|INTERRES
   195   99  100 1    
   196   99  220 1    
   197  100  101 1    
   198  100  102 1    
   199  100  221 1    
   200  101  222 1    
   201  101  223 1    
   202  101  224 1    
   203  102  103 2    
   204  102  104 am   BACKBONE|DICT|INTERRES
   205  104  105 1    
   206  104  225 1    
   207  105  106 1    
   208  105  107 1    
   209  105  226 1    
   210  106  227 1    
   211  106  228 1    
   212  106  229 1    
   213  107  108 2    
   214  107  109 am   BACKBONE|DICT|INTERRES
   215  109  110 1    
   216  109  230 1    
   217  110  111 1    
   218  110  112 1    
   219  110  231 1    
   220  111  232 1    
   221  111  233 1    
   222  111  234 1    
   223  112  113 2    
   224  112  114 am   BACKBONE|DICT|INTERRES
   225  114  115 1    
   226  114  235 1    
   227  115  116 1    
   228  115  117 1    
   229  115  236 1    
   230  116  237 1    
   231  116  238 1    
   232  116  239 1    
   233  117  118 2    
   234  117  119 am   BACKBONE|DICT|INTERRES
   235  119  120 1    
   236  119  240 1    
   237  120  121 1    
   238  120  124 1    
   239  120  241 1    
   240  121  122 am   BACKBONE|DICT|INTERRES
   241  121  123 2    
   242  122  242 1    
   243  122  243 1    
   244  124  125 1    
   245  124  244 1    
   246  124  245 1    
   247  125  126 1    
   248  126  246 1    
   249  126  247 1    
@<TRIPOS>SUBSTRUCTURE
     1 UNK         1 GROUP             0       ****    0 ROOT    
