@<TRIPOS>MOLECULE
3R540
247   249    1
SMALL
USER_CHARGES


@<TRIPOS>ATOM
      1 CA          3.6431  -11.6186  -52.5612 C.3       0 UNK        -0.1800 
      2 C           3.5214  -12.6921  -51.4890 C.2       0 UNK         0.5000 
      3 O           4.3287  -13.6208  -51.4580 O.2       0 UNK        -0.5000 
      4 N           2.5188  -12.5664  -50.6092 N.am      1 UNK        -0.5000 
      5 CA          2.2490  -13.4987  -49.5049 C.3       1 UNK         0.1400 
      6 C6          0.7671  -13.4164  -49.0483 C.3       23 UNK        -0.0398 
      7 S7          0.0937  -15.0320  -48.5252 S.3       23 UNK        -0.2404 
      8 C8         -0.9077  -15.4627  -49.9831 C.3       23 UNK        -0.0205 
      9 C9         -1.5755  -16.8204  -49.8329 C.ar      23 UNK        -0.0193 
     10 C10        -2.8068  -16.9297  -49.1822 C.ar      23 UNK        -0.1150 
     11 C11        -3.4499  -18.1674  -49.0762 C.ar      23 UNK        -0.0193 
     12 C12        -2.8420  -19.3030  -49.6179 C.ar      23 UNK        -0.1150 
     13 C13        -1.6059  -19.2111  -50.2626 C.ar      23 UNK        -0.0193 
     14 C14        -0.9793  -17.9647  -50.3688 C.ar      23 UNK        -0.1150 
     15 C15        -0.9560  -20.4672  -50.8323 C.3       23 UNK        -0.0205 
     16 S16         0.7639  -20.7209  -50.2707 S.3       23 UNK        -0.2404 
     17 C17         0.6298  -20.5387  -48.4569 C.3       23 UNK        -0.0398 
     18 CA          0.5594  -21.8715  -47.6793 C.3       11 UNK         0.1400 
     19 N           0.7561  -21.6552  -46.2455 N.am      11 UNK        -0.5000 
     20 C           0.9035  -22.6207  -45.3288 C.2       10 UNK         0.5000 
     21 O           0.9295  -23.8216  -45.5963 O.2       10 UNK        -0.5000 
     22 CA          0.9875  -22.1675  -43.8598 C.3       10 UNK         0.1400 
     23 CB          2.3825  -21.6132  -43.5346 C.3       10 UNK        -0.1800 
     24 N          -0.0281  -21.1693  -43.5220 N.am      10 UNK        -0.5000 
     25 C          -1.3504  -21.3892  -43.5654 C.2       9 UNK         0.5000 
     26 O          -1.8567  -22.4708  -43.8620 O.2       9 UNK        -0.5000 
     27 CA         -2.2617  -20.1852  -43.2750 C.3       9 UNK         0.1400 
     28 CB         -2.3644  -19.9189  -41.7656 C.3       9 UNK        -0.1800 
     29 N          -1.8062  -18.9761  -43.9574 N.am      9 UNK        -0.5000 
     30 C          -1.7994  -18.8123  -45.2881 C.2       8 UNK         0.5000 
     31 O          -2.2029  -19.6552  -46.0866 O.2       8 UNK        -0.5000 
     32 CA         -1.1853  -17.5049  -45.8097 C.3       8 UNK         0.1400 
     33 CB         -2.2111  -16.3640  -45.7348 C.3       8 UNK        -0.1800 
     34 N           0.0313  -17.1494  -45.0731 N.am      8 UNK        -0.5000 
     35 C           1.1655  -17.8631  -45.1505 C.2       7 UNK         0.5000 
     36 O           1.2833  -18.8749  -45.8392 O.2       7 UNK        -0.5000 
     37 CA          2.3641  -17.4185  -44.2991 C.3       7 UNK         0.1400 
     38 CB          3.2236  -16.4045  -45.0624 C.3       7 UNK        -0.1800 
     39 N           2.0059  -16.8743  -42.9916 N.am      7 UNK        -0.5000 
     40 C           1.4459  -17.5840  -42.0018 C.2       6 UNK         0.5000 
     41 O           1.0405  -18.7394  -42.1381 O.2       6 UNK        -0.5000 
     42 CA          1.3250  -16.8931  -40.6343 C.3       6 UNK         0.1400 
     43 CB          2.6764  -16.9114  -39.9032 C.3       6 UNK        -0.1800 
     44 N           0.8816  -15.5093  -40.7885 N.am      6 UNK        -0.5000 
     45 C          -0.2883  -15.0289  -40.3475 C.2       5 UNK         0.5000 
     46 O          -1.0732  -15.6673  -39.6449 O.2       5 UNK        -0.5000 
     47 CA         -0.6668  -13.5968  -40.7839 C.3       5 UNK         0.1400 
     48 CB         -0.2600  -12.5831  -39.7038 C.3       5 UNK        -0.1800 
     49 N          -0.0902  -13.1799  -42.0662 N.am      5 UNK        -0.5000 
     50 C          -0.2396  -13.8218  -43.2336 C.2       4 UNK         0.5000 
     51 O          -0.8977  -14.8507  -43.3690 O.2       4 UNK        -0.5000 
     52 CA          0.5231  -13.2634  -44.4469 C.3       4 UNK         0.1400 
     53 CB         -0.3555  -12.2590  -45.2060 C.3       4 UNK        -0.1800 
     54 N           1.8124  -12.6342  -44.1461 N.am      4 UNK        -0.5000 
     55 C           2.8205  -13.1328  -43.4174 C.2       3 UNK         0.5000 
     56 O           2.7404  -14.1658  -42.7473 O.2       3 UNK        -0.5000 
     57 CA          4.1485  -12.3496  -43.4880 C.3       3 UNK         0.1400 
     58 CB          5.2140  -12.9154  -42.5321 C.3       3 UNK        -0.1800 
     59 N           4.6968  -12.3386  -44.8477 N.am      3 UNK        -0.5000 
     60 C           4.2391  -11.6127  -45.8773 C.2       2 UNK         0.5000 
     61 O           3.3012  -10.8175  -45.7796 O.2       2 UNK        -0.5000 
     62 CA          4.9222  -11.7927  -47.2494 C.3       2 UNK         0.1400 
     63 CB          6.1443  -12.7401  -47.2398 C.3       2 UNK        -0.1800 
     64 N           3.9560  -12.1923  -48.2786 N.am      2 UNK        -0.5000 
     65 C           3.2280  -13.3211  -48.3177 C.2       1 UNK         0.5000 
     66 O           3.3091  -14.2088  -47.4710 O.2       1 UNK        -0.5000 
     67 C          -0.7459  -22.6412  -47.9613 C.2       11 UNK         0.5000 
     68 O          -0.7135  -23.6239  -48.7018 O.2       11 UNK        -0.5000 
     69 N          -1.8556  -22.2202  -47.3355 N.am      12 UNK        -0.5000 
     70 CA         -3.1593  -22.8738  -47.4496 C.3       12 UNK         0.1400 
     71 CB         -4.2311  -22.0428  -46.7313 C.3       12 UNK        -0.1800 
     72 C          -3.1572  -24.3200  -46.9272 C.2       12 UNK         0.5000 
     73 O          -3.7611  -25.1866  -47.5567 O.2       12 UNK        -0.5000 
     74 N          -2.4554  -24.5657  -45.8121 N.am      13 UNK        -0.5000 
     75 CA         -2.2558  -25.8973  -45.2413 C.3       13 UNK         0.1400 
     76 CB         -1.6384  -25.7730  -43.8403 C.3       13 UNK        -0.1800 
     77 C          -1.3962  -26.8047  -46.1405 C.2       13 UNK         0.5000 
     78 O          -1.7322  -27.9771  -46.3096 O.2       13 UNK        -0.5000 
     79 N          -0.3193  -26.2472  -46.7124 N.am      14 UNK        -0.5000 
     80 CA          0.5902  -26.9411  -47.6252 C.3       14 UNK         0.1400 
     81 CB          1.8516  -26.0907  -47.8414 C.3       14 UNK        -0.1800 
     82 C          -0.0683  -27.2946  -48.9710 C.2       14 UNK         0.5000 
     83 O           0.0900  -28.4195  -49.4473 O.2       14 UNK        -0.5000 
     84 N          -0.8016  -26.3363  -49.5530 N.am      15 UNK        -0.5000 
     85 CA         -1.5374  -26.5046  -50.8074 C.3       15 UNK         0.1400 
     86 CB         -1.8729  -25.1184  -51.3799 C.3       15 UNK        -0.1800 
     87 C          -2.8219  -27.3405  -50.6502 C.2       15 UNK         0.5000 
     88 O          -3.2798  -27.9268  -51.6315 O.2       15 UNK        -0.5000 
     89 N          -3.3849  -27.3551  -49.4325 N.am      16 UNK        -0.5000 
     90 CA         -4.6704  -27.9443  -49.0389 C.3       16 UNK         0.1400 
     91 CB         -4.6555  -29.4777  -49.2079 C.3       16 UNK        -0.1800 
     92 C          -5.8759  -27.2671  -49.7296 C.2       16 UNK         0.5000 
     93 O          -6.9166  -27.9005  -49.9165 O.2       16 UNK        -0.5000 
     94 N          -5.7108  -25.9909  -50.0968 N.am      17 UNK        -0.5000 
     95 CA         -6.6359  -25.1577  -50.8567 C.3       17 UNK         0.1400 
     96 CB         -6.7973  -25.7086  -52.2906 C.3       17 UNK        -0.1800 
     97 C          -6.0782  -23.7253  -50.8952 C.2       17 UNK         0.5000 
     98 O          -4.9468  -23.4915  -50.4660 O.2       17 UNK        -0.5000 
     99 N          -6.8647  -22.7955  -51.4519 N.am      18 UNK        -0.5000 
    100 CA        -6.4726  -21.4035  -51.7052 C.3       18 UNK         0.1400 
    101 CB        -7.7293  -20.6093  -52.0954 C.3       18 UNK        -0.1800 
    102 C         -5.3926  -21.2431  -52.7969 C.2       18 UNK         0.5000 
    103 O         -4.7561  -20.1882  -52.8663 O.2       18 UNK        -0.5000 
    104 N         -5.2357  -22.2758  -53.6407 N.am      19 UNK        -0.5000 
    105 CA        -4.3240  -22.4222  -54.7818 C.3       19 UNK         0.1400 
    106 CB        -2.8495  -22.3122  -54.3419 C.3       19 UNK        -0.1800 
    107 C         -4.6458  -21.4674  -55.9469 C.2       19 UNK         0.5000 
    108 O         -4.9477  -21.9287  -57.0475 O.2       19 UNK        -0.5000 
    109 N         -4.5926  -20.1660  -55.6549 N.am      20 UNK        -0.5000 
    110 CA        -4.8586  -19.0021  -56.5014 C.3       20 UNK         0.1400 
    111 CB        -4.1216  -19.0691  -57.8558 C.3       20 UNK        -0.1800 
    112 C         -4.4108  -17.7435  -55.7437 C.2       20 UNK         0.5000 
    113 O         -5.0899  -16.7177  -55.7975 O.2       20 UNK        -0.5000 
    114 N         -3.2814  -17.8599  -55.0287 N.am      21 UNK        -0.5000 
    115 CA        -2.6136  -16.7906  -54.2847 C.3       21 UNK         0.1400 
    116 CB        -1.2801  -17.3276  -53.7470 C.3       21 UNK        -0.1800 
    117 C         -3.4537  -16.1630  -53.1552 C.2       21 UNK         0.5000 
    118 O         -3.2285  -14.9972  -52.8271 O.2       21 UNK        -0.5000 
    119 N         -4.4192  -16.9161  -52.6090 N.am      22 UNK        -0.5000 
    120 CA        -5.4186  -16.4006  -51.6579 C.3       22 UNK         0.1400 
    121 C         -6.5126  -15.4893  -52.2965 C.2       22 UNK         0.5000 
    122 N         -6.6196  -15.3856  -53.6170 N.am      22 UNK        -0.7600 
    123 O         -7.2803  -14.8551  -51.5784 O.2       22 UNK        -0.5000 
    124 C124       -6.0466  -17.5369  -50.8011 C.3       23 UNK        -0.0398 
    125 S125       -6.0562  -17.1383  -49.0197 S.3       23 UNK        -0.2404 
    126 C126       -4.7992  -18.2925  -48.3774 C.3       23 UNK        -0.0205 
    127 H127        3.5641  -12.0672  -53.5515 H         1 UNK         0.0600 
    128 H128        4.6106  -11.1221  -52.4870 H         1 UNK         0.0600 
    129 H129        2.8642  -10.8614  -52.4683 H         1 UNK         0.0600 
    130 H130        1.8899  -11.7793  -50.6880 H         1 UNK         0.3000 
    131 H131        2.4233  -14.5036  -49.8967 H         1 UNK         0.0600 
    132 H132        0.6375  -12.6982  -48.2381 H         1 UNK         0.0800 
    133 H133        0.1403  -13.0421  -49.8589 H         1 UNK         0.0800 
    134 H134       -1.6700  -14.6982  -50.1423 H         1 UNK         0.0800 
    135 H135       -0.2741  -15.4537  -50.8712 H         1 UNK         0.0800 
    136 H136       -3.2721  -16.0463  -48.7688 H         1 UNK         0.1150 
    137 H137       -3.3305  -20.2637  -49.5341 H         1 UNK         0.1150 
    138 H138       -0.0249  -17.8872  -50.8701 H         1 UNK         0.1150 
    139 H139       -1.5394  -21.3534  -50.5764 H         1 UNK         0.0800 
    140 H140       -0.9648  -20.4043  -51.9208 H         1 UNK         0.0800 
    141 H141       -0.1991  -19.8873  -48.1797 H         1 UNK         0.0800 
    142 H142        1.5285  -20.0006  -48.1548 H         1 UNK         0.0800 
    143 H143        1.3863  -22.4994  -48.0180 H         1 UNK         0.0600 
    144 H144        0.7831  -20.6842  -45.9438 H         1 UNK         0.3000 
    145 H145        0.8146  -23.0435  -43.2313 H         1 UNK         0.0600 
    146 H146        2.4635  -21.3422  -42.4818 H         1 UNK         0.0600 
    147 H147        3.1547  -22.3552  -43.7413 H         1 UNK         0.0600 
    148 H148        2.6118  -20.7269  -44.1261 H         1 UNK         0.0600 
    149 H149        0.3065  -20.2564  -43.2290 H         1 UNK         0.3000 
    150 H150       -3.2601  -20.4255  -43.6464 H         1 UNK         0.0600 
    151 H151       -2.7251  -20.8031  -41.2387 H         1 UNK         0.0600 
    152 H152       -3.0621  -19.1082  -41.5552 H         1 UNK         0.0600 
    153 H153       -1.3999  -19.6508  -41.3334 H         1 UNK         0.0600 
    154 H154       -1.4116  -18.2473  -43.3811 H         1 UNK         0.3000 
    155 H155       -0.9172  -17.6512  -46.8586 H         1 UNK         0.0600 
    156 H156       -2.5864  -16.2213  -44.7216 H         1 UNK         0.0600 
    157 H157       -1.7840  -15.4211  -46.0756 H         1 UNK         0.0600 
    158 H158       -3.0747  -16.5758  -46.3632 H         1 UNK         0.0600 
    159 H159       -0.0306  -16.3570  -44.4441 H         1 UNK         0.3000 
    160 H160        2.9803  -18.3021  -44.1218 H         1 UNK         0.0600 
    161 H161        4.1178  -16.1353  -44.5002 H         1 UNK         0.0600 
    162 H162        2.6683  -15.4907  -45.2679 H         1 UNK         0.0600 
    163 H163        3.5498  -16.8088  -46.0215 H         1 UNK         0.0600 
    164 H164        2.3091  -15.9201  -42.8132 H         1 UNK         0.3000 
    165 H165        0.6108  -17.4685  -40.0418 H         1 UNK         0.0600 
    166 H166        2.5872  -16.4827  -38.9050 H         1 UNK         0.0600 
    167 H167        3.0450  -17.9315  -39.7880 H         1 UNK         0.0600 
    168 H168        3.4362  -16.3445  -40.4433 H         1 UNK         0.0600 
    169 H169        1.4554  -14.9116  -41.3738 H         1 UNK         0.3000 
    170 H170       -1.7529  -13.5678  -40.8911 H         1 UNK         0.0600 
    171 H171        0.8229  -12.5433  -39.5786 H         1 UNK         0.0600 
    172 H172       -0.6077  -11.5800  -39.9515 H         1 UNK         0.0600 
    173 H173       -0.6929  -12.8458  -38.7376 H         1 UNK         0.0600 
    174 H174        0.4918  -12.3555  -42.0522 H         1 UNK         0.3000 
    175 H175        0.7284  -14.1008  -45.1161 H         1 UNK         0.0600 
    176 H176        0.1501  -11.8819  -46.0942 H         1 UNK         0.0600 
    177 H177       -0.6146  -11.4020  -44.5830 H         1 UNK         0.0600 
    178 H178       -1.2867  -12.7236  -45.5335 H         1 UNK         0.0600 
    179 H179        2.0287  -11.8008  -44.6850 H         1 UNK         0.3000 
    180 H180        3.9389  -11.3219  -43.1843 H         1 UNK         0.0600 
    181 H181        5.4823  -13.9411  -42.7887 H         1 UNK         0.0600 
    182 H182        4.8539  -12.9179  -41.5024 H         1 UNK         0.0600 
    183 H183        6.1234  -12.3148  -42.5551 H         1 UNK         0.0600 
    184 H184        5.4418  -12.9951  -45.0289 H         1 UNK         0.3000 
    185 H185        5.2813  -10.8034  -47.5361 H         1 UNK         0.0600 
    186 H186        6.5992  -12.7940  -48.2290 H         1 UNK         0.0600 
    187 H187        6.9143  -12.3823  -46.5551 H         1 UNK         0.0600 
    188 H188        5.8818  -13.7566  -46.9450 H         1 UNK         0.0600 
    189 H189        3.7981  -11.5154  -49.0110 H         1 UNK         0.3000 
    190 H190       -1.8233  -21.3793  -46.7640 H         1 UNK         0.3000 
    191 H191       -3.4086  -22.9055  -48.5103 H         1 UNK         0.0600 
    192 H192       -4.2944  -21.0395  -47.1488 H         1 UNK         0.0600 
    193 H193       -5.2153  -22.5011  -46.8351 H         1 UNK         0.0600 
    194 H194       -4.0196  -21.9483  -45.6657 H         1 UNK         0.0600 
    195 H195       -2.0341  -23.7872  -45.3136 H         1 UNK         0.3000 
    196 H196       -3.2360  -26.3671  -45.1369 H         1 UNK         0.0600 
    197 H197       -1.4882  -26.7551  -43.3902 H         1 UNK         0.0600 
    198 H198       -2.2879  -25.2055  -43.1736 H         1 UNK         0.0600 
    199 H199       -0.6704  -25.2720  -43.8686 H         1 UNK         0.0600 
    200 H200       -0.0852  -25.2858  -46.4831 H         1 UNK         0.3000 
    201 H201        0.8932  -27.8759  -47.1491 H         1 UNK         0.0600 
    202 H202        2.3729  -25.9145  -46.9004 H         1 UNK         0.0600 
    203 H203        1.6142  -25.1200  -48.2776 H         1 UNK         0.0600 
    204 H204        2.5509  -26.5912  -48.5122 H         1 UNK         0.0600 
    205 H205       -0.8389  -25.4130  -49.1238 H         1 UNK         0.3000 
    206 H206       -0.8930  -27.0204  -51.5223 H         1 UNK         0.0600 
    207 H207       -0.9681  -24.5472  -51.5884 H         1 UNK         0.0600 
    208 H208       -2.4297  -25.2027  -52.3138 H         1 UNK         0.0600 
    209 H209       -2.4802  -24.5357  -50.6866 H         1 UNK         0.0600 
    210 H210       -2.9550  -26.7825  -48.7158 H         1 UNK         0.3000 
    211 H211       -4.7799  -27.7362  -47.9738 H         1 UNK         0.0600 
    212 H212       -4.6334  -29.7715  -50.2574 H         1 UNK         0.0600 
    213 H213       -5.5434  -29.9279  -48.7627 H         1 UNK         0.0600 
    214 H214       -3.7883  -29.9187  -48.7162 H         1 UNK         0.0600 
    215 H215       -4.8518  -25.5152  -49.8423 H         1 UNK         0.3000 
    216 H216       -7.6013  -25.1433  -50.3477 H         1 UNK         0.0600 
    217 H217       -7.4676  -25.0881  -52.8859 H         1 UNK         0.0600 
    218 H218       -7.2204  -26.7128  -52.2918 H         1 UNK         0.0600 
    219 H219       -5.8391  -25.7530  -52.8104 H         1 UNK         0.0600 
    220 H220       -7.7867  -23.0622  -51.7665 H         1 UNK         0.3000 
    221 H221       -6.0652  -20.9835  -50.7831 H         1 UNK         0.0600 
    222 H222       -8.2544  -21.0742  -52.9307 H         1 UNK         0.0600 
    223 H223       -8.4248  -20.5371  -51.2590 H         1 UNK         0.0600 
    224 H224       -7.4814  -19.5938  -52.4030 H         1 UNK         0.0600 
    225 H225       -5.8508  -23.0624  -53.4959 H         1 UNK         0.3000 
    226 H226       -4.4749  -23.4366  -55.1546 H         1 UNK         0.0600 
    227 H227       -2.6186  -23.0378  -53.5625 H         1 UNK         0.0600 
    228 H228       -2.1792  -22.5097  -55.1791 H         1 UNK         0.0600 
    229 H229       -2.6031  -21.3234  -53.9549 H         1 UNK         0.0600 
    230 H230       -4.4449  -19.9501  -54.6708 H         1 UNK         0.3000 
    231 H231       -5.9342  -18.9367  -56.6734 H         1 UNK         0.0600 
    232 H232       -3.0590  -19.2778  -57.7272 H         1 UNK         0.0600 
    233 H233       -4.2075  -18.1246  -58.3950 H         1 UNK         0.0600 
    234 H234       -4.5398  -19.8369  -58.5056 H         1 UNK         0.0600 
    235 H235       -2.7938  -18.7429  -55.0614 H         1 UNK         0.3000 
    236 H236       -2.3930  -15.9907  -54.9944 H         1 UNK         0.0600 
    237 H237       -0.6108  -17.6072  -54.5606 H         1 UNK         0.0600 
    238 H238       -0.7642  -16.5768  -53.1472 H         1 UNK         0.0600 
    239 H239       -1.4315  -18.2074  -53.1224 H         1 UNK         0.0600 
    240 H240       -4.5234  -17.8769  -52.9075 H         1 UNK         0.3000 
    241 H241       -4.8688  -15.7401  -50.9846 H         1 UNK         0.0600 
    242 H242       -5.9973  -15.8858  -54.2433 H         1 UNK         0.3800 
    243 H243       -7.3313  -14.7873  -54.0052 H         1 UNK         0.3800 
    244 H244       -7.0733  -17.7496  -51.1013 H         1 UNK         0.0800 
    245 H245       -5.5082  -18.4737  -50.9422 H         1 UNK         0.0800 
    246 H246       -5.1910  -19.3053  -48.4778 H         1 UNK         0.0800 
    247 H247       -4.6646  -18.1209  -47.3092 H         1 UNK         0.0800 
@<TRIPOS>BOND
     1    1    2 1    
     2    1  127 1    
     3    1  128 1    
     4    1  129 1    
     5    2    3 2    
     6    2    4 am   BACKBONE|DICT|INTERRES
     7    4    5 1    
     8    4  130 1    
     9    5    6 1    
    10    5   65 1    
    11    5  131 1    
    12    6    7 1    
    13    6  132 1    
    14    6  133 1    
    15    7    8 1    
    16    8    9 1    
    17    8  134 1    
    18    8  135 1    
    19    9   10 ar   
    20    9   14 ar   
    21   10   11 ar   
    22   10  136 1    
    23   11   12 ar   
    24   11  126 1    
    25   12   13 ar   
    26   12  137 1    
    27   13   14 ar   
    28   13   15 1    
    29   14  138 1    
    30   15   16 1    
    31   15  139 1    
    32   15  140 1    
    33   16   17 1    
    34   17   18 1    
    35   17  141 1    
    36   17  142 1    
    37   18   19 1    
    38   18   67 1    
    39   18  143 1    
    40   19   20 am   BACKBONE|DICT|INTERRES
    41   19  144 1    
    42   20   21 2    
    43   20   22 1    
    44   22   23 1    
    45   22   24 1    
    46   22  145 1    
    47   23  146 1    
    48   23  147 1    
    49   23  148 1    
    50   24   25 am   BACKBONE|DICT|INTERRES
    51   24  149 1    
    52   25   26 2    
    53   25   27 1    
    54   27   28 1    
    55   27   29 1    
    56   27  150 1    
    57   28  151 1    
    58   28  152 1    
    59   28  153 1    
    60   29   30 am   BACKBONE|DICT|INTERRES
    61   29  154 1    
    62   30   31 2    
    63   30   32 1    
    64   32   33 1    
    65   32   34 1    
    66   32  155 1    
    67   33  156 1    
    68   33  157 1    
    69   33  158 1    
    70   34   35 am   BACKBONE|DICT|INTERRES
    71   34  159 1    
    72   35   36 2    
    73   35   37 1    
    74   37   38 1    
    75   37   39 1    
    76   37  160 1    
    77   38  161 1    
    78   38  162 1    
    79   38  163 1    
    80   39   40 am   BACKBONE|DICT|INTERRES
    81   39  164 1    
    82   40   41 2    
    83   40   42 1    
    84   42   43 1    
    85   42   44 1    
    86   42  165 1    
    87   43  166 1    
    88   43  167 1    
    89   43  168 1    
    90   44   45 am   BACKBONE|DICT|INTERRES
    91   44  169 1    
    92   45   46 2    
    93   45   47 1    
    94   47   48 1    
    95   47   49 1    
    96   47  170 1    
    97   48  171 1    
    98   48  172 1    
    99   48  173 1    
   100   49   50 am   BACKBONE|DICT|INTERRES
   101   49  174 1    
   102   50   51 2    
   103   50   52 1    
   104   52   53 1    
   105   52   54 1    
   106   52  175 1    
   107   53  176 1    
   108   53  177 1    
   109   53  178 1    
   110   54   55 am   BACKBONE|DICT|INTERRES
   111   54  179 1    
   112   55   56 2    
   113   55   57 1    
   114   57   58 1    
   115   57   59 1    
   116   57  180 1    
   117   58  181 1    
   118   58  182 1    
   119   58  183 1    
   120   59   60 am   BACKBONE|DICT|INTERRES
   121   59  184 1    
   122   60   61 2    
   123   60   62 1    
   124   62   63 1    
   125   62   64 1    
   126   62  185 1    
   127   63  186 1    
   128   63  187 1    
   129   63  188 1    
   130   64   65 am   BACKBONE|DICT|INTERRES
   131   64  189 1    
   132   65   66 2    
   133   67   68 2    
   134   67   69 am   BACKBONE|DICT|INTERRES
   135   69   70 1    
   136   69  190 1    
   137   70   71 1    
   138   70   72 1    
   139   70  191 1    
   140   71  192 1    
   141   71  193 1    
   142   71  194 1    
   143   72   73 2    
   144   72   74 am   BACKBONE|DICT|INTERRES
   145   74   75 1    
   146   74  195 1    
   147   75   76 1    
   148   75   77 1    
   149   75  196 1    
   150   76  197 1    
   151   76  198 1    
   152   76  199 1    
   153   77   78 2    
   154   77   79 am   BACKBONE|DICT|INTERRES
   155   79   80 1    
   156   79  200 1    
   157   80   81 1    
   158   80   82 1    
   159   80  201 1    
   160   81  202 1    
   161   81  203 1    
   162   81  204 1    
   163   82   83 2    
   164   82   84 am   BACKBONE|DICT|INTERRES
   165   84   85 1    
   166   84  205 1    
   167   85   86 1    
   168   85   87 1    
   169   85  206 1    
   170   86  207 1    
   171   86  208 1    
   172   86  209 1    
   173   87   88 2    
   174   87   89 am   BACKBONE|DICT|INTERRES
   175   89   90 1    
   176   89  210 1    
   177   90   91 1    
   178   90   92 1    
   179   90  211 1    
   180   91  212 1    
   181   91  213 1    
   182   91  214 1    
   183   92   93 2    
   184   92   94 am   BACKBONE|DICT|INTERRES
   185   94   95 1    
   186   94  215 1    
   187   95   96 1    
   188   95   97 1    
   189   95  216 1    
   190   96  217 1    
   191   96  218 1    
   192   96  219 1    
   193   97   98 2    
   194   97   99 am   BACKBONE|DICT|INTERRES
   195   99  100 1    
   196   99  220 1    
   197  100  101 1    
   198  100  102 1    
   199  100  221 1    
   200  101  222 1    
   201  101  223 1    
   202  101  224 1    
   203  102  103 2    
   204  102  104 am   BACKBONE|DICT|INTERRES
   205  104  105 1    
   206  104  225 1    
   207  105  106 1    
   208  105  107 1    
   209  105  226 1    
   210  106  227 1    
   211  106  228 1    
   212  106  229 1    
   213  107  108 2    
   214  107  109 am   BACKBONE|DICT|INTERRES
   215  109  110 1    
   216  109  230 1    
   217  110  111 1    
   218  110  112 1    
   219  110  231 1    
   220  111  232 1    
   221  111  233 1    
   222  111  234 1    
   223  112  113 2    
   224  112  114 am   BACKBONE|DICT|INTERRES
   225  114  115 1    
   226  114  235 1    
   227  115  116 1    
   228  115  117 1    
   229  115  236 1    
   230  116  237 1    
   231  116  238 1    
   232  116  239 1    
   233  117  118 2    
   234  117  119 am   BACKBONE|DICT|INTERRES
   235  119  120 1    
   236  119  240 1    
   237  120  121 1    
   238  120  124 1    
   239  120  241 1    
   240  121  122 am   BACKBONE|DICT|INTERRES
   241  121  123 2    
   242  122  242 1    
   243  122  243 1    
   244  124  125 1    
   245  124  244 1    
   246  124  245 1    
   247  125  126 1    
   248  126  246 1    
   249  126  247 1    
@<TRIPOS>SUBSTRUCTURE
     1 UNK         1 GROUP             0       ****    0 ROOT    
