@<TRIPOS>MOLECULE
3R540
247   249    1
SMALL
USER_CHARGES


@<TRIPOS>ATOM
      1 CA         -0.8690   -9.3064  -50.6677 C.3       0 UNK        -0.1800 
      2 C           0.0415  -10.1973  -49.8341 C.2       0 UNK         0.5000 
      3 O           1.2486   -9.9596  -49.7798 O.2       0 UNK        -0.5000 
      4 N          -0.5295  -11.2246  -49.1940 N.am      1 UNK        -0.5000 
      5 CA          0.1709  -12.1594  -48.3089 C.3       1 UNK         0.1400 
      6 C6         -0.7133  -13.3748  -47.9404 C.3       23 UNK        -0.0398 
      7 S7         -1.0325  -14.4597  -49.3683 S.3       23 UNK        -0.2404 
      8 C8          0.2848  -15.7011  -49.1212 C.3       23 UNK        -0.0205 
      9 C9          0.1875  -16.9710  -49.9663 C.ar      23 UNK        -0.0193 
     10 C10        -0.8208  -17.1985  -50.9140 C.ar      23 UNK        -0.1150 
     11 C11        -0.8667  -18.3967  -51.6338 C.ar      23 UNK        -0.0193 
     12 C12         0.1056  -19.3723  -51.4065 C.ar      23 UNK        -0.1150 
     13 C13         1.1204  -19.1584  -50.4728 C.ar      23 UNK        -0.0193 
     14 C14         1.1558  -17.9574  -49.7613 C.ar      23 UNK        -0.1150 
     15 C15         2.1807  -20.2226  -50.2371 C.3       23 UNK        -0.0205 
     16 S16         1.5362  -21.6466  -49.3050 S.3       23 UNK        -0.2404 
     17 C17         1.1180  -20.8941  -47.6947 C.3       23 UNK        -0.0398 
     18 CA         -0.3052  -21.2643  -47.2177 C.3       11 UNK         0.1400 
     19 N          -0.4450  -21.1055  -45.7680 N.am      11 UNK        -0.5000 
     20 C          -1.4640  -21.5983  -45.0511 C.2       10 UNK         0.5000 
     21 O          -2.3826  -22.2562  -45.5363 O.2       10 UNK        -0.5000 
     22 CA         -1.4868  -21.2667  -43.5497 C.3       10 UNK         0.1400 
     23 CB         -0.5162  -22.1720  -42.7768 C.3       10 UNK        -0.1800 
     24 N          -1.1782  -19.8623  -43.2815 N.am      10 UNK        -0.5000 
     25 C          -1.9318  -18.8297  -43.6853 C.2       9 UNK         0.5000 
     26 O          -2.9942  -18.9581  -44.2934 O.2       9 UNK        -0.5000 
     27 CA         -1.3863  -17.4171  -43.4033 C.3       9 UNK         0.1400 
     28 CB         -1.6473  -17.0119  -41.9463 C.3       9 UNK        -0.1800 
     29 N           0.0414  -17.2915  -43.6999 N.am      9 UNK        -0.5000 
     30 C           0.5796  -17.4606  -44.9166 C.2       8 UNK         0.5000 
     31 O          -0.0720  -17.7028  -45.9305 O.2       8 UNK        -0.5000 
     32 CA          2.1112  -17.4054  -45.0078 C.3       8 UNK         0.1400 
     33 CB          2.6042  -15.9521  -45.0204 C.3       8 UNK        -0.1800 
     34 N           2.7430  -18.1405  -43.9128 N.am      8 UNK        -0.5000 
     35 C           2.6892  -19.4734  -43.7750 C.2       7 UNK         0.5000 
     36 O           2.1286  -20.2220  -44.5755 O.2       7 UNK        -0.5000 
     37 CA          3.3321  -20.0623  -42.5067 C.3       7 UNK         0.1400 
     38 CB          4.8510  -20.2053  -42.6836 C.3       7 UNK        -0.1800 
     39 N           3.0535  -19.2632  -41.3126 N.am      7 UNK        -0.5000 
     40 C           1.8347  -19.1005  -40.7785 C.2       6 UNK         0.5000 
     41 O           0.8172  -19.6272  -41.2250 O.2       6 UNK        -0.5000 
     42 CA          1.7268  -18.1577  -39.5670 C.3       6 UNK         0.1400 
     43 CB          1.9770  -18.9264  -38.2612 C.3       6 UNK        -0.1800 
     44 N           2.6352  -17.0104  -39.6381 N.am      6 UNK        -0.5000 
     45 C           2.5882  -16.0632  -40.5831 C.2       5 UNK         0.5000 
     46 O           1.8052  -16.0832  -41.5375 O.2       5 UNK        -0.5000 
     47 CA          3.6056  -14.9188  -40.4548 C.3       5 UNK         0.1400 
     48 CB          4.6672  -15.0097  -41.5619 C.3       5 UNK        -0.1800 
     49 N           2.9068  -13.6430  -40.5550 N.am      5 UNK        -0.5000 
     50 C           2.2824  -13.0381  -39.5328 C.2       4 UNK         0.5000 
     51 O           2.3776  -13.4064  -38.3613 O.2       4 UNK        -0.5000 
     52 CA          1.3725  -11.8384  -39.8761 C.3       4 UNK         0.1400 
     53 CB          2.1561  -10.5205  -39.7844 C.3       4 UNK        -0.1800 
     54 N           0.7878  -11.9553  -41.2118 N.am      4 UNK        -0.5000 
     55 C          -0.0810  -12.9064  -41.5795 C.2       3 UNK         0.5000 
     56 O          -0.6798  -13.6158  -40.7709 O.2       3 UNK        -0.5000 
     57 CA         -0.2962  -13.1332  -43.0929 C.3       3 UNK         0.1400 
     58 CB         -1.7782  -12.9938  -43.4756 C.3       3 UNK        -0.1800 
     59 N           0.5008  -12.2821  -43.9864 N.am      3 UNK        -0.5000 
     60 C           1.8344  -12.2797  -44.1174 C.2       2 UNK         0.5000 
     61 O           2.5859  -12.9268  -43.3885 O.2       2 UNK        -0.5000 
     62 CA          2.4082  -11.4204  -45.2637 C.3       2 UNK         0.1400 
     63 CB          3.9429  -11.5020  -45.3500 C.3       2 UNK        -0.1800 
     64 N           1.8422  -11.8271  -46.5512 N.am      2 UNK        -0.5000 
     65 C           0.6416  -11.4631  -47.0179 C.2       1 UNK         0.5000 
     66 O          -0.1104  -10.6818  -46.4292 O.2       1 UNK        -0.5000 
     67 C          -1.4213  -20.5262  -47.9939 C.2       11 UNK         0.5000 
     68 O          -1.9537  -21.0803  -48.9551 O.2       11 UNK        -0.5000 
     69 N          -1.8101  -19.3310  -47.5234 N.am      12 UNK        -0.5000 
     70 CA         -2.9376  -18.5591  -48.0490 C.3       12 UNK         0.1400 
     71 CB         -2.9495  -17.1599  -47.4163 C.3       12 UNK        -0.1800 
     72 C          -4.2945  -19.2552  -47.8348 C.2       12 UNK         0.5000 
     73 O          -5.1404  -19.2159  -48.7267 O.2       12 UNK        -0.5000 
     74 N          -4.4795  -19.8988  -46.6739 N.am      13 UNK        -0.5000 
     75 CA         -5.6635  -20.7025  -46.3606 C.3       13 UNK         0.1400 
     76 CB         -5.6884  -21.0115  -44.8560 C.3       13 UNK        -0.1800 
     77 C          -5.7337  -22.0010  -47.1888 C.2       13 UNK         0.5000 
     78 O          -6.8240  -22.4200  -47.5775 O.2       13 UNK        -0.5000 
     79 N          -4.5677  -22.6002  -47.4589 N.am      14 UNK        -0.5000 
     80 CA         -4.3967  -23.8212  -48.2458 C.3       14 UNK         0.1400 
     81 CB         -3.0661  -24.4771  -47.8436 C.3       14 UNK        -0.1800 
     82 C          -4.4522  -23.6082  -49.7724 C.2       14 UNK         0.5000 
     83 O          -4.3627  -24.6007  -50.4981 O.2       14 UNK        -0.5000 
     84 N          -4.5799  -22.3537  -50.2319 N.am      15 UNK        -0.5000 
     85 CA         -4.5738  -21.9181  -51.6322 C.3       15 UNK         0.1400 
     86 CB         -4.8952  -20.4182  -51.6950 C.3       15 UNK        -0.1800 
     87 C          -5.5388  -22.7167  -52.5296 C.2       15 UNK         0.5000 
     88 O          -6.7555  -22.5738  -52.3972 O.2       15 UNK        -0.5000 
     89 N          -4.9634  -23.5752  -53.3819 N.am      16 UNK        -0.5000 
     90 CA         -5.5951  -24.5218  -54.3122 C.3       16 UNK         0.1400 
     91 CB         -6.5856  -23.8147  -55.2608 C.3       16 UNK        -0.1800 
     92 C          -6.2568  -25.7428  -53.6382 C.2       16 UNK         0.5000 
     93 O          -6.6056  -26.6935  -54.3397 O.2       16 UNK        -0.5000 
     94 N          -6.4134  -25.7184  -52.3099 N.am      17 UNK        -0.5000 
     95 CA         -6.9748  -26.8034  -51.5102 C.3       17 UNK         0.1400 
     96 CB         -7.5962  -26.2185  -50.2320 C.3       17 UNK        -0.1800 
     97 C          -5.9092  -27.8546  -51.1626 C.2       17 UNK         0.5000 
     98 O          -6.2089  -29.0493  -51.1826 O.2       17 UNK        -0.5000 
     99 N          -4.6903  -27.3929  -50.8556 N.am      18 UNK        -0.5000 
    100 CA        -3.5580  -28.2342  -50.4708 C.3       18 UNK         0.1400 
    101 CB        -3.6181  -28.5235  -48.9596 C.3       18 UNK        -0.1800 
    102 C         -2.1920  -27.6492  -50.8733 C.2       18 UNK         0.5000 
    103 O         -1.2173  -28.4030  -50.8852 O.2       18 UNK        -0.5000 
    104 N         -2.1155  -26.3507  -51.1970 N.am      19 UNK        -0.5000 
    105 CA        -0.8839  -25.6762  -51.6022 C.3       19 UNK         0.1400 
    106 CB        -0.2875  -24.9403  -50.3904 C.3       19 UNK        -0.1800 
    107 C         -1.1774  -24.6827  -52.7321 C.2       19 UNK         0.5000 
    108 O         -2.2610  -24.0968  -52.7594 O.2       19 UNK        -0.5000 
    109 N         -0.1855  -24.4827  -53.6118 N.am      20 UNK        -0.5000 
    110 CA        -0.1450  -23.4872  -54.6898 C.3       20 UNK         0.1400 
    111 CB         0.1254  -22.0934  -54.0798 C.3       20 UNK        -0.1800 
    112 C         -1.3878  -23.5279  -55.6103 C.2       20 UNK         0.5000 
    113 O         -1.8414  -24.6150  -55.9752 O.2       20 UNK        -0.5000 
    114 N         -1.9148  -22.3495  -55.9570 N.am      21 UNK        -0.5000 
    115 CA        -3.1708  -22.1546  -56.6675 C.3       21 UNK         0.1400 
    116 CB        -3.0093  -22.4145  -58.1776 C.3       21 UNK        -0.1800 
    117 C         -3.6711  -20.7370  -56.3698 C.2       21 UNK         0.5000 
    118 O         -4.7277  -20.5783  -55.7602 O.2       21 UNK        -0.5000 
    119 N         -2.8727  -19.7380  -56.7742 N.am      22 UNK        -0.5000 
    120 CA        -3.1240  -18.2942  -56.5934 C.3       22 UNK         0.1400 
    121 C         -4.3682  -17.7423  -57.3602 C.2       22 UNK         0.5000 
    122 N         -4.8788  -18.4311  -58.3737 N.am      22 UNK        -0.7600 
    123 O         -4.8618  -16.6580  -57.0612 O.2       22 UNK        -0.5000 
    124 C124       -3.0926  -17.8533  -55.1021 C.3       23 UNK        -0.0398 
    125 S125       -1.4691  -18.1424  -54.3173 S.3       23 UNK        -0.2404 
    126 C126       -1.9752  -18.6402  -52.6446 C.3       23 UNK        -0.0205 
    127 H127       -0.8298   -8.2812  -50.2997 H         1 UNK         0.0600 
    128 H128       -1.9062   -9.6407  -50.6328 H         1 UNK         0.0600 
    129 H129       -0.5461   -9.3089  -51.7088 H         1 UNK         0.0600 
    130 H130       -1.5265  -11.3635  -49.2726 H         1 UNK         0.3000 
    131 H131        1.0541  -12.5213  -48.8402 H         1 UNK         0.0600 
    132 H132       -1.6739  -13.0419  -47.5428 H         1 UNK         0.0800 
    133 H133       -0.2588  -13.9682  -47.1444 H         1 UNK         0.0800 
    134 H134        0.2916  -16.0036  -48.0732 H         1 UNK         0.0800 
    135 H135        1.2469  -15.2244  -49.3137 H         1 UNK         0.0800 
    136 H136       -1.5820  -16.4554  -51.0980 H         1 UNK         0.1150 
    137 H137        0.0722  -20.3039  -51.9482 H         1 UNK         0.1150 
    138 H138        1.9381  -17.7910  -49.0340 H         1 UNK         0.1150 
    139 H139        2.5556  -20.5735  -51.1997 H         1 UNK         0.0800 
    140 H140        3.0399  -19.8060  -49.7091 H         1 UNK         0.0800 
    141 H141        1.2563  -19.8130  -47.7058 H         1 UNK         0.0800 
    142 H142        1.8536  -21.2762  -46.9863 H         1 UNK         0.0800 
    143 H143       -0.4405  -22.3300  -47.4142 H         1 UNK         0.0600 
    144 H144        0.2953  -20.6002  -45.2912 H         1 UNK         0.3000 
    145 H145       -2.4965  -21.4619  -43.1828 H         1 UNK         0.0600 
    146 H146       -0.5989  -22.0096  -41.7021 H         1 UNK         0.0600 
    147 H147       -0.7304  -23.2250  -42.9638 H         1 UNK         0.0600 
    148 H148        0.5200  -21.9903  -43.0633 H         1 UNK         0.0600 
    149 H149       -0.3444  -19.6788  -42.7295 H         1 UNK         0.3000 
    150 H150       -1.9204  -16.7184  -44.0507 H         1 UNK         0.0600 
    151 H151       -2.7128  -17.0452  -41.7166 H         1 UNK         0.0600 
    152 H152       -1.3042  -15.9966  -41.7540 H         1 UNK         0.0600 
    153 H153       -1.1386  -17.6732  -41.2451 H         1 UNK         0.0600 
    154 H154        0.6545  -17.0697  -42.9219 H         1 UNK         0.3000 
    155 H155        2.4081  -17.8729  -45.9493 H         1 UNK         0.0600 
    156 H156        2.3356  -15.4348  -44.1003 H         1 UNK         0.0600 
    157 H157        2.1637  -15.3957  -45.8487 H         1 UNK         0.0600 
    158 H158        3.6872  -15.9001  -45.1309 H         1 UNK         0.0600 
    159 H159        3.1715  -17.5916  -43.1825 H         1 UNK         0.3000 
    160 H160        2.9111  -21.0583  -42.3531 H         1 UNK         0.0600 
    161 H161        5.3365  -19.2370  -42.8121 H         1 UNK         0.0600 
    162 H162        5.0860  -20.8096  -43.5608 H         1 UNK         0.0600 
    163 H163        5.3035  -20.6962  -41.8218 H         1 UNK         0.0600 
    164 H164        3.8352  -18.7929  -40.8813 H         1 UNK         0.3000 
    165 H165        0.7062  -17.7704  -39.5431 H         1 UNK         0.0600 
    166 H166        1.8130  -18.2903  -37.3912 H         1 UNK         0.0600 
    167 H167        1.2986  -19.7762  -38.1728 H         1 UNK         0.0600 
    168 H168        2.9956  -19.3127  -38.2088 H         1 UNK         0.0600 
    169 H169        3.3070  -16.9230  -38.8891 H         1 UNK         0.3000 
    170 H170        4.1124  -14.9831  -39.4896 H         1 UNK         0.0600 
    171 H171        5.2184  -15.9487  -41.4989 H         1 UNK         0.0600 
    172 H172        4.2229  -14.9557  -42.5560 H         1 UNK         0.0600 
    173 H173        5.3920  -14.1998  -41.4782 H         1 UNK         0.0600 
    174 H174        2.7390  -13.3118  -41.5013 H         1 UNK         0.3000 
    175 H175        0.5612  -11.8111  -39.1458 H         1 UNK         0.0600 
    176 H176        2.9745  -10.4876  -40.5048 H         1 UNK         0.0600 
    177 H177        1.5092   -9.6629  -39.9703 H         1 UNK         0.0600 
    178 H178        2.5875  -10.3921  -38.7908 H         1 UNK         0.0600 
    179 H179        1.2297  -11.4213  -41.9449 H         1 UNK         0.3000 
    180 H180        0.0017  -14.1661  -43.2865 H         1 UNK         0.0600 
    181 H181       -2.1361  -11.9749  -43.3235 H         1 UNK         0.0600 
    182 H182       -2.4047  -13.6565  -42.8771 H         1 UNK         0.0600 
    183 H183       -1.9417  -13.2558  -44.5212 H         1 UNK         0.0600 
    184 H184       -0.0224  -11.6911  -44.6234 H         1 UNK         0.3000 
    185 H185        2.1394  -10.3814  -45.0618 H         1 UNK         0.0600 
    186 H186        4.3275  -10.8643  -46.1462 H         1 UNK         0.0600 
    187 H187        4.4053  -11.1709  -44.4191 H         1 UNK         0.0600 
    188 H188        4.2830  -12.5207  -45.5415 H         1 UNK         0.0600 
    189 H189        2.3902  -12.4914  -47.0788 H         1 UNK         0.3000 
    190 H190       -1.2874  -18.9042  -46.7633 H         1 UNK         0.3000 
    191 H191       -2.7875  -18.4458  -49.1244 H         1 UNK         0.0600 
    192 H192       -3.7330  -16.5403  -47.8538 H         1 UNK         0.0600 
    193 H193       -2.0033  -16.6476  -47.5768 H         1 UNK         0.0600 
    194 H194       -3.1240  -17.2024  -46.3414 H         1 UNK         0.0600 
    195 H195       -3.7681  -19.8264  -45.9534 H         1 UNK         0.3000 
    196 H196       -6.5492  -20.1093  -46.5976 H         1 UNK         0.0600 
    197 H197       -4.8199  -21.5941  -44.5485 H         1 UNK         0.0600 
    198 H198       -5.7007  -20.0949  -44.2660 H         1 UNK         0.0600 
    199 H199       -6.5784  -21.5829  -44.5896 H         1 UNK         0.0600 
    200 H200       -3.7248  -22.2177  -47.0421 H         1 UNK         0.3000 
    201 H201       -5.2019  -24.5137  -47.9934 H         1 UNK         0.0600 
    202 H202       -3.0651  -24.7510  -46.7886 H         1 UNK         0.0600 
    203 H203       -2.2259  -23.8050  -48.0143 H         1 UNK         0.0600 
    204 H204       -2.8761  -25.3853  -48.4148 H         1 UNK         0.0600 
    205 H205       -4.6257  -21.6147  -49.5450 H         1 UNK         0.3000 
    206 H206       -3.5561  -22.0436  -52.0025 H         1 UNK         0.0600 
    207 H207       -4.1646  -19.8387  -51.1319 H         1 UNK         0.0600 
    208 H208       -4.8790  -20.0572  -52.7243 H         1 UNK         0.0600 
    209 H209       -5.8817  -20.2000  -51.2842 H         1 UNK         0.0600 
    210 H210       -3.9531  -23.6862  -53.2950 H         1 UNK         0.3000 
    211 H211       -4.7782  -24.9148  -54.9196 H         1 UNK         0.0600 
    212 H212       -6.8752  -24.4745  -56.0793 H         1 UNK         0.0600 
    213 H213       -6.1546  -22.9185  -55.7036 H         1 UNK         0.0600 
    214 H214       -7.5007  -23.5213  -54.7459 H         1 UNK         0.0600 
    215 H215       -6.0511  -24.9206  -51.8037 H         1 UNK         0.3000 
    216 H216       -7.7676  -27.2963  -52.0771 H         1 UNK         0.0600 
    217 H217       -6.8539  -25.7129  -49.6139 H         1 UNK         0.0600 
    218 H218       -8.0491  -27.0032  -49.6248 H         1 UNK         0.0600 
    219 H219       -8.3790  -25.4979  -50.4696 H         1 UNK         0.0600 
    220 H220       -4.5482  -26.3867  -50.8317 H         1 UNK         0.3000 
    221 H221       -3.6340  -29.1860  -51.0012 H         1 UNK         0.0600 
    222 H222       -4.5184  -29.0809  -48.7008 H         1 UNK         0.0600 
    223 H223       -3.6161  -27.6052  -48.3734 H         1 UNK         0.0600 
    224 H224       -2.7652  -29.1225  -48.6378 H         1 UNK         0.0600 
    225 H225       -2.9367  -25.7541  -51.1845 H         1 UNK         0.3000 
    226 H226       -0.1577  -26.4034  -51.9715 H         1 UNK         0.0600 
    227 H227       -0.9498  -24.1482  -50.0385 H         1 UNK         0.0600 
    228 H228       -0.1066  -25.6221  -49.5595 H         1 UNK         0.0600 
    229 H229        0.6660  -24.4766  -50.6457 H         1 UNK         0.0600 
    230 H230        0.6494  -25.0437  -53.5198 H         1 UNK         0.3000 
    231 H231        0.7073  -23.7477  -55.3188 H         1 UNK         0.0600 
    232 H232       -0.7293  -21.7422  -53.5004 H         1 UNK         0.0600 
    233 H233        0.3415  -21.3502  -54.8483 H         1 UNK         0.0600 
    234 H234        0.9886  -22.1183  -53.4142 H         1 UNK         0.0600 
    235 H235       -1.4950  -21.5096  -55.5824 H         1 UNK         0.3000 
    236 H236       -3.9055  -22.8568  -56.2720 H         1 UNK         0.0600 
    237 H237       -2.7654  -23.4587  -58.3731 H         1 UNK         0.0600 
    238 H238       -3.9345  -22.1953  -58.7119 H         1 UNK         0.0600 
    239 H239       -2.2200  -21.8034  -58.6160 H         1 UNK         0.0600 
    240 H240       -2.0311  -19.9671  -57.2830 H         1 UNK         0.3000 
    241 H241       -2.2847  -17.7983  -57.0824 H         1 UNK         0.0600 
    242 H242       -5.6747  -18.0635  -58.8713 H         1 UNK         0.3800 
    243 H243       -4.4805  -19.3143  -58.6482 H         1 UNK         0.3800 
    244 H244       -3.8785  -18.3595  -54.5405 H         1 UNK         0.0800 
    245 H245       -3.2963  -16.7855  -55.0086 H         1 UNK         0.0800 
    246 H246       -2.8670  -18.0864  -52.3472 H         1 UNK         0.0800 
    247 H247       -2.2486  -19.6960  -52.6553 H         1 UNK         0.0800 
@<TRIPOS>BOND
     1    1    2 1    
     2    1  127 1    
     3    1  128 1    
     4    1  129 1    
     5    2    3 2    
     6    2    4 am   BACKBONE|DICT|INTERRES
     7    4    5 1    
     8    4  130 1    
     9    5    6 1    
    10    5   65 1    
    11    5  131 1    
    12    6    7 1    
    13    6  132 1    
    14    6  133 1    
    15    7    8 1    
    16    8    9 1    
    17    8  134 1    
    18    8  135 1    
    19    9   10 ar   
    20    9   14 ar   
    21   10   11 ar   
    22   10  136 1    
    23   11   12 ar   
    24   11  126 1    
    25   12   13 ar   
    26   12  137 1    
    27   13   14 ar   
    28   13   15 1    
    29   14  138 1    
    30   15   16 1    
    31   15  139 1    
    32   15  140 1    
    33   16   17 1    
    34   17   18 1    
    35   17  141 1    
    36   17  142 1    
    37   18   19 1    
    38   18   67 1    
    39   18  143 1    
    40   19   20 am   BACKBONE|DICT|INTERRES
    41   19  144 1    
    42   20   21 2    
    43   20   22 1    
    44   22   23 1    
    45   22   24 1    
    46   22  145 1    
    47   23  146 1    
    48   23  147 1    
    49   23  148 1    
    50   24   25 am   BACKBONE|DICT|INTERRES
    51   24  149 1    
    52   25   26 2    
    53   25   27 1    
    54   27   28 1    
    55   27   29 1    
    56   27  150 1    
    57   28  151 1    
    58   28  152 1    
    59   28  153 1    
    60   29   30 am   BACKBONE|DICT|INTERRES
    61   29  154 1    
    62   30   31 2    
    63   30   32 1    
    64   32   33 1    
    65   32   34 1    
    66   32  155 1    
    67   33  156 1    
    68   33  157 1    
    69   33  158 1    
    70   34   35 am   BACKBONE|DICT|INTERRES
    71   34  159 1    
    72   35   36 2    
    73   35   37 1    
    74   37   38 1    
    75   37   39 1    
    76   37  160 1    
    77   38  161 1    
    78   38  162 1    
    79   38  163 1    
    80   39   40 am   BACKBONE|DICT|INTERRES
    81   39  164 1    
    82   40   41 2    
    83   40   42 1    
    84   42   43 1    
    85   42   44 1    
    86   42  165 1    
    87   43  166 1    
    88   43  167 1    
    89   43  168 1    
    90   44   45 am   BACKBONE|DICT|INTERRES
    91   44  169 1    
    92   45   46 2    
    93   45   47 1    
    94   47   48 1    
    95   47   49 1    
    96   47  170 1    
    97   48  171 1    
    98   48  172 1    
    99   48  173 1    
   100   49   50 am   BACKBONE|DICT|INTERRES
   101   49  174 1    
   102   50   51 2    
   103   50   52 1    
   104   52   53 1    
   105   52   54 1    
   106   52  175 1    
   107   53  176 1    
   108   53  177 1    
   109   53  178 1    
   110   54   55 am   BACKBONE|DICT|INTERRES
   111   54  179 1    
   112   55   56 2    
   113   55   57 1    
   114   57   58 1    
   115   57   59 1    
   116   57  180 1    
   117   58  181 1    
   118   58  182 1    
   119   58  183 1    
   120   59   60 am   BACKBONE|DICT|INTERRES
   121   59  184 1    
   122   60   61 2    
   123   60   62 1    
   124   62   63 1    
   125   62   64 1    
   126   62  185 1    
   127   63  186 1    
   128   63  187 1    
   129   63  188 1    
   130   64   65 am   BACKBONE|DICT|INTERRES
   131   64  189 1    
   132   65   66 2    
   133   67   68 2    
   134   67   69 am   BACKBONE|DICT|INTERRES
   135   69   70 1    
   136   69  190 1    
   137   70   71 1    
   138   70   72 1    
   139   70  191 1    
   140   71  192 1    
   141   71  193 1    
   142   71  194 1    
   143   72   73 2    
   144   72   74 am   BACKBONE|DICT|INTERRES
   145   74   75 1    
   146   74  195 1    
   147   75   76 1    
   148   75   77 1    
   149   75  196 1    
   150   76  197 1    
   151   76  198 1    
   152   76  199 1    
   153   77   78 2    
   154   77   79 am   BACKBONE|DICT|INTERRES
   155   79   80 1    
   156   79  200 1    
   157   80   81 1    
   158   80   82 1    
   159   80  201 1    
   160   81  202 1    
   161   81  203 1    
   162   81  204 1    
   163   82   83 2    
   164   82   84 am   BACKBONE|DICT|INTERRES
   165   84   85 1    
   166   84  205 1    
   167   85   86 1    
   168   85   87 1    
   169   85  206 1    
   170   86  207 1    
   171   86  208 1    
   172   86  209 1    
   173   87   88 2    
   174   87   89 am   BACKBONE|DICT|INTERRES
   175   89   90 1    
   176   89  210 1    
   177   90   91 1    
   178   90   92 1    
   179   90  211 1    
   180   91  212 1    
   181   91  213 1    
   182   91  214 1    
   183   92   93 2    
   184   92   94 am   BACKBONE|DICT|INTERRES
   185   94   95 1    
   186   94  215 1    
   187   95   96 1    
   188   95   97 1    
   189   95  216 1    
   190   96  217 1    
   191   96  218 1    
   192   96  219 1    
   193   97   98 2    
   194   97   99 am   BACKBONE|DICT|INTERRES
   195   99  100 1    
   196   99  220 1    
   197  100  101 1    
   198  100  102 1    
   199  100  221 1    
   200  101  222 1    
   201  101  223 1    
   202  101  224 1    
   203  102  103 2    
   204  102  104 am   BACKBONE|DICT|INTERRES
   205  104  105 1    
   206  104  225 1    
   207  105  106 1    
   208  105  107 1    
   209  105  226 1    
   210  106  227 1    
   211  106  228 1    
   212  106  229 1    
   213  107  108 2    
   214  107  109 am   BACKBONE|DICT|INTERRES
   215  109  110 1    
   216  109  230 1    
   217  110  111 1    
   218  110  112 1    
   219  110  231 1    
   220  111  232 1    
   221  111  233 1    
   222  111  234 1    
   223  112  113 2    
   224  112  114 am   BACKBONE|DICT|INTERRES
   225  114  115 1    
   226  114  235 1    
   227  115  116 1    
   228  115  117 1    
   229  115  236 1    
   230  116  237 1    
   231  116  238 1    
   232  116  239 1    
   233  117  118 2    
   234  117  119 am   BACKBONE|DICT|INTERRES
   235  119  120 1    
   236  119  240 1    
   237  120  121 1    
   238  120  124 1    
   239  120  241 1    
   240  121  122 am   BACKBONE|DICT|INTERRES
   241  121  123 2    
   242  122  242 1    
   243  122  243 1    
   244  124  125 1    
   245  124  244 1    
   246  124  245 1    
   247  125  126 1    
   248  126  246 1    
   249  126  247 1    
@<TRIPOS>SUBSTRUCTURE
     1 UNK         1 GROUP             0       ****    0 ROOT    
