@<TRIPOS>MOLECULE
3R540
247   249    1
SMALL
USER_CHARGES


@<TRIPOS>ATOM
      1 CA         -1.6814  -10.3301  -44.8558 C.3       0 UNK        -0.1800 
      2 C          -2.0534  -11.8112  -44.8842 C.2       0 UNK         0.5000 
      3 O          -2.5169  -12.3341  -43.8736 O.2       0 UNK        -0.5000 
      4 N          -1.8987  -12.5257  -46.0087 N.am      1 UNK        -0.5000 
      5 CA         -1.3151  -12.0718  -47.2773 C.3       1 UNK         0.1400 
      6 C6         -1.6441  -13.0658  -48.4200 C.3       23 UNK        -0.0398 
      7 S7         -1.4913  -12.3500  -50.0932 S.3       23 UNK        -0.2404 
      8 C8          0.1965  -12.8268  -50.5953 C.3       23 UNK        -0.0205 
      9 C9          0.3773  -14.3332  -50.7062 C.ar      23 UNK        -0.0193 
     10 C10        -0.1161  -15.0175  -51.8188 C.ar      23 UNK        -0.1150 
     11 C11         0.0633  -16.3972  -51.9380 C.ar      23 UNK        -0.0193 
     12 C12         0.7457  -17.0902  -50.9346 C.ar      23 UNK        -0.1150 
     13 C13         1.2398  -16.4225  -49.8049 C.ar      23 UNK        -0.0193 
     14 C14         1.0554  -15.0400  -49.7084 C.ar      23 UNK        -0.1150 
     15 C15         1.9938  -17.1332  -48.6765 C.3       23 UNK        -0.0205 
     16 S16         1.8972  -18.9563  -48.6679 S.3       23 UNK        -0.2404 
     17 C17         0.1256  -19.2029  -48.3173 C.3       23 UNK        -0.0398 
     18 CA         -0.1618  -20.6209  -47.7778 C.3       11 UNK         0.1400 
     19 N           0.3652  -20.8235  -46.4255 N.am      11 UNK        -0.5000 
     20 C           0.5330  -22.0245  -45.8568 C.2       10 UNK         0.5000 
     21 O           0.3381  -23.0891  -46.4423 O.2       10 UNK        -0.5000 
     22 CA          0.9595  -22.0470  -44.3770 C.3       10 UNK         0.1400 
     23 CB          2.4882  -21.9706  -44.2490 C.3       10 UNK        -0.1800 
     24 N           0.3398  -20.9834  -43.5830 N.am      10 UNK        -0.5000 
     25 C          -0.9785  -20.8760  -43.3610 C.2       9 UNK         0.5000 
     26 O          -1.8074  -21.6829  -43.7782 O.2       9 UNK        -0.5000 
     27 CA         -1.4635  -19.6420  -42.5802 C.3       9 UNK         0.1400 
     28 CB         -1.3002  -19.8568  -41.0684 C.3       9 UNK        -0.1800 
     29 N          -0.7857  -18.4098  -42.9821 N.am      9 UNK        -0.5000 
     30 C          -0.8418  -17.8690  -44.2078 C.2       8 UNK         0.5000 
     31 O          -1.5027  -18.3372  -45.1347 O.2       8 UNK        -0.5000 
     32 CA          0.0440  -16.6345  -44.4585 C.3       8 UNK         0.1400 
     33 CB         -0.5819  -15.3681  -43.8559 C.3       8 UNK        -0.1800 
     34 N           1.3983  -16.8140  -43.9355 N.am      8 UNK        -0.5000 
     35 C           2.2499  -17.7593  -44.3594 C.2       7 UNK         0.5000 
     36 O           1.9973  -18.5481  -45.2689 O.2       7 UNK        -0.5000 
     37 CA          3.5810  -17.8797  -43.5999 C.3       7 UNK         0.1400 
     38 CB          4.6032  -16.8485  -44.1006 C.3       7 UNK        -0.1800 
     39 N           3.3955  -17.7351  -42.1561 N.am      7 UNK        -0.5000 
     40 C           2.7825  -18.6427  -41.3828 C.2       6 UNK         0.5000 
     41 O           2.3456  -19.7142  -41.8011 O.2       6 UNK        -0.5000 
     42 CA          2.5873  -18.2708  -39.9019 C.3       6 UNK         0.1400 
     43 CB          3.8571  -18.5768  -39.0938 C.3       6 UNK        -0.1800 
     44 N           2.2222  -16.8656  -39.7194 N.am      6 UNK        -0.5000 
     45 C           1.0740  -16.3189  -40.1441 C.2       5 UNK         0.5000 
     46 O           0.1812  -16.9533  -40.7031 O.2       5 UNK        -0.5000 
     47 CA          0.9176  -14.7994  -39.9553 C.3       5 UNK         0.1400 
     48 CB          0.2956  -14.4870  -38.5865 C.3       5 UNK        -0.1800 
     49 N           2.1798  -14.0684  -40.0951 N.am      5 UNK        -0.5000 
     50 C           2.9002  -14.0092  -41.2218 C.2       4 UNK         0.5000 
     51 O           2.5942  -14.5926  -42.2657 O.2       4 UNK        -0.5000 
     52 CA          4.2055  -13.2087  -41.1552 C.3       4 UNK         0.1400 
     53 CB          5.4037  -14.1548  -40.9767 C.3       4 UNK        -0.1800 
     54 N           4.3597  -12.4701  -42.4026 N.am      4 UNK        -0.5000 
     55 C           4.5033  -11.1429  -42.5071 C.2       3 UNK         0.5000 
     56 O           4.6147  -10.3884  -41.5392 O.2       3 UNK        -0.5000 
     57 CA          4.5294  -10.5450  -43.9301 C.3       3 UNK         0.1400 
     58 CB          5.9665  -10.1711  -44.3275 C.3       3 UNK        -0.1800 
     59 N           3.9702  -11.4251  -44.9611 N.am      3 UNK        -0.5000 
     60 C           2.6759  -11.7493  -45.0734 C.2       2 UNK         0.5000 
     61 O           1.7994  -11.3441  -44.3065 O.2       2 UNK        -0.5000 
     62 CA          2.3287  -12.7221  -46.2157 C.3       2 UNK         0.1400 
     63 CB          2.8186  -14.1388  -45.8823 C.3       2 UNK        -0.1800 
     64 N           0.8909  -12.7739  -46.4726 N.am      2 UNK        -0.5000 
     65 C           0.2068  -11.8468  -47.1547 C.2       1 UNK         0.5000 
     66 O           0.7217  -10.8503  -47.6628 O.2       1 UNK        -0.5000 
     67 C          -1.6701  -20.9305  -47.8601 C.2       11 UNK         0.5000 
     68 O          -2.1071  -21.5200  -48.8478 O.2       11 UNK        -0.5000 
     69 N          -2.4373  -20.5246  -46.8382 N.am      12 UNK        -0.5000 
     70 CA         -3.8861  -20.7254  -46.7544 C.3       12 UNK         0.1400 
     71 CB         -4.4553  -19.8252  -45.6480 C.3       12 UNK        -0.1800 
     72 C          -4.3010  -22.1905  -46.5175 C.2       12 UNK         0.5000 
     73 O          -5.4144  -22.5650  -46.8931 O.2       12 UNK        -0.5000 
     74 N          -3.4139  -22.9819  -45.8983 N.am      13 UNK        -0.5000 
     75 CA         -3.5971  -24.3953  -45.5649 C.3       13 UNK         0.1400 
     76 CB         -2.3158  -24.9283  -44.9057 C.3       13 UNK        -0.1800 
     77 C          -3.9764  -25.2753  -46.7710 C.2       13 UNK         0.5000 
     78 O          -3.5699  -24.9948  -47.9021 O.2       13 UNK        -0.5000 
     79 N          -4.7583  -26.3276  -46.4901 N.am      14 UNK        -0.5000 
     80 CA         -5.3157  -27.2879  -47.4501 C.3       14 UNK         0.1400 
     81 CB         -4.1993  -28.1680  -48.0518 C.3       14 UNK        -0.1800 
     82 C          -6.1949  -26.6128  -48.5243 C.2       14 UNK         0.5000 
     83 O          -6.1499  -27.0084  -49.6888 O.2       14 UNK        -0.5000 
     84 N          -6.9567  -25.5882  -48.1087 N.am      15 UNK        -0.5000 
     85 CA         -7.8180  -24.7339  -48.9325 C.3       15 UNK         0.1400 
     86 CB         -9.0236  -25.5332  -49.4711 C.3       15 UNK        -0.1800 
     87 C          -7.0222  -24.0241  -50.0454 C.2       15 UNK         0.5000 
     88 O          -7.2772  -24.2485  -51.2286 O.2       15 UNK        -0.5000 
     89 N          -6.0407  -23.2100  -49.6340 N.am      16 UNK        -0.5000 
     90 CA         -5.1060  -22.4633  -50.4837 C.3       16 UNK         0.1400 
     91 CB         -5.8422  -21.3670  -51.2816 C.3       16 UNK        -0.1800 
     92 C          -4.2471  -23.3857  -51.3741 C.2       16 UNK         0.5000 
     93 O          -4.1022  -23.1308  -52.5737 O.2       16 UNK        -0.5000 
     94 N          -3.7179  -24.4550  -50.7596 N.am      17 UNK        -0.5000 
     95 CA         -2.9154  -25.5205  -51.3639 C.3       17 UNK         0.1400 
     96 CB         -1.5356  -24.9793  -51.7921 C.3       17 UNK        -0.1800 
     97 C          -3.6673  -26.2470  -52.4979 C.2       17 UNK         0.5000 
     98 O          -3.1868  -26.2927  -53.6304 O.2       17 UNK        -0.5000 
     99 N          -4.8522  -26.7802  -52.1668 N.am      18 UNK        -0.5000 
    100 CA        -5.7970  -27.4684  -53.0522 C.3       18 UNK         0.1400 
    101 CB        -5.2019  -28.7928  -53.5753 C.3       18 UNK        -0.1800 
    102 C         -6.3283  -26.5486  -54.1699 C.2       18 UNK         0.5000 
    103 O         -6.3724  -26.9447  -55.3363 O.2       18 UNK        -0.5000 
    104 N         -6.7139  -25.3263  -53.7764 N.am      19 UNK        -0.5000 
    105 CA        -7.2398  -24.2387  -54.6044 C.3       19 UNK         0.1400 
    106 CB        -8.6215  -24.6118  -55.1809 C.3       19 UNK        -0.1800 
    107 C         -6.2525  -23.7364  -55.6787 C.2       19 UNK         0.5000 
    108 O         -6.6854  -23.2344  -56.7179 O.2       19 UNK        -0.5000 
    109 N         -4.9449  -23.8646  -55.4132 N.am      20 UNK        -0.5000 
    110 CA        -3.8810  -23.3522  -56.2729 C.3       20 UNK         0.1400 
    111 CB        -2.5443  -24.0152  -55.9106 C.3       20 UNK        -0.1800 
    112 C         -3.7806  -21.8234  -56.1748 C.2       20 UNK         0.5000 
    113 O         -3.7764  -21.1528  -57.2072 O.2       20 UNK        -0.5000 
    114 N         -3.7177  -21.3092  -54.9351 N.am      21 UNK        -0.5000 
    115 CA        -3.7289  -19.8872  -54.5608 C.3       21 UNK         0.1400 
    116 CB        -5.1682  -19.3438  -54.6693 C.3       21 UNK        -0.1800 
    117 C         -2.7053  -19.0092  -55.3229 C.2       21 UNK         0.5000 
    118 O         -3.0124  -17.8674  -55.6699 O.2       21 UNK        -0.5000 
    119 N         -1.5159  -19.5702  -55.5847 N.am      22 UNK        -0.5000 
    120 CA        -0.4352  -18.9955  -56.4123 C.3       22 UNK         0.1400 
    121 C         -0.7494  -18.9098  -57.9405 C.2       22 UNK         0.5000 
    122 N         -1.8135  -19.5164  -58.4507 N.am      22 UNK        -0.7600 
    123 O          0.0090  -18.3079  -58.6965 O.2       22 UNK        -0.5000 
    124 C124        0.1305  -17.6518  -55.8662 C.3       23 UNK        -0.0398 
    125 S125        0.8548  -17.7835  -54.1969 S.3       23 UNK        -0.2404 
    126 C126       -0.4859  -17.1405  -53.1461 C.3       23 UNK        -0.0205 
    127 H127       -0.6011  -10.1989  -44.9018 H         1 UNK         0.0600 
    128 H128       -2.0307   -9.8690  -43.9319 H         1 UNK         0.0600 
    129 H129       -2.1386   -9.7896  -45.6839 H         1 UNK         0.0600 
    130 H130       -2.1982  -13.4893  -45.9949 H         1 UNK         0.3000 
    131 H131       -1.7753  -11.1148  -47.5295 H         1 UNK         0.0600 
    132 H132       -1.0650  -13.9848  -48.3338 H         1 UNK         0.0800 
    133 H133       -2.6850  -13.3791  -48.3315 H         1 UNK         0.0800 
    134 H134        0.4093  -12.3720  -51.5635 H         1 UNK         0.0800 
    135 H135        0.9254  -12.4024  -49.9052 H         1 UNK         0.0800 
    136 H136       -0.6401  -14.4719  -52.5910 H         1 UNK         0.1150 
    137 H137        0.8911  -18.1531  -51.0549 H         1 UNK         0.1150 
    138 H138        1.4437  -14.5090  -48.8510 H         1 UNK         0.1150 
    139 H139        3.0450  -16.8490  -48.7340 H         1 UNK         0.0800 
    140 H140        1.6296  -16.7737  -47.7134 H         1 UNK         0.0800 
    141 H141       -0.4224  -19.0261  -49.2441 H         1 UNK         0.0800 
    142 H142       -0.2158  -18.4463  -47.6088 H         1 UNK         0.0800 
    143 H143        0.3360  -21.3342  -48.4388 H         1 UNK         0.0600 
    144 H144        0.6241  -19.9922  -45.9047 H         1 UNK         0.3000 
    145 H145        0.6344  -23.0016  -43.9579 H         1 UNK         0.0600 
    146 H146        2.8028  -22.0733  -43.2105 H         1 UNK         0.0600 
    147 H147        2.9674  -22.7709  -44.8141 H         1 UNK         0.0600 
    148 H148        2.8777  -21.0250  -44.6257 H         1 UNK         0.0600 
    149 H149        0.9672  -20.3067  -43.1609 H         1 UNK         0.3000 
    150 H150       -2.5273  -19.5155  -42.7893 H         1 UNK         0.0600 
    151 H151       -1.8091  -20.7658  -40.7453 H         1 UNK         0.0600 
    152 H152       -1.7274  -19.0274  -40.5047 H         1 UNK         0.0600 
    153 H153       -0.2513  -19.9482  -40.7854 H         1 UNK         0.0600 
    154 H154       -0.2522  -17.9328  -42.2597 H         1 UNK         0.3000 
    155 H155        0.1222  -16.4938  -45.5386 H         1 UNK         0.0600 
    156 H156       -1.5644  -15.1764  -44.2885 H         1 UNK         0.0600 
    157 H157        0.0352  -14.4888  -44.0397 H         1 UNK         0.0600 
    158 H158       -0.7154  -15.4570  -42.7783 H         1 UNK         0.0600 
    159 H159        1.6971  -16.1837  -43.1988 H         1 UNK         0.3000 
    160 H160        3.9850  -18.8752  -43.7954 H         1 UNK         0.0600 
    161 H161        4.2886  -15.8276  -43.8884 H         1 UNK         0.0600 
    162 H162        4.7439  -16.9310  -45.1792 H         1 UNK         0.0600 
    163 H163        5.5759  -17.0013  -43.6332 H         1 UNK         0.0600 
    164 H164        3.6755  -16.8567  -41.7467 H         1 UNK         0.3000 
    165 H165        1.7751  -18.8857  -39.5085 H         1 UNK         0.0600 
    166 H166        3.7025  -18.3898  -38.0310 H         1 UNK         0.0600 
    167 H167        4.1435  -19.6240  -39.1999 H         1 UNK         0.0600 
    168 H168        4.7019  -17.9703  -39.4224 H         1 UNK         0.0600 
    169 H169        2.8993  -16.2710  -39.2654 H         1 UNK         0.3000 
    170 H170        0.2366  -14.4394  -40.7291 H         1 UNK         0.0600 
    171 H171       -0.6576  -15.0033  -38.4644 H         1 UNK         0.0600 
    172 H172        0.9449  -14.7981  -37.7672 H         1 UNK         0.0600 
    173 H173        0.1015  -13.4200  -38.4755 H         1 UNK         0.0600 
    174 H174        2.5028  -13.5706  -39.2779 H         1 UNK         0.3000 
    175 H175        4.1600  -12.5296  -40.3012 H         1 UNK         0.0600 
    176 H176        5.4895  -14.8614  -41.8031 H         1 UNK         0.0600 
    177 H177        6.3378  -13.5958  -40.9193 H         1 UNK         0.0600 
    178 H178        5.3142  -14.7328  -40.0560 H         1 UNK         0.0600 
    179 H179        4.1988  -13.0063  -43.2434 H         1 UNK         0.3000 
    180 H180        3.9330   -9.6301  -43.9073 H         1 UNK         0.0600 
    181 H181        6.6104  -11.0501  -44.3823 H         1 UNK         0.0600 
    182 H182        6.4079   -9.4859  -43.6022 H         1 UNK         0.0600 
    183 H183        5.9920   -9.6735  -45.2973 H         1 UNK         0.0600 
    184 H184        4.6295  -11.8048  -45.6254 H         1 UNK         0.3000 
    185 H185        2.8347  -12.3843  -47.1227 H         1 UNK         0.0600 
    186 H186        3.9031  -14.1678  -45.7748 H         1 UNK         0.0600 
    187 H187        2.3873  -14.4947  -44.9484 H         1 UNK         0.0600 
    188 H188        2.5562  -14.8476  -46.6659 H         1 UNK         0.0600 
    189 H189        0.3789  -13.5126  -46.0168 H         1 UNK         0.3000 
    190 H190       -2.0118  -19.9866  -46.0889 H         1 UNK         0.3000 
    191 H191       -4.3256  -20.4117  -47.7035 H         1 UNK         0.0600 
    192 H192       -4.2345  -18.7751  -45.8404 H         1 UNK         0.0600 
    193 H193       -5.5396  -19.9228  -45.5824 H         1 UNK         0.0600 
    194 H194       -4.0423  -20.0813  -44.6721 H         1 UNK         0.0600 
    195 H195       -2.5548  -22.5565  -45.5719 H         1 UNK         0.3000 
    196 H196       -4.4076  -24.4442  -44.8352 H         1 UNK         0.0600 
    197 H197       -2.4334  -25.9692  -44.6020 H         1 UNK         0.0600 
    198 H198       -2.0605  -24.3594  -44.0121 H         1 UNK         0.0600 
    199 H199       -1.4674  -24.8820  -45.5886 H         1 UNK         0.0600 
    200 H200       -5.0321  -26.4750  -45.5282 H         1 UNK         0.3000 
    201 H201       -5.9805  -27.9420  -46.8844 H         1 UNK         0.0600 
    202 H202       -3.6129  -28.6489  -47.2690 H         1 UNK         0.0600 
    203 H203       -3.5158  -27.5900  -48.6734 H         1 UNK         0.0600 
    204 H204       -4.6169  -28.9598  -48.6749 H         1 UNK         0.0600 
    205 H205       -6.8872  -25.3224  -47.1367 H         1 UNK         0.3000 
    206 H206       -8.2056  -23.9520  -48.2777 H         1 UNK         0.0600 
    207 H207       -9.5879  -25.9898  -48.6582 H         1 UNK         0.0600 
    208 H208       -9.7080  -24.8824  -50.0166 H         1 UNK         0.0600 
    209 H209       -8.7173  -26.3271  -50.1531 H         1 UNK         0.0600 
    210 H210       -5.8858  -23.1113  -48.6329 H         1 UNK         0.3000 
    211 H211       -4.4190  -21.9623  -49.8048 H         1 UNK         0.0600 
    212 H212       -6.5044  -21.7876  -52.0386 H         1 UNK         0.0600 
    213 H213       -5.1307  -20.7189  -51.7932 H         1 UNK         0.0600 
    214 H214       -6.4402  -20.7354  -50.6249 H         1 UNK         0.0600 
    215 H215       -3.8730  -24.5576  -49.7594 H         1 UNK         0.3000 
    216 H216       -2.7470  -26.2607  -50.5811 H         1 UNK         0.0600 
    217 H217       -0.9035  -25.7812  -52.1751 H         1 UNK         0.0600 
    218 H218       -1.0135  -24.5284  -50.9481 H         1 UNK         0.0600 
    219 H219       -1.6173  -24.2249  -52.5743 H         1 UNK         0.0600 
    220 H220       -5.1805  -26.6879  -51.2070 H         1 UNK         0.3000 
    221 H221       -6.6597  -27.7209  -52.4339 H         1 UNK         0.0600 
    222 H222       -4.3602  -28.6245  -54.2476 H         1 UNK         0.0600 
    223 H223       -4.8557  -29.4199  -52.7538 H         1 UNK         0.0600 
    224 H224       -5.9496  -29.3641  -54.1264 H         1 UNK         0.0600 
    225 H225       -6.6695  -25.1018  -52.7844 H         1 UNK         0.3000 
    226 H226       -7.3871  -23.3972  -53.9263 H         1 UNK         0.0600 
    227 H227       -9.2990  -24.9435  -54.3940 H         1 UNK         0.0600 
    228 H228       -9.0882  -23.7547  -55.6674 H         1 UNK         0.0600 
    229 H229       -8.5496  -25.4089  -55.9213 H         1 UNK         0.0600 
    230 H230       -4.6647  -24.2531  -54.5212 H         1 UNK         0.3000 
    231 H231       -4.1137  -23.6107  -57.3082 H         1 UNK         0.0600 
    232 H232       -2.2731  -23.8372  -54.8699 H         1 UNK         0.0600 
    233 H233       -1.7351  -23.6318  -56.5334 H         1 UNK         0.0600 
    234 H234       -2.5886  -25.0936  -56.0635 H         1 UNK         0.0600 
    235 H235       -3.7448  -21.9631  -54.1566 H         1 UNK         0.3000 
    236 H236       -3.4370  -19.8459  -53.5107 H         1 UNK         0.0600 
    237 H237       -5.8682  -19.9630  -54.1085 H         1 UNK         0.0600 
    238 H238       -5.2394  -18.3319  -54.2688 H         1 UNK         0.0600 
    239 H239       -5.5071  -19.3136  -55.7054 H         1 UNK         0.0600 
    240 H240       -1.3619  -20.5160  -55.2675 H         1 UNK         0.3000 
    241 H241        0.3748  -19.7233  -56.3543 H         1 UNK         0.0600 
    242 H242       -1.9830  -19.4534  -59.4417 H         1 UNK         0.3800 
    243 H243       -2.4673  -20.0360  -57.8693 H         1 UNK         0.3800 
    244 H244        0.9384  -17.2978  -56.5084 H         1 UNK         0.0800 
    245 H245       -0.6230  -16.8649  -55.8976 H         1 UNK         0.0800 
    246 H246       -1.1394  -16.4848  -53.7228 H         1 UNK         0.0800 
    247 H247       -1.1064  -17.9720  -52.8102 H         1 UNK         0.0800 
@<TRIPOS>BOND
     1    1    2 1    
     2    1  127 1    
     3    1  128 1    
     4    1  129 1    
     5    2    3 2    
     6    2    4 am   BACKBONE|DICT|INTERRES
     7    4    5 1    
     8    4  130 1    
     9    5    6 1    
    10    5   65 1    
    11    5  131 1    
    12    6    7 1    
    13    6  132 1    
    14    6  133 1    
    15    7    8 1    
    16    8    9 1    
    17    8  134 1    
    18    8  135 1    
    19    9   10 ar   
    20    9   14 ar   
    21   10   11 ar   
    22   10  136 1    
    23   11   12 ar   
    24   11  126 1    
    25   12   13 ar   
    26   12  137 1    
    27   13   14 ar   
    28   13   15 1    
    29   14  138 1    
    30   15   16 1    
    31   15  139 1    
    32   15  140 1    
    33   16   17 1    
    34   17   18 1    
    35   17  141 1    
    36   17  142 1    
    37   18   19 1    
    38   18   67 1    
    39   18  143 1    
    40   19   20 am   BACKBONE|DICT|INTERRES
    41   19  144 1    
    42   20   21 2    
    43   20   22 1    
    44   22   23 1    
    45   22   24 1    
    46   22  145 1    
    47   23  146 1    
    48   23  147 1    
    49   23  148 1    
    50   24   25 am   BACKBONE|DICT|INTERRES
    51   24  149 1    
    52   25   26 2    
    53   25   27 1    
    54   27   28 1    
    55   27   29 1    
    56   27  150 1    
    57   28  151 1    
    58   28  152 1    
    59   28  153 1    
    60   29   30 am   BACKBONE|DICT|INTERRES
    61   29  154 1    
    62   30   31 2    
    63   30   32 1    
    64   32   33 1    
    65   32   34 1    
    66   32  155 1    
    67   33  156 1    
    68   33  157 1    
    69   33  158 1    
    70   34   35 am   BACKBONE|DICT|INTERRES
    71   34  159 1    
    72   35   36 2    
    73   35   37 1    
    74   37   38 1    
    75   37   39 1    
    76   37  160 1    
    77   38  161 1    
    78   38  162 1    
    79   38  163 1    
    80   39   40 am   BACKBONE|DICT|INTERRES
    81   39  164 1    
    82   40   41 2    
    83   40   42 1    
    84   42   43 1    
    85   42   44 1    
    86   42  165 1    
    87   43  166 1    
    88   43  167 1    
    89   43  168 1    
    90   44   45 am   BACKBONE|DICT|INTERRES
    91   44  169 1    
    92   45   46 2    
    93   45   47 1    
    94   47   48 1    
    95   47   49 1    
    96   47  170 1    
    97   48  171 1    
    98   48  172 1    
    99   48  173 1    
   100   49   50 am   BACKBONE|DICT|INTERRES
   101   49  174 1    
   102   50   51 2    
   103   50   52 1    
   104   52   53 1    
   105   52   54 1    
   106   52  175 1    
   107   53  176 1    
   108   53  177 1    
   109   53  178 1    
   110   54   55 am   BACKBONE|DICT|INTERRES
   111   54  179 1    
   112   55   56 2    
   113   55   57 1    
   114   57   58 1    
   115   57   59 1    
   116   57  180 1    
   117   58  181 1    
   118   58  182 1    
   119   58  183 1    
   120   59   60 am   BACKBONE|DICT|INTERRES
   121   59  184 1    
   122   60   61 2    
   123   60   62 1    
   124   62   63 1    
   125   62   64 1    
   126   62  185 1    
   127   63  186 1    
   128   63  187 1    
   129   63  188 1    
   130   64   65 am   BACKBONE|DICT|INTERRES
   131   64  189 1    
   132   65   66 2    
   133   67   68 2    
   134   67   69 am   BACKBONE|DICT|INTERRES
   135   69   70 1    
   136   69  190 1    
   137   70   71 1    
   138   70   72 1    
   139   70  191 1    
   140   71  192 1    
   141   71  193 1    
   142   71  194 1    
   143   72   73 2    
   144   72   74 am   BACKBONE|DICT|INTERRES
   145   74   75 1    
   146   74  195 1    
   147   75   76 1    
   148   75   77 1    
   149   75  196 1    
   150   76  197 1    
   151   76  198 1    
   152   76  199 1    
   153   77   78 2    
   154   77   79 am   BACKBONE|DICT|INTERRES
   155   79   80 1    
   156   79  200 1    
   157   80   81 1    
   158   80   82 1    
   159   80  201 1    
   160   81  202 1    
   161   81  203 1    
   162   81  204 1    
   163   82   83 2    
   164   82   84 am   BACKBONE|DICT|INTERRES
   165   84   85 1    
   166   84  205 1    
   167   85   86 1    
   168   85   87 1    
   169   85  206 1    
   170   86  207 1    
   171   86  208 1    
   172   86  209 1    
   173   87   88 2    
   174   87   89 am   BACKBONE|DICT|INTERRES
   175   89   90 1    
   176   89  210 1    
   177   90   91 1    
   178   90   92 1    
   179   90  211 1    
   180   91  212 1    
   181   91  213 1    
   182   91  214 1    
   183   92   93 2    
   184   92   94 am   BACKBONE|DICT|INTERRES
   185   94   95 1    
   186   94  215 1    
   187   95   96 1    
   188   95   97 1    
   189   95  216 1    
   190   96  217 1    
   191   96  218 1    
   192   96  219 1    
   193   97   98 2    
   194   97   99 am   BACKBONE|DICT|INTERRES
   195   99  100 1    
   196   99  220 1    
   197  100  101 1    
   198  100  102 1    
   199  100  221 1    
   200  101  222 1    
   201  101  223 1    
   202  101  224 1    
   203  102  103 2    
   204  102  104 am   BACKBONE|DICT|INTERRES
   205  104  105 1    
   206  104  225 1    
   207  105  106 1    
   208  105  107 1    
   209  105  226 1    
   210  106  227 1    
   211  106  228 1    
   212  106  229 1    
   213  107  108 2    
   214  107  109 am   BACKBONE|DICT|INTERRES
   215  109  110 1    
   216  109  230 1    
   217  110  111 1    
   218  110  112 1    
   219  110  231 1    
   220  111  232 1    
   221  111  233 1    
   222  111  234 1    
   223  112  113 2    
   224  112  114 am   BACKBONE|DICT|INTERRES
   225  114  115 1    
   226  114  235 1    
   227  115  116 1    
   228  115  117 1    
   229  115  236 1    
   230  116  237 1    
   231  116  238 1    
   232  116  239 1    
   233  117  118 2    
   234  117  119 am   BACKBONE|DICT|INTERRES
   235  119  120 1    
   236  119  240 1    
   237  120  121 1    
   238  120  124 1    
   239  120  241 1    
   240  121  122 am   BACKBONE|DICT|INTERRES
   241  121  123 2    
   242  122  242 1    
   243  122  243 1    
   244  124  125 1    
   245  124  244 1    
   246  124  245 1    
   247  125  126 1    
   248  126  246 1    
   249  126  247 1    
@<TRIPOS>SUBSTRUCTURE
     1 UNK         1 GROUP             0       ****    0 ROOT    
