@<TRIPOS>MOLECULE
3R540
247   249    1
SMALL
USER_CHARGES


@<TRIPOS>ATOM
      1 CA         -0.6970  -12.7910  -48.8828 C.3       0 UNK        -0.1800 
      2 C           0.6506  -12.2102  -49.2899 C.2       0 UNK         0.5000 
      3 O           0.6997  -11.2594  -50.0697 O.2       0 UNK        -0.5000 
      4 N           1.7420  -12.7742  -48.7571 N.am      1 UNK        -0.5000 
      5 CA          3.1278  -12.3696  -49.0481 C.3       1 UNK         0.1400 
      6 C6          4.1249  -13.5480  -48.8923 C.3       23 UNK        -0.0398 
      7 S7          3.6776  -14.9847  -49.9242 S.3       23 UNK        -0.2404 
      8 C8          2.9455  -16.0819  -48.6721 C.3       23 UNK        -0.0205 
      9 C9          1.9099  -17.0058  -49.2872 C.ar      23 UNK        -0.0193 
     10 C10         0.6283  -16.5274  -49.5691 C.ar      23 UNK        -0.1150 
     11 C11        -0.3449  -17.3755  -50.1003 C.ar      23 UNK        -0.0193 
     12 C12        -0.0317  -18.7181  -50.3352 C.ar      23 UNK        -0.1150 
     13 C13         1.2488  -19.2118  -50.0613 C.ar      23 UNK        -0.0193 
     14 C14         2.2205  -18.3408  -49.5532 C.ar      23 UNK        -0.1150 
     15 C15         1.5587  -20.6847  -50.3272 C.3       23 UNK        -0.0205 
     16 S16         2.6825  -21.4657  -49.1117 S.3       23 UNK        -0.2404 
     17 C17         1.8437  -21.1143  -47.5272 C.3       23 UNK        -0.0398 
     18 CA          1.0338  -22.2981  -46.9531 C.3       11 UNK         0.1400 
     19 N           0.5959  -22.0122  -45.5858 N.am      11 UNK        -0.5000 
     20 C          -0.0172  -22.8811  -44.7714 C.2       10 UNK         0.5000 
     21 O          -0.2303  -24.0582  -45.0594 O.2       10 UNK        -0.5000 
     22 CA         -0.5196  -22.3269  -43.4271 C.3       10 UNK         0.1400 
     23 CB          0.6282  -22.2456  -42.4101 C.3       10 UNK        -0.1800 
     24 N          -1.1603  -21.0165  -43.5618 N.am      10 UNK        -0.5000 
     25 C          -2.2820  -20.7924  -44.2624 C.2       9 UNK         0.5000 
     26 O          -2.9117  -21.6776  -44.8392 O.2       9 UNK        -0.5000 
     27 CA         -2.7677  -19.3362  -44.3723 C.3       9 UNK         0.1400 
     28 CB         -3.5032  -18.9097  -43.0934 C.3       9 UNK        -0.1800 
     29 N          -1.6893  -18.3913  -44.6617 N.am      9 UNK        -0.5000 
     30 C          -0.9348  -18.4121  -45.7702 C.2       8 UNK         0.5000 
     31 O          -1.0715  -19.2338  -46.6760 O.2       8 UNK        -0.5000 
     32 CA          0.2125  -17.3870  -45.8420 C.3       8 UNK         0.1400 
     33 CB         -0.3111  -15.9775  -46.1578 C.3       8 UNK        -0.1800 
     34 N           0.9975  -17.3470  -44.6083 N.am      8 UNK        -0.5000 
     35 C           1.6823  -18.3870  -44.1103 C.2       7 UNK         0.5000 
     36 O           1.7744  -19.4819  -44.6654 O.2       7 UNK        -0.5000 
     37 CA          2.3258  -18.1833  -42.7297 C.3       7 UNK         0.1400 
     38 CB          3.6429  -17.4014  -42.8473 C.3       7 UNK        -0.1800 
     39 N           1.4203  -17.5033  -41.8022 N.am      7 UNK        -0.5000 
     40 C           0.2935  -18.0461  -41.3169 C.2       6 UNK         0.5000 
     41 O          -0.0837  -19.1871  -41.5779 O.2       6 UNK        -0.5000 
     42 CA         -0.5801  -17.1507  -40.4209 C.3       6 UNK         0.1400 
     43 CB         -0.0744  -17.1777  -38.9710 C.3       6 UNK        -0.1800 
     44 N          -0.6340  -15.7668  -40.8903 N.am      6 UNK        -0.5000 
     45 C          -1.1843  -15.3749  -42.0486 C.2       5 UNK         0.5000 
     46 O          -1.7384  -16.1390  -42.8375 O.2       5 UNK        -0.5000 
     47 CA         -1.0420  -13.8844  -42.4049 C.3       5 UNK         0.1400 
     48 CB         -2.1947  -13.0696  -41.8000 C.3       5 UNK        -0.1800 
     49 N           0.2385  -13.3248  -41.9626 N.am      5 UNK        -0.5000 
     50 C           1.4249  -13.6870  -42.4649 C.2       4 UNK         0.5000 
     51 O           1.5628  -14.5125  -43.3730 O.2       4 UNK        -0.5000 
     52 CA          2.6654  -13.0574  -41.8227 C.3       4 UNK         0.1400 
     53 CB          3.2662  -14.0090  -40.7700 C.3       4 UNK        -0.1800 
     54 N           3.6162  -12.7775  -42.8901 N.am      4 UNK        -0.5000 
     55 C           4.7409  -12.0595  -42.7928 C.2       3 UNK         0.5000 
     56 O           5.1716  -11.5825  -41.7424 O.2       3 UNK        -0.5000 
     57 CA          5.4773  -11.7897  -44.1169 C.3       3 UNK         0.1400 
     58 CB          6.1599  -13.0632  -44.6427 C.3       3 UNK        -0.1800 
     59 N           4.5591  -11.2736  -45.1333 N.am      3 UNK        -0.5000 
     60 C           4.0337  -10.0396  -45.1351 C.2       2 UNK         0.5000 
     61 O           4.3402   -9.1745  -44.3134 O.2       2 UNK        -0.5000 
     62 CA          2.9605   -9.7216  -46.2001 C.3       2 UNK         0.1400 
     63 CB          3.1865   -8.3504  -46.8708 C.3       2 UNK        -0.1800 
     64 N           2.7579  -10.7832  -47.1966 N.am      2 UNK        -0.5000 
     65 C           3.5820  -11.1709  -48.1838 C.2       1 UNK         0.5000 
     66 O           4.6758  -10.6515  -48.4053 O.2       1 UNK        -0.5000 
     67 C          -0.1573  -22.6791  -47.8563 C.2       11 UNK         0.5000 
     68 O          -0.0994  -23.6993  -48.5437 O.2       11 UNK        -0.5000 
     69 N          -1.2316  -21.8799  -47.8091 N.am      12 UNK        -0.5000 
     70 CA         -2.4670  -22.1212  -48.5493 C.3       12 UNK         0.1400 
     71 CB         -3.4031  -20.9204  -48.3897 C.3       12 UNK        -0.1800 
     72 C          -3.1751  -23.4248  -48.1405 C.2       12 UNK         0.5000 
     73 O          -3.6355  -24.1575  -49.0157 O.2       12 UNK        -0.5000 
     74 N          -3.2162  -23.7108  -46.8322 N.am      13 UNK        -0.5000 
     75 CA         -3.7617  -24.9460  -46.2679 C.3       13 UNK         0.1400 
     76 CB         -3.8570  -24.8173  -44.7403 C.3       13 UNK        -0.1800 
     77 C          -2.9502  -26.1947  -46.6580 C.2       13 UNK         0.5000 
     78 O          -3.5440  -27.2441  -46.9061 O.2       13 UNK        -0.5000 
     79 N          -1.6179  -26.0596  -46.7226 N.am      14 UNK        -0.5000 
     80 CA         -0.7042  -27.1041  -47.1855 C.3       14 UNK         0.1400 
     81 CB          0.7405  -26.7287  -46.8216 C.3       14 UNK        -0.1800 
     82 C          -0.8391  -27.3752  -48.6953 C.2       14 UNK         0.5000 
     83 O          -0.7940  -28.5357  -49.1056 O.2       14 UNK        -0.5000 
     84 N          -1.0140  -26.3083  -49.4890 N.am      15 UNK        -0.5000 
     85 CA         -1.2580  -26.3747  -50.9298 C.3       15 UNK         0.1400 
     86 CB         -1.1259  -24.9700  -51.5417 C.3       15 UNK        -0.1800 
     87 C          -2.6283  -26.9945  -51.2601 C.2       15 UNK         0.5000 
     88 O          -2.6982  -27.9069  -52.0838 O.2       15 UNK        -0.5000 
     89 N          -3.6829  -26.4854  -50.6033 N.am      16 UNK        -0.5000 
     90 CA         -5.0850  -26.9226  -50.6640 C.3       16 UNK         0.1400 
     91 CB         -5.2304  -28.3414  -50.0765 C.3       16 UNK        -0.1800 
     92 C          -5.7444  -26.7986  -52.0576 C.2       16 UNK         0.5000 
     93 O          -6.7843  -27.4138  -52.2993 O.2       16 UNK        -0.5000 
     94 N          -5.1380  -26.0083  -52.9522 N.am      17 UNK        -0.5000 
     95 CA         -5.5441  -25.8639  -54.3516 C.3       17 UNK         0.1400 
     96 CB         -4.3199  -25.4042  -55.1602 C.3       17 UNK        -0.1800 
     97 C          -6.7137  -24.8839  -54.5634 C.2       17 UNK         0.5000 
     98 O          -7.3340  -24.9168  -55.6274 O.2       17 UNK        -0.5000 
     99 N          -6.9608  -24.0146  -53.5709 N.am      18 UNK        -0.5000 
    100 CA        -7.8002  -22.8105  -53.6302 C.3       18 UNK         0.1400 
    101 CB        -9.2797  -23.1756  -53.8819 C.3       18 UNK        -0.1800 
    102 C         -7.2514  -21.7700  -54.6364 C.2       18 UNK         0.5000 
    103 O         -6.1094  -21.8962  -55.0891 O.2       18 UNK        -0.5000 
    104 N         -8.0585  -20.7445  -54.9477 N.am      19 UNK        -0.5000 
    105 CA        -7.7761  -19.6403  -55.8737 C.3       19 UNK         0.1400 
    106 CB        -7.7602  -20.1482  -57.3326 C.3       19 UNK        -0.1800 
    107 C         -6.5055  -18.8560  -55.4829 C.2       19 UNK         0.5000 
    108 O         -6.5839  -17.9628  -54.6385 O.2       19 UNK        -0.5000 
    109 N         -5.3624  -19.2163  -56.0838 N.am      20 UNK        -0.5000 
    110 CA        -4.0335  -18.6946  -55.7612 C.3       20 UNK         0.1400 
    111 CB        -3.0328  -19.1802  -56.8204 C.3       20 UNK        -0.1800 
    112 C         -3.5579  -19.0858  -54.3480 C.2       20 UNK         0.5000 
    113 O         -2.8227  -18.3182  -53.7263 O.2       20 UNK        -0.5000 
    114 N         -4.0036  -20.2488  -53.8508 N.am      21 UNK        -0.5000 
    115 CA        -3.8639  -20.6472  -52.4543 C.3       21 UNK         0.1400 
    116 CB        -3.9490  -22.1773  -52.3377 C.3       21 UNK        -0.1800 
    117 C         -4.9560  -19.9337  -51.6395 C.2       21 UNK         0.5000 
    118 O         -6.1128  -20.3581  -51.6533 O.2       21 UNK        -0.5000 
    119 N         -4.5557  -18.8406  -50.9854 N.am      22 UNK        -0.5000 
    120 CA        -5.3408  -17.8715  -50.1984 C.3       22 UNK         0.1400 
    121 C         -6.1304  -18.4197  -48.9637 C.2       22 UNK         0.5000 
    122 N         -6.6335  -19.6444  -48.9973 N.am      22 UNK        -0.7600 
    123 O         -6.3201  -17.7223  -47.9707 O.2       22 UNK        -0.5000 
    124 C124       -4.4719  -16.6201  -49.8791 C.3       23 UNK        -0.0398 
    125 S125       -2.8854  -17.0115  -49.0540 S.3       23 UNK        -0.2404 
    126 C126       -1.7235  -16.8342  -50.4433 C.3       23 UNK        -0.0205 
    127 H127       -1.1762  -13.2639  -49.7401 H         1 UNK         0.0600 
    128 H128       -0.5977  -13.5367  -48.0940 H         1 UNK         0.0600 
    129 H129       -1.3526  -12.0003  -48.5183 H         1 UNK         0.0600 
    130 H130        1.6366  -13.5539  -48.1265 H         1 UNK         0.3000 
    131 H131        3.1782  -12.0372  -50.0874 H         1 UNK         0.0600 
    132 H132        4.2114  -13.8560  -47.8488 H         1 UNK         0.0800 
    133 H133        5.1265  -13.2358  -49.1940 H         1 UNK         0.0800 
    134 H134        2.4693  -15.4990  -47.8835 H         1 UNK         0.0800 
    135 H135        3.7387  -16.6547  -48.1891 H         1 UNK         0.0800 
    136 H136        0.3892  -15.4918  -49.3787 H         1 UNK         0.1150 
    137 H137       -0.7870  -19.3780  -50.7374 H         1 UNK         0.1150 
    138 H138        3.2162  -18.7049  -49.3443 H         1 UNK         0.1150 
    139 H139        0.6346  -21.2636  -50.3609 H         1 UNK         0.0800 
    140 H140        2.0075  -20.7686  -51.3175 H         1 UNK         0.0800 
    141 H141        1.2170  -20.2268  -47.6103 H         1 UNK         0.0800 
    142 H142        2.6301  -20.8445  -46.8214 H         1 UNK         0.0800 
    143 H143        1.6948  -23.1657  -46.9008 H         1 UNK         0.0600 
    144 H144        0.7607  -21.0671  -45.2514 H         1 UNK         0.3000 
    145 H145       -1.2656  -23.0240  -43.0402 H         1 UNK         0.0600 
    146 H146        0.2615  -21.9529  -41.4262 H         1 UNK         0.0600 
    147 H147        1.1216  -23.2118  -42.2984 H         1 UNK         0.0600 
    148 H148        1.3852  -21.5218  -42.7138 H         1 UNK         0.0600 
    149 H149       -0.7216  -20.2442  -43.0684 H         1 UNK         0.3000 
    150 H150       -3.4763  -19.2869  -45.2017 H         1 UNK         0.0600 
    151 H151       -4.3224  -19.5932  -42.8671 H         1 UNK         0.0600 
    152 H152       -3.9314  -17.9128  -43.1997 H         1 UNK         0.0600 
    153 H153       -2.8366  -18.8970  -42.2308 H         1 UNK         0.0600 
    154 H154       -1.5328  -17.6592  -43.9741 H         1 UNK         0.3000 
    155 H155        0.8789  -17.6936  -46.6502 H         1 UNK         0.0600 
    156 H156       -0.9785  -15.6086  -45.3794 H         1 UNK         0.0600 
    157 H157       -0.8687  -15.9707  -47.0939 H         1 UNK         0.0600 
    158 H158        0.5076  -15.2656  -46.2589 H         1 UNK         0.0600 
    159 H159        0.9945  -16.4749  -44.0923 H         1 UNK         0.3000 
    160 H160        2.5538  -19.1693  -42.3191 H         1 UNK         0.0600 
    161 H161        4.1319  -17.3050  -41.8779 H         1 UNK         0.0600 
    162 H162        3.4884  -16.3999  -43.2493 H         1 UNK         0.0600 
    163 H163        4.3399  -17.9143  -43.5112 H         1 UNK         0.0600 
    164 H164        1.6363  -16.5456  -41.5727 H         1 UNK         0.3000 
    165 H165       -1.5953  -17.5527  -40.4367 H         1 UNK         0.0600 
    166 H166       -0.7322  -16.6092  -38.3134 H         1 UNK         0.0600 
    167 H167       -0.0394  -18.1992  -38.5895 H         1 UNK         0.0600 
    168 H168        0.9297  -16.7605  -38.8848 H         1 UNK         0.0600 
    169 H169       -0.2048  -15.0685  -40.3020 H         1 UNK         0.3000 
    170 H170       -1.0954  -13.7967  -43.4923 H         1 UNK         0.0600 
    171 H171       -3.1600  -13.4565  -42.1294 H         1 UNK         0.0600 
    172 H172       -2.1833  -13.1002  -40.7098 H         1 UNK         0.0600 
    173 H173       -2.1428  -12.0250  -42.1076 H         1 UNK         0.0600 
    174 H174        0.2015  -12.6401  -41.2209 H         1 UNK         0.3000 
    175 H175        2.3843  -12.1153  -41.3478 H         1 UNK         0.0600 
    176 H176        3.6411  -14.9255  -41.2244 H         1 UNK         0.0600 
    177 H177        4.0930  -13.5428  -40.2349 H         1 UNK         0.0600 
    178 H178        2.5223  -14.2904  -40.0236 H         1 UNK         0.0600 
    179 H179        3.3333  -13.1399  -43.7911 H         1 UNK         0.3000 
    180 H180        6.2503  -11.0409  -43.9305 H         1 UNK         0.0600 
    181 H181        5.4388  -13.8475  -44.8762 H         1 UNK         0.0600 
    182 H182        6.8541  -13.4655  -43.9037 H         1 UNK         0.0600 
    183 H183        6.7331  -12.8564  -45.5468 H         1 UNK         0.0600 
    184 H184        4.2598  -11.9157  -45.8496 H         1 UNK         0.3000 
    185 H185        2.0197   -9.6570  -45.6516 H         1 UNK         0.0600 
    186 H186        3.1476   -7.5455  -46.1360 H         1 UNK         0.0600 
    187 H187        4.1577   -8.2910  -47.3623 H         1 UNK         0.0600 
    188 H188        2.4184   -8.1438  -47.6161 H         1 UNK         0.0600 
    189 H189        1.8847  -11.2847  -47.1145 H         1 UNK         0.3000 
    190 H190       -1.1969  -21.0318  -47.2474 H         1 UNK         0.3000 
    191 H191       -2.2023  -22.2055  -49.6048 H         1 UNK         0.0600 
    192 H192       -3.6581  -20.7387  -47.3456 H         1 UNK         0.0600 
    193 H193       -4.3332  -21.0879  -48.9304 H         1 UNK         0.0600 
    194 H194       -2.9481  -20.0127  -48.7844 H         1 UNK         0.0600 
    195 H195       -2.8716  -23.0216  -46.1681 H         1 UNK         0.3000 
    196 H196       -4.7724  -25.0734  -46.6612 H         1 UNK         0.0600 
    197 H197       -4.2748  -25.7217  -44.2964 H         1 UNK         0.0600 
    198 H198       -4.5026  -23.9867  -44.4547 H         1 UNK         0.0600 
    199 H199       -2.8784  -24.6506  -44.2893 H         1 UNK         0.0600 
    200 H200       -1.1983  -25.1814  -46.4346 H         1 UNK         0.3000 
    201 H201       -0.9533  -28.0279  -46.6590 H         1 UNK         0.0600 
    202 H202        0.8566  -26.6110  -45.7441 H         1 UNK         0.0600 
    203 H203        1.0480  -25.7956  -47.2939 H         1 UNK         0.0600 
    204 H204        1.4377  -27.5041  -47.1414 H         1 UNK         0.0600 
    205 H205       -0.9615  -25.3820  -49.0753 H         1 UNK         0.3000 
    206 H206       -0.4880  -27.0092  -51.3736 H         1 UNK         0.0600 
    207 H207       -0.1270  -24.5643  -51.3800 H         1 UNK         0.0600 
    208 H208       -1.2977  -24.9937  -52.6185 H         1 UNK         0.0600 
    209 H209       -1.8405  -24.2698  -51.1093 H         1 UNK         0.0600 
    210 H210       -3.5168  -25.7022  -49.9726 H         1 UNK         0.3000 
    211 H211       -5.6341  -26.2408  -50.0132 H         1 UNK         0.0600 
    212 H212       -4.7617  -29.0924  -50.7130 H         1 UNK         0.0600 
    213 H213       -6.2798  -28.6161  -49.9643 H         1 UNK         0.0600 
    214 H214       -4.7734  -28.4078  -49.0894 H         1 UNK         0.0600 
    215 H215       -4.2849  -25.5472  -52.6745 H         1 UNK         0.3000 
    216 H216       -5.8568  -26.8390  -54.7313 H         1 UNK         0.0600 
    217 H217       -4.5588  -25.3266  -56.2217 H         1 UNK         0.0600 
    218 H218       -3.4946  -26.1102  -55.0645 H         1 UNK         0.0600 
    219 H219       -3.9666  -24.4252  -54.8330 H         1 UNK         0.0600 
    220 H220       -6.3823  -24.0949  -52.7484 H         1 UNK         0.3000 
    221 H221       -7.7334  -22.3504  -52.6436 H         1 UNK         0.0600 
    222 H222       -9.4528  -23.4903  -54.9115 H         1 UNK         0.0600 
    223 H223       -9.6011  -23.9858  -53.2272 H         1 UNK         0.0600 
    224 H224       -9.9365  -22.3283  -53.6843 H         1 UNK         0.0600 
    225 H225       -8.9586  -20.6992  -54.4918 H         1 UNK         0.3000 
    226 H226       -8.6075  -18.9395  -55.7834 H         1 UNK         0.0600 
    227 H227       -8.7313  -20.5589  -57.6093 H         1 UNK         0.0600 
    228 H228       -7.5452  -19.3357  -58.0280 H         1 UNK         0.0600 
    229 H229       -7.0176  -20.9296  -57.4959 H         1 UNK         0.0600 
    230 H230       -5.3957  -19.9954  -56.7257 H         1 UNK         0.3000 
    231 H231       -4.0789  -17.6045  -55.8049 H         1 UNK         0.0600 
    232 H232       -3.3199  -18.8459  -57.8175 H         1 UNK         0.0600 
    233 H233       -2.9618  -20.2686  -56.8375 H         1 UNK         0.0600 
    234 H234       -2.0341  -18.7888  -56.6221 H         1 UNK         0.0600 
    235 H235       -4.6495  -20.7997  -54.4101 H         1 UNK         0.3000 
    236 H236       -2.8826  -20.3450  -52.0816 H         1 UNK         0.0600 
    237 H237       -3.9086  -22.4958  -51.2964 H         1 UNK         0.0600 
    238 H238       -4.8751  -22.5602  -52.7573 H         1 UNK         0.0600 
    239 H239       -3.1226  -22.6579  -52.8614 H         1 UNK         0.0600 
    240 H240       -3.5787  -18.5997  -51.0532 H         1 UNK         0.3000 
    241 H241       -6.1300  -17.5254  -50.8677 H         1 UNK         0.0600 
    242 H242       -7.1576  -19.9991  -48.2141 H         1 UNK         0.3800 
    243 H243       -6.5579  -20.1791  -49.8577 H         1 UNK         0.3800 
    244 H244       -4.2627  -16.0839  -50.8058 H         1 UNK         0.0800 
    245 H245       -5.0188  -15.9055  -49.2621 H         1 UNK         0.0800 
    246 H246       -2.1069  -17.3527  -51.3218 H         1 UNK         0.0800 
    247 H247       -1.6548  -15.7810  -50.7198 H         1 UNK         0.0800 
@<TRIPOS>BOND
     1    1    2 1    
     2    1  127 1    
     3    1  128 1    
     4    1  129 1    
     5    2    3 2    
     6    2    4 am   BACKBONE|DICT|INTERRES
     7    4    5 1    
     8    4  130 1    
     9    5    6 1    
    10    5   65 1    
    11    5  131 1    
    12    6    7 1    
    13    6  132 1    
    14    6  133 1    
    15    7    8 1    
    16    8    9 1    
    17    8  134 1    
    18    8  135 1    
    19    9   10 ar   
    20    9   14 ar   
    21   10   11 ar   
    22   10  136 1    
    23   11   12 ar   
    24   11  126 1    
    25   12   13 ar   
    26   12  137 1    
    27   13   14 ar   
    28   13   15 1    
    29   14  138 1    
    30   15   16 1    
    31   15  139 1    
    32   15  140 1    
    33   16   17 1    
    34   17   18 1    
    35   17  141 1    
    36   17  142 1    
    37   18   19 1    
    38   18   67 1    
    39   18  143 1    
    40   19   20 am   BACKBONE|DICT|INTERRES
    41   19  144 1    
    42   20   21 2    
    43   20   22 1    
    44   22   23 1    
    45   22   24 1    
    46   22  145 1    
    47   23  146 1    
    48   23  147 1    
    49   23  148 1    
    50   24   25 am   BACKBONE|DICT|INTERRES
    51   24  149 1    
    52   25   26 2    
    53   25   27 1    
    54   27   28 1    
    55   27   29 1    
    56   27  150 1    
    57   28  151 1    
    58   28  152 1    
    59   28  153 1    
    60   29   30 am   BACKBONE|DICT|INTERRES
    61   29  154 1    
    62   30   31 2    
    63   30   32 1    
    64   32   33 1    
    65   32   34 1    
    66   32  155 1    
    67   33  156 1    
    68   33  157 1    
    69   33  158 1    
    70   34   35 am   BACKBONE|DICT|INTERRES
    71   34  159 1    
    72   35   36 2    
    73   35   37 1    
    74   37   38 1    
    75   37   39 1    
    76   37  160 1    
    77   38  161 1    
    78   38  162 1    
    79   38  163 1    
    80   39   40 am   BACKBONE|DICT|INTERRES
    81   39  164 1    
    82   40   41 2    
    83   40   42 1    
    84   42   43 1    
    85   42   44 1    
    86   42  165 1    
    87   43  166 1    
    88   43  167 1    
    89   43  168 1    
    90   44   45 am   BACKBONE|DICT|INTERRES
    91   44  169 1    
    92   45   46 2    
    93   45   47 1    
    94   47   48 1    
    95   47   49 1    
    96   47  170 1    
    97   48  171 1    
    98   48  172 1    
    99   48  173 1    
   100   49   50 am   BACKBONE|DICT|INTERRES
   101   49  174 1    
   102   50   51 2    
   103   50   52 1    
   104   52   53 1    
   105   52   54 1    
   106   52  175 1    
   107   53  176 1    
   108   53  177 1    
   109   53  178 1    
   110   54   55 am   BACKBONE|DICT|INTERRES
   111   54  179 1    
   112   55   56 2    
   113   55   57 1    
   114   57   58 1    
   115   57   59 1    
   116   57  180 1    
   117   58  181 1    
   118   58  182 1    
   119   58  183 1    
   120   59   60 am   BACKBONE|DICT|INTERRES
   121   59  184 1    
   122   60   61 2    
   123   60   62 1    
   124   62   63 1    
   125   62   64 1    
   126   62  185 1    
   127   63  186 1    
   128   63  187 1    
   129   63  188 1    
   130   64   65 am   BACKBONE|DICT|INTERRES
   131   64  189 1    
   132   65   66 2    
   133   67   68 2    
   134   67   69 am   BACKBONE|DICT|INTERRES
   135   69   70 1    
   136   69  190 1    
   137   70   71 1    
   138   70   72 1    
   139   70  191 1    
   140   71  192 1    
   141   71  193 1    
   142   71  194 1    
   143   72   73 2    
   144   72   74 am   BACKBONE|DICT|INTERRES
   145   74   75 1    
   146   74  195 1    
   147   75   76 1    
   148   75   77 1    
   149   75  196 1    
   150   76  197 1    
   151   76  198 1    
   152   76  199 1    
   153   77   78 2    
   154   77   79 am   BACKBONE|DICT|INTERRES
   155   79   80 1    
   156   79  200 1    
   157   80   81 1    
   158   80   82 1    
   159   80  201 1    
   160   81  202 1    
   161   81  203 1    
   162   81  204 1    
   163   82   83 2    
   164   82   84 am   BACKBONE|DICT|INTERRES
   165   84   85 1    
   166   84  205 1    
   167   85   86 1    
   168   85   87 1    
   169   85  206 1    
   170   86  207 1    
   171   86  208 1    
   172   86  209 1    
   173   87   88 2    
   174   87   89 am   BACKBONE|DICT|INTERRES
   175   89   90 1    
   176   89  210 1    
   177   90   91 1    
   178   90   92 1    
   179   90  211 1    
   180   91  212 1    
   181   91  213 1    
   182   91  214 1    
   183   92   93 2    
   184   92   94 am   BACKBONE|DICT|INTERRES
   185   94   95 1    
   186   94  215 1    
   187   95   96 1    
   188   95   97 1    
   189   95  216 1    
   190   96  217 1    
   191   96  218 1    
   192   96  219 1    
   193   97   98 2    
   194   97   99 am   BACKBONE|DICT|INTERRES
   195   99  100 1    
   196   99  220 1    
   197  100  101 1    
   198  100  102 1    
   199  100  221 1    
   200  101  222 1    
   201  101  223 1    
   202  101  224 1    
   203  102  103 2    
   204  102  104 am   BACKBONE|DICT|INTERRES
   205  104  105 1    
   206  104  225 1    
   207  105  106 1    
   208  105  107 1    
   209  105  226 1    
   210  106  227 1    
   211  106  228 1    
   212  106  229 1    
   213  107  108 2    
   214  107  109 am   BACKBONE|DICT|INTERRES
   215  109  110 1    
   216  109  230 1    
   217  110  111 1    
   218  110  112 1    
   219  110  231 1    
   220  111  232 1    
   221  111  233 1    
   222  111  234 1    
   223  112  113 2    
   224  112  114 am   BACKBONE|DICT|INTERRES
   225  114  115 1    
   226  114  235 1    
   227  115  116 1    
   228  115  117 1    
   229  115  236 1    
   230  116  237 1    
   231  116  238 1    
   232  116  239 1    
   233  117  118 2    
   234  117  119 am   BACKBONE|DICT|INTERRES
   235  119  120 1    
   236  119  240 1    
   237  120  121 1    
   238  120  124 1    
   239  120  241 1    
   240  121  122 am   BACKBONE|DICT|INTERRES
   241  121  123 2    
   242  122  242 1    
   243  122  243 1    
   244  124  125 1    
   245  124  244 1    
   246  124  245 1    
   247  125  126 1    
   248  126  246 1    
   249  126  247 1    
@<TRIPOS>SUBSTRUCTURE
     1 UNK         1 GROUP             0       ****    0 ROOT    
