@<TRIPOS>MOLECULE
3R540
247   249    1
SMALL
USER_CHARGES


@<TRIPOS>ATOM
      1 CA          0.1921  -14.3417  -51.3482 C.3       0 UNK        -0.1800 
      2 C           0.5214  -14.0936  -49.8836 C.2       0 UNK         0.5000 
      3 O           1.3706  -14.7824  -49.3199 O.2       0 UNK        -0.5000 
      4 N          -0.1319  -13.0993  -49.2663 N.am      1 UNK        -0.5000 
      5 CA         -0.0317  -12.7880  -47.8315 C.3       1 UNK         0.1400 
      6 C6         -1.2226  -11.9129  -47.3464 C.3       23 UNK        -0.0398 
      7 S7         -1.9012  -12.5047  -45.7558 S.3       23 UNK        -0.2404 
      8 C8         -3.3387  -13.5029  -46.2802 C.3       23 UNK        -0.0205 
      9 C9         -2.9854  -14.5336  -47.3450 C.ar      23 UNK        -0.0193 
     10 C10        -3.4945  -14.4046  -48.6414 C.ar      23 UNK        -0.1150 
     11 C11        -3.1384  -15.3168  -49.6381 C.ar      23 UNK        -0.0193 
     12 C12        -2.2666  -16.3632  -49.3307 C.ar      23 UNK        -0.1150 
     13 C13        -1.7451  -16.5002  -48.0416 C.ar      23 UNK        -0.0193 
     14 C14        -2.1258  -15.5958  -47.0465 C.ar      23 UNK        -0.1150 
     15 C15        -0.7281  -17.5901  -47.7482 C.3       23 UNK        -0.0205 
     16 S16        -1.4746  -18.9956  -46.8727 S.3       23 UNK        -0.2404 
     17 C17        -0.2627  -20.2917  -47.3072 C.3       23 UNK        -0.0398 
     18 CA         -0.5024  -21.6618  -46.6289 C.3       11 UNK         0.1400 
     19 N          -0.4143  -21.5857  -45.1709 N.am      11 UNK        -0.5000 
     20 C          -0.5682  -22.5966  -44.3052 C.2       10 UNK         0.5000 
     21 O          -0.7405  -23.7694  -44.6441 O.2       10 UNK        -0.5000 
     22 CA         -0.6151  -22.2168  -42.8123 C.3       10 UNK         0.1400 
     23 CB          0.7822  -22.3198  -42.1843 C.3       10 UNK        -0.1800 
     24 N          -1.1661  -20.8799  -42.5562 N.am      10 UNK        -0.5000 
     25 C          -2.3827  -20.4549  -42.9361 C.2       9 UNK         0.5000 
     26 O          -3.1717  -21.1535  -43.5739 O.2       9 UNK        -0.5000 
     27 CA         -2.7745  -19.0100  -42.5571 C.3       9 UNK         0.1400 
     28 CB         -4.2963  -18.7659  -42.6113 C.3       9 UNK        -0.1800 
     29 N          -2.2268  -18.5756  -41.2687 N.am      9 UNK        -0.5000 
     30 C          -2.3936  -19.1546  -40.0677 C.2       8 UNK         0.5000 
     31 O          -3.1371  -20.1172  -39.8719 O.2       8 UNK        -0.5000 
     32 CA         -1.5903  -18.5622  -38.8846 C.3       8 UNK         0.1400 
     33 CB         -1.1346  -19.6467  -37.8856 C.3       8 UNK        -0.1800 
     34 N          -0.4527  -17.7247  -39.2920 N.am      8 UNK        -0.5000 
     35 C           0.6100  -18.0995  -40.0189 C.2       7 UNK         0.5000 
     36 O           0.8086  -19.2482  -40.4205 O.2       7 UNK        -0.5000 
     37 CA          1.5694  -16.9703  -40.4377 C.3       7 UNK         0.1400 
     38 CB          2.9934  -17.2388  -39.9283 C.3       7 UNK        -0.1800 
     39 N           1.5946  -16.8172  -41.8926 N.am      7 UNK        -0.5000 
     40 C           0.5291  -16.5424  -42.6635 C.2       6 UNK         0.5000 
     41 O          -0.5895  -16.2927  -42.2117 O.2       6 UNK        -0.5000 
     42 CA          0.7265  -16.5710  -44.1924 C.3       6 UNK         0.1400 
     43 CB          0.8246  -15.1443  -44.7444 C.3       6 UNK        -0.1800 
     44 N           1.9068  -17.3324  -44.6047 N.am      6 UNK        -0.5000 
     45 C           2.0124  -18.6644  -44.4861 C.2       5 UNK         0.5000 
     46 O           1.0680  -19.3771  -44.1499 O.2       5 UNK        -0.5000 
     47 CA          3.3836  -19.3201  -44.7605 C.3       5 UNK         0.1400 
     48 CB          3.3205  -20.2551  -45.9778 C.3       5 UNK        -0.1800 
     49 N           4.4765  -18.3664  -44.9568 N.am      5 UNK        -0.5000 
     50 C           5.0070  -17.5834  -44.0072 C.2       4 UNK         0.5000 
     51 O           4.6457  -17.5990  -42.8307 O.2       4 UNK        -0.5000 
     52 CA          6.0798  -16.5749  -44.4667 C.3       4 UNK         0.1400 
     53 CB          7.4859  -17.1656  -44.2850 C.3       4 UNK        -0.1800 
     54 N           5.9160  -16.1365  -45.8592 N.am      4 UNK        -0.5000 
     55 C           4.8514  -15.4687  -46.3246 C.2       3 UNK         0.5000 
     56 O           3.8808  -15.1711  -45.6270 O.2       3 UNK        -0.5000 
     57 CA          4.8415  -15.1492  -47.8298 C.3       3 UNK         0.1400 
     58 CB          4.2145  -16.3170  -48.6078 C.3       3 UNK        -0.1800 
     59 N           4.0953  -13.9246  -48.1232 N.am      3 UNK        -0.5000 
     60 C           4.5214  -12.6880  -47.8215 C.2       2 UNK         0.5000 
     61 O           5.6181  -12.4576  -47.3090 O.2       2 UNK        -0.5000 
     62 CA          3.5961  -11.5001  -48.1633 C.3       2 UNK         0.1400 
     63 CB          4.0957  -10.7764  -49.4237 C.3       2 UNK        -0.1800 
     64 N           2.2034  -11.8930  -48.3722 N.am      2 UNK        -0.5000 
     65 C           1.3414  -12.2172  -47.3991 C.2       1 UNK         0.5000 
     66 O           1.6016  -12.0947  -46.2022 O.2       1 UNK        -0.5000 
     67 C          -1.8013  -22.3143  -47.1440 C.2       11 UNK         0.5000 
     68 O          -1.7575  -22.9685  -48.1851 O.2       11 UNK        -0.5000 
     69 N          -2.9187  -22.1656  -46.4151 N.am      12 UNK        -0.5000 
     70 CA         -4.2142  -22.7615  -46.7513 C.3       12 UNK         0.1400 
     71 CB         -5.2926  -22.2225  -45.8013 C.3       12 UNK        -0.1800 
     72 C          -4.1948  -24.3014  -46.7332 C.2       12 UNK         0.5000 
     73 O          -4.9384  -24.9208  -47.4935 O.2       12 UNK        -0.5000 
     74 N          -3.3289  -24.8844  -45.8946 N.am      13 UNK        -0.5000 
     75 CA         -3.0733  -26.3201  -45.8403 C.3       13 UNK         0.1400 
     76 CB         -2.8456  -26.7371  -44.3786 C.3       13 UNK        -0.1800 
     77 C          -1.8594  -26.6961  -46.7056 C.2       13 UNK         0.5000 
     78 O          -1.9193  -27.6853  -47.4361 O.2       13 UNK        -0.5000 
     79 N          -0.7757  -25.9146  -46.5967 N.am      14 UNK        -0.5000 
     80 CA          0.5253  -26.2279  -47.1889 C.3       14 UNK         0.1400 
     81 CB          1.6067  -25.3865  -46.4931 C.3       14 UNK        -0.1800 
     82 C           0.6019  -26.0412  -48.7157 C.2       14 UNK         0.5000 
     83 O           1.3532  -26.7706  -49.3647 O.2       14 UNK        -0.5000 
     84 N          -0.1363  -25.0657  -49.2606 N.am      15 UNK        -0.5000 
     85 CA         -0.0345  -24.6392  -50.6602 C.3       15 UNK         0.1400 
     86 CB          0.9091  -23.4234  -50.7321 C.3       15 UNK        -0.1800 
     87 C          -1.4016  -24.3199  -51.2920 C.2       15 UNK         0.5000 
     88 O          -1.4368  -23.7387  -52.3785 O.2       15 UNK        -0.5000 
     89 N          -2.5006  -24.6599  -50.5981 N.am      16 UNK        -0.5000 
     90 CA         -3.8910  -24.3176  -50.9335 C.3       16 UNK         0.1400 
     91 CB         -4.3742  -25.1381  -52.1450 C.3       16 UNK        -0.1800 
     92 C          -4.0936  -22.7961  -51.1124 C.2       16 UNK         0.5000 
     93 O          -4.7650  -22.3568  -52.0469 O.2       16 UNK        -0.5000 
     94 N          -3.4318  -22.0218  -50.2411 N.am      17 UNK        -0.5000 
     95 CA         -3.2627  -20.5662  -50.2159 C.3       17 UNK         0.1400 
     96 CB         -4.6068  -19.8287  -50.0744 C.3       17 UNK        -0.1800 
     97 C          -2.4271  -20.0290  -51.3916 C.2       17 UNK         0.5000 
     98 O          -1.4455  -19.3236  -51.1622 O.2       17 UNK        -0.5000 
     99 N          -2.8136  -20.3865  -52.6193 N.am      18 UNK        -0.5000 
    100 CA        -2.1812  -19.9636  -53.8645 C.3       18 UNK         0.1400 
    101 CB        -2.6000  -18.5152  -54.1988 C.3       18 UNK        -0.1800 
    102 C         -2.5097  -20.9607  -54.9900 C.2       18 UNK         0.5000 
    103 O         -2.8800  -20.5395  -56.0869 O.2       18 UNK        -0.5000 
    104 N         -2.4131  -22.2663  -54.6925 N.am      19 UNK        -0.5000 
    105 CA        -2.6860  -23.4287  -55.5528 C.3       19 UNK         0.1400 
    106 CB        -1.7413  -23.4681  -56.7703 C.3       19 UNK        -0.1800 
    107 C         -4.1647  -23.5658  -55.9688 C.2       19 UNK         0.5000 
    108 O         -4.8192  -24.5366  -55.5898 O.2       19 UNK        -0.5000 
    109 N         -4.6686  -22.5806  -56.7197 N.am      20 UNK        -0.5000 
    110 CA        -6.0802  -22.4194  -57.0780 C.3       20 UNK         0.1400 
    111 CB        -6.1583  -21.6802  -58.4233 C.3       20 UNK        -0.1800 
    112 C         -6.8740  -21.6580  -55.9939 C.2       20 UNK         0.5000 
    113 O         -8.1023  -21.6121  -56.0704 O.2       20 UNK        -0.5000 
    114 N         -6.1467  -21.0881  -55.0217 N.am      21 UNK        -0.5000 
    115 CA        -6.5616  -20.2304  -53.9100 C.3       21 UNK         0.1400 
    116 CB        -7.7063  -20.8472  -53.0834 C.3       21 UNK        -0.1800 
    117 C         -6.8820  -18.7926  -54.3528 C.2       21 UNK         0.5000 
    118 O         -7.4155  -18.5654  -55.4404 O.2       21 UNK        -0.5000 
    119 N         -6.5343  -17.8411  -53.4813 N.am      22 UNK        -0.5000 
    120 CA        -6.7286  -16.3956  -53.6735 C.3       22 UNK         0.1400 
    121 C         -8.1276  -15.8627  -53.2418 C.2       22 UNK         0.5000 
    122 N         -9.0111  -16.6808  -52.6821 N.am      22 UNK        -0.7600 
    123 O         -8.4261  -14.6876  -53.4373 O.2       22 UNK        -0.5000 
    124 C124       -5.5657  -15.5870  -53.0405 C.3       23 UNK        -0.0398 
    125 S125       -5.2673  -15.9623  -51.2770 S.3       23 UNK        -0.2404 
    126 C126       -3.6583  -15.1488  -51.0560 C.3       23 UNK        -0.0205 
    127 H127       -0.1349  -15.3724  -51.4864 H         1 UNK         0.0600 
    128 H128       -0.6020  -13.6840  -51.7023 H         1 UNK         0.0600 
    129 H129        1.0752  -14.1770  -51.9651 H         1 UNK         0.0600 
    130 H130       -0.7996  -12.5514  -49.7892 H         1 UNK         0.3000 
    131 H131       -0.0975  -13.7543  -47.3315 H         1 UNK         0.0600 
    132 H132       -2.0328  -11.9097  -48.0763 H         1 UNK         0.0800 
    133 H133       -0.9360  -10.8651  -47.2387 H         1 UNK         0.0800 
    134 H134       -4.1214  -12.8318  -46.6373 H         1 UNK         0.0800 
    135 H135       -3.7497  -14.0154  -45.4095 H         1 UNK         0.0800 
    136 H136       -4.1572  -13.5852  -48.8821 H         1 UNK         0.1150 
    137 H137       -1.9724  -17.0554  -50.1055 H         1 UNK         0.1150 
    138 H138       -1.7241  -15.6945  -46.0489 H         1 UNK         0.1150 
    139 H139       -0.2831  -17.9352  -48.6832 H         1 UNK         0.0800 
    140 H140        0.0924  -17.1839  -47.1556 H         1 UNK         0.0800 
    141 H141       -0.2499  -20.4069  -48.3931 H         1 UNK         0.0800 
    142 H142        0.7261  -19.9223  -47.0430 H         1 UNK         0.0800 
    143 H143        0.3101  -22.3172  -46.9447 H         1 UNK         0.0600 
    144 H144       -0.2118  -20.6677  -44.7836 H         1 UNK         0.3000 
    145 H145       -1.2675  -22.9376  -42.3159 H         1 UNK         0.0600 
    146 H146        0.7446  -22.1417  -41.1094 H         1 UNK         0.0600 
    147 H147        1.2076  -23.3127  -42.3358 H         1 UNK         0.0600 
    148 H148        1.4729  -21.5957  -42.6177 H         1 UNK         0.0600 
    149 H149       -0.5645  -20.2400  -42.0519 H         1 UNK         0.3000 
    150 H150       -2.3136  -18.3716  -43.3124 H         1 UNK         0.0600 
    151 H151       -4.6883  -18.9581  -43.6109 H         1 UNK         0.0600 
    152 H152       -4.5386  -17.7326  -42.3631 H         1 UNK         0.0600 
    153 H153       -4.8344  -19.4136  -41.9187 H         1 UNK         0.0600 
    154 H154       -1.6039  -17.7757  -41.3252 H         1 UNK         0.3000 
    155 H155       -2.2796  -17.9001  -38.3589 H         1 UNK         0.0600 
    156 H156       -0.5726  -19.2113  -37.0594 H         1 UNK         0.0600 
    157 H157       -0.5036  -20.3974  -38.3623 H         1 UNK         0.0600 
    158 H158       -1.9901  -20.1673  -37.4539 H         1 UNK         0.0600 
    159 H159       -0.5381  -16.7467  -39.0510 H         1 UNK         0.3000 
    160 H160        1.2262  -16.0267  -40.0089 H         1 UNK         0.0600 
    161 H161        3.4013  -18.1618  -40.3428 H         1 UNK         0.0600 
    162 H162        3.0083  -17.3314  -38.8418 H         1 UNK         0.0600 
    163 H163        3.6688  -16.4260  -40.1962 H         1 UNK         0.0600 
    164 H164        2.4718  -17.0389  -42.3460 H         1 UNK         0.3000 
    165 H165       -0.1547  -17.0464  -44.6278 H         1 UNK         0.0600 
    166 H166        1.6466  -14.5907  -44.2894 H         1 UNK         0.0600 
    167 H167        0.9829  -15.1496  -45.8223 H         1 UNK         0.0600 
    168 H168       -0.0900  -14.5856  -44.5464 H         1 UNK         0.0600 
    169 H169        2.7101  -16.7892  -44.9005 H         1 UNK         0.3000 
    170 H170        3.6204  -19.9260  -43.8835 H         1 UNK         0.0600 
    171 H171        2.5488  -21.0152  -45.8497 H         1 UNK         0.0600 
    172 H172        3.1045  -19.7069  -46.8954 H         1 UNK         0.0600 
    173 H173        4.2649  -20.7812  -46.1178 H         1 UNK         0.0600 
    174 H174        4.8307  -18.2747  -45.8971 H         1 UNK         0.3000 
    175 H175        5.9934  -15.6936  -43.8276 H         1 UNK         0.0600 
    176 H176        7.6421  -18.0374  -44.9215 H         1 UNK         0.0600 
    177 H177        8.2563  -16.4320  -44.5234 H         1 UNK         0.0600 
    178 H178        7.6470  -17.4796  -43.2527 H         1 UNK         0.0600 
    179 H179        6.6715  -16.3591  -46.4915 H         1 UNK         0.3000 
    180 H180        5.8704  -15.0149  -48.1703 H         1 UNK         0.0600 
    181 H181        4.7941  -17.2317  -48.4789 H         1 UNK         0.0600 
    182 H182        3.1974  -16.5238  -48.2713 H         1 UNK         0.0600 
    183 H183        4.1757  -16.1051  -49.6765 H         1 UNK         0.0600 
    184 H184        3.1640  -14.0494  -48.5042 H         1 UNK         0.3000 
    185 H185        3.6397  -10.7985  -47.3276 H         1 UNK         0.0600 
    186 H186        5.1242  -10.4357  -49.2975 H         1 UNK         0.0600 
    187 H187        4.0708  -11.4277  -50.2983 H         1 UNK         0.0600 
    188 H188        3.4886   -9.8973  -49.6411 H         1 UNK         0.0600 
    189 H189        1.9075  -12.0264  -49.3280 H         1 UNK         0.3000 
    190 H190       -2.8750  -21.6477  -45.5428 H         1 UNK         0.3000 
    191 H191       -4.4757  -22.4457  -47.7617 H         1 UNK         0.0600 
    192 H192       -6.2815  -22.5781  -46.0932 H         1 UNK         0.0600 
    193 H193       -5.3214  -21.1327  -45.8125 H         1 UNK         0.0600 
    194 H194       -5.1203  -22.5437  -44.7735 H         1 UNK         0.0600 
    195 H195       -2.7276  -24.2957  -45.3314 H         1 UNK         0.3000 
    196 H196       -3.9386  -26.8720  -46.2137 H         1 UNK         0.0600 
    197 H197       -2.6512  -27.8077  -44.3039 H         1 UNK         0.0600 
    198 H198       -3.7233  -26.5229  -43.7687 H         1 UNK         0.0600 
    199 H199       -1.9959  -26.2168  -43.9345 H         1 UNK         0.0600 
    200 H200       -0.7979  -25.1330  -45.9470 H         1 UNK         0.3000 
    201 H201        0.7410  -27.2784  -46.9815 H         1 UNK         0.0600 
    202 H202        1.6144  -25.5646  -45.4175 H         1 UNK         0.0600 
    203 H203        1.4538  -24.3199  -46.6533 H         1 UNK         0.0600 
    204 H204        2.5993  -25.6353  -46.8706 H         1 UNK         0.0600 
    205 H205       -0.7202  -24.4853  -48.6648 H         1 UNK         0.3000 
    206 H206        0.3891  -25.4406  -51.2684 H         1 UNK         0.0600 
    207 H207        1.8908  -23.6604  -50.3218 H         1 UNK         0.0600 
    208 H208        1.0615  -23.0987  -51.7621 H         1 UNK         0.0600 
    209 H209        0.5085  -22.5754  -50.1750 H         1 UNK         0.0600 
    210 H210       -2.3667  -25.1361  -49.7180 H         1 UNK         0.3000 
    211 H211       -4.5022  -24.6060  -50.0789 H         1 UNK         0.0600 
    212 H212       -3.8096  -24.8983  -53.0445 H         1 UNK         0.0600 
    213 H213       -5.4260  -24.9440  -52.3585 H         1 UNK         0.0600 
    214 H214       -4.2720  -26.2075  -51.9618 H         1 UNK         0.0600 
    215 H215       -2.8548  -22.5084  -49.5582 H         1 UNK         0.3000 
    216 H216       -2.6909  -20.3546  -49.3125 H         1 UNK         0.0600 
    217 H217       -5.1354  -20.1503  -49.1771 H         1 UNK         0.0600 
    218 H218       -5.2638  -19.9957  -50.9263 H         1 UNK         0.0600 
    219 H219       -4.4490  -18.7527  -49.9883 H         1 UNK         0.0600 
    220 H220       -3.5913  -21.0388  -52.6921 H         1 UNK         0.3000 
    221 H221       -1.0973  -19.9902  -53.7361 H         1 UNK         0.0600 
    222 H222       -3.6772  -18.4334  -54.3452 H         1 UNK         0.0600 
    223 H223       -2.3188  -17.8235  -53.4046 H         1 UNK         0.0600 
    224 H224       -2.1156  -18.1670  -55.1117 H         1 UNK         0.0600 
    225 H225       -2.1021  -22.5230  -53.7583 H         1 UNK         0.3000 
    226 H226       -2.4521  -24.3036  -54.9447 H         1 UNK         0.0600 
    227 H227       -0.6979  -23.4700  -56.4551 H         1 UNK         0.0600 
    228 H228       -1.9041  -24.3726  -57.3577 H         1 UNK         0.0600 
    229 H229       -1.8862  -22.6181  -57.4373 H         1 UNK         0.0600 
    230 H230       -4.0530  -21.7986  -56.9274 H         1 UNK         0.3000 
    231 H231       -6.5405  -23.4022  -57.1982 H         1 UNK         0.0600 
    232 H232       -5.7206  -20.6830  -58.3591 H         1 UNK         0.0600 
    233 H233       -5.6328  -22.2284  -59.2055 H         1 UNK         0.0600 
    234 H234       -7.1933  -21.5646  -58.7475 H         1 UNK         0.0600 
    235 H235       -5.1488  -21.2058  -55.1097 H         1 UNK         0.3000 
    236 H236       -5.6856  -20.1767  -53.2643 H         1 UNK         0.0600 
    237 H237       -7.4780  -21.8749  -52.8003 H         1 UNK         0.0600 
    238 H238       -7.8642  -20.2860  -52.1620 H         1 UNK         0.0600 
    239 H239       -8.6510  -20.8480  -53.6275 H         1 UNK         0.0600 
    240 H240       -6.1184  -18.0975  -52.5976 H         1 UNK         0.3000 
    241 H241       -6.6831  -16.1976  -54.7461 H         1 UNK         0.0600 
    242 H242       -8.7849  -17.6486  -52.5222 H         1 UNK         0.3800 
    243 H243       -9.9156  -16.3256  -52.4143 H         1 UNK         0.3800 
    244 H244       -5.7271  -14.5135  -53.1534 H         1 UNK         0.0800 
    245 H245       -4.6494  -15.8049  -53.5910 H         1 UNK         0.0800 
    246 H246       -3.7517  -14.0880  -51.2938 H         1 UNK         0.0800 
    247 H247       -2.9415  -15.5628  -51.7672 H         1 UNK         0.0800 
@<TRIPOS>BOND
     1    1    2 1    
     2    1  127 1    
     3    1  128 1    
     4    1  129 1    
     5    2    3 2    
     6    2    4 am   BACKBONE|DICT|INTERRES
     7    4    5 1    
     8    4  130 1    
     9    5    6 1    
    10    5   65 1    
    11    5  131 1    
    12    6    7 1    
    13    6  132 1    
    14    6  133 1    
    15    7    8 1    
    16    8    9 1    
    17    8  134 1    
    18    8  135 1    
    19    9   10 ar   
    20    9   14 ar   
    21   10   11 ar   
    22   10  136 1    
    23   11   12 ar   
    24   11  126 1    
    25   12   13 ar   
    26   12  137 1    
    27   13   14 ar   
    28   13   15 1    
    29   14  138 1    
    30   15   16 1    
    31   15  139 1    
    32   15  140 1    
    33   16   17 1    
    34   17   18 1    
    35   17  141 1    
    36   17  142 1    
    37   18   19 1    
    38   18   67 1    
    39   18  143 1    
    40   19   20 am   BACKBONE|DICT|INTERRES
    41   19  144 1    
    42   20   21 2    
    43   20   22 1    
    44   22   23 1    
    45   22   24 1    
    46   22  145 1    
    47   23  146 1    
    48   23  147 1    
    49   23  148 1    
    50   24   25 am   BACKBONE|DICT|INTERRES
    51   24  149 1    
    52   25   26 2    
    53   25   27 1    
    54   27   28 1    
    55   27   29 1    
    56   27  150 1    
    57   28  151 1    
    58   28  152 1    
    59   28  153 1    
    60   29   30 am   BACKBONE|DICT|INTERRES
    61   29  154 1    
    62   30   31 2    
    63   30   32 1    
    64   32   33 1    
    65   32   34 1    
    66   32  155 1    
    67   33  156 1    
    68   33  157 1    
    69   33  158 1    
    70   34   35 am   BACKBONE|DICT|INTERRES
    71   34  159 1    
    72   35   36 2    
    73   35   37 1    
    74   37   38 1    
    75   37   39 1    
    76   37  160 1    
    77   38  161 1    
    78   38  162 1    
    79   38  163 1    
    80   39   40 am   BACKBONE|DICT|INTERRES
    81   39  164 1    
    82   40   41 2    
    83   40   42 1    
    84   42   43 1    
    85   42   44 1    
    86   42  165 1    
    87   43  166 1    
    88   43  167 1    
    89   43  168 1    
    90   44   45 am   BACKBONE|DICT|INTERRES
    91   44  169 1    
    92   45   46 2    
    93   45   47 1    
    94   47   48 1    
    95   47   49 1    
    96   47  170 1    
    97   48  171 1    
    98   48  172 1    
    99   48  173 1    
   100   49   50 am   BACKBONE|DICT|INTERRES
   101   49  174 1    
   102   50   51 2    
   103   50   52 1    
   104   52   53 1    
   105   52   54 1    
   106   52  175 1    
   107   53  176 1    
   108   53  177 1    
   109   53  178 1    
   110   54   55 am   BACKBONE|DICT|INTERRES
   111   54  179 1    
   112   55   56 2    
   113   55   57 1    
   114   57   58 1    
   115   57   59 1    
   116   57  180 1    
   117   58  181 1    
   118   58  182 1    
   119   58  183 1    
   120   59   60 am   BACKBONE|DICT|INTERRES
   121   59  184 1    
   122   60   61 2    
   123   60   62 1    
   124   62   63 1    
   125   62   64 1    
   126   62  185 1    
   127   63  186 1    
   128   63  187 1    
   129   63  188 1    
   130   64   65 am   BACKBONE|DICT|INTERRES
   131   64  189 1    
   132   65   66 2    
   133   67   68 2    
   134   67   69 am   BACKBONE|DICT|INTERRES
   135   69   70 1    
   136   69  190 1    
   137   70   71 1    
   138   70   72 1    
   139   70  191 1    
   140   71  192 1    
   141   71  193 1    
   142   71  194 1    
   143   72   73 2    
   144   72   74 am   BACKBONE|DICT|INTERRES
   145   74   75 1    
   146   74  195 1    
   147   75   76 1    
   148   75   77 1    
   149   75  196 1    
   150   76  197 1    
   151   76  198 1    
   152   76  199 1    
   153   77   78 2    
   154   77   79 am   BACKBONE|DICT|INTERRES
   155   79   80 1    
   156   79  200 1    
   157   80   81 1    
   158   80   82 1    
   159   80  201 1    
   160   81  202 1    
   161   81  203 1    
   162   81  204 1    
   163   82   83 2    
   164   82   84 am   BACKBONE|DICT|INTERRES
   165   84   85 1    
   166   84  205 1    
   167   85   86 1    
   168   85   87 1    
   169   85  206 1    
   170   86  207 1    
   171   86  208 1    
   172   86  209 1    
   173   87   88 2    
   174   87   89 am   BACKBONE|DICT|INTERRES
   175   89   90 1    
   176   89  210 1    
   177   90   91 1    
   178   90   92 1    
   179   90  211 1    
   180   91  212 1    
   181   91  213 1    
   182   91  214 1    
   183   92   93 2    
   184   92   94 am   BACKBONE|DICT|INTERRES
   185   94   95 1    
   186   94  215 1    
   187   95   96 1    
   188   95   97 1    
   189   95  216 1    
   190   96  217 1    
   191   96  218 1    
   192   96  219 1    
   193   97   98 2    
   194   97   99 am   BACKBONE|DICT|INTERRES
   195   99  100 1    
   196   99  220 1    
   197  100  101 1    
   198  100  102 1    
   199  100  221 1    
   200  101  222 1    
   201  101  223 1    
   202  101  224 1    
   203  102  103 2    
   204  102  104 am   BACKBONE|DICT|INTERRES
   205  104  105 1    
   206  104  225 1    
   207  105  106 1    
   208  105  107 1    
   209  105  226 1    
   210  106  227 1    
   211  106  228 1    
   212  106  229 1    
   213  107  108 2    
   214  107  109 am   BACKBONE|DICT|INTERRES
   215  109  110 1    
   216  109  230 1    
   217  110  111 1    
   218  110  112 1    
   219  110  231 1    
   220  111  232 1    
   221  111  233 1    
   222  111  234 1    
   223  112  113 2    
   224  112  114 am   BACKBONE|DICT|INTERRES
   225  114  115 1    
   226  114  235 1    
   227  115  116 1    
   228  115  117 1    
   229  115  236 1    
   230  116  237 1    
   231  116  238 1    
   232  116  239 1    
   233  117  118 2    
   234  117  119 am   BACKBONE|DICT|INTERRES
   235  119  120 1    
   236  119  240 1    
   237  120  121 1    
   238  120  124 1    
   239  120  241 1    
   240  121  122 am   BACKBONE|DICT|INTERRES
   241  121  123 2    
   242  122  242 1    
   243  122  243 1    
   244  124  125 1    
   245  124  244 1    
   246  124  245 1    
   247  125  126 1    
   248  126  246 1    
   249  126  247 1    
@<TRIPOS>SUBSTRUCTURE
     1 UNK         1 GROUP             0       ****    0 ROOT    
