@<TRIPOS>MOLECULE
3R540
247   249    1
SMALL
USER_CHARGES


@<TRIPOS>ATOM
      1 CA         -2.5611  -15.0112  -52.3560 C.3       0 UNK        -0.1800 
      2 C          -1.5951  -16.1496  -52.0379 C.2       0 UNK         0.5000 
      3 O          -1.5990  -17.1531  -52.7489 O.2       0 UNK        -0.5000 
      4 N          -0.7392  -16.0440  -51.0126 N.am      1 UNK        -0.5000 
      5 CA         -0.6150  -14.9434  -50.0461 C.3       1 UNK         0.1400 
      6 C6          0.6936  -15.0688  -49.2268 C.3       23 UNK        -0.0398 
      7 S7          2.1826  -14.8253  -50.2459 S.3       23 UNK        -0.2404 
      8 C8          3.2803  -16.1301  -49.5909 C.3       23 UNK        -0.0205 
      9 C9          2.8945  -17.5612  -49.9668 C.ar      23 UNK        -0.0193 
     10 C10         2.2073  -17.8594  -51.1487 C.ar      23 UNK        -0.1150 
     11 C11         1.9320  -19.1819  -51.5078 C.ar      23 UNK        -0.0193 
     12 C12         2.3621  -20.2169  -50.6742 C.ar      23 UNK        -0.1150 
     13 C13         3.0352  -19.9408  -49.4786 C.ar      23 UNK        -0.0193 
     14 C14         3.2944  -18.6105  -49.1350 C.ar      23 UNK        -0.1150 
     15 C15         3.5330  -21.0546  -48.5600 C.3       23 UNK        -0.0205 
     16 S16         2.4587  -22.5285  -48.4707 S.3       23 UNK        -0.2404 
     17 C17         0.8146  -21.8166  -48.1269 C.3       23 UNK        -0.0398 
     18 CA          0.0170  -22.6923  -47.1358 C.3       11 UNK         0.1400 
     19 N           0.4569  -22.5146  -45.7494 N.am      11 UNK        -0.5000 
     20 C           0.1515  -23.3555  -44.7529 C.2       10 UNK         0.5000 
     21 O          -0.4918  -24.3921  -44.9162 O.2       10 UNK        -0.5000 
     22 CA          0.5732  -22.9362  -43.3321 C.3       10 UNK         0.1400 
     23 CB          2.0545  -23.2498  -43.0754 C.3       10 UNK        -0.1800 
     24 N           0.3068  -21.5194  -43.0706 N.am      10 UNK        -0.5000 
     25 C          -0.9217  -20.9839  -43.0302 C.2       9 UNK         0.5000 
     26 O          -1.9521  -21.6477  -43.1441 O.2       9 UNK        -0.5000 
     27 CA         -1.0238  -19.4524  -42.9007 C.3       9 UNK         0.1400 
     28 CB         -0.9156  -19.0089  -41.4352 C.3       9 UNK        -0.1800 
     29 N          -0.0280  -18.7449  -43.7051 N.am      9 UNK        -0.5000 
     30 C           0.0231  -18.7686  -45.0440 C.2       8 UNK         0.5000 
     31 O          -0.8066  -19.3368  -45.7470 O.2       8 UNK        -0.5000 
     32 CA          1.2319  -18.0949  -45.7132 C.3       8 UNK         0.1400 
     33 CB          0.9979  -16.5898  -45.8816 C.3       8 UNK        -0.1800 
     34 N           2.4745  -18.3280  -44.9794 N.am      8 UNK        -0.5000 
     35 C           3.0331  -19.5353  -44.8166 C.2       7 UNK         0.5000 
     36 O           2.5672  -20.5717  -45.2873 O.2       7 UNK        -0.5000 
     37 CA          4.2915  -19.5951  -43.9357 C.3       7 UNK         0.1400 
     38 CB          5.5236  -19.1128  -44.7161 C.3       7 UNK        -0.1800 
     39 N           4.1399  -18.8034  -42.7141 N.am      7 UNK        -0.5000 
     40 C           3.2750  -19.0940  -41.7312 C.2       6 UNK         0.5000 
     41 O           2.5543  -20.0918  -41.7280 O.2       6 UNK        -0.5000 
     42 CA          3.1624  -18.0705  -40.5856 C.3       6 UNK         0.1400 
     43 CB          4.2330  -18.3348  -39.5165 C.3       6 UNK        -0.1800 
     44 N           3.2589  -16.6793  -41.0405 N.am      6 UNK        -0.5000 
     45 C           2.3850  -16.0927  -41.8686 C.2       5 UNK         0.5000 
     46 O           1.4186  -16.6753  -42.3653 O.2       5 UNK        -0.5000 
     47 CA          2.6717  -14.6337  -42.2541 C.3       5 UNK         0.1400 
     48 CB          3.5745  -14.5803  -43.4969 C.3       5 UNK        -0.1800 
     49 N           1.4208  -13.9396  -42.5500 N.am      5 UNK        -0.5000 
     50 C           0.6731  -13.2947  -41.6452 C.2       4 UNK         0.5000 
     51 O           1.0069  -13.1277  -40.4714 O.2       4 UNK        -0.5000 
     52 CA         -0.6819  -12.7523  -42.1351 C.3       4 UNK         0.1400 
     53 CB         -0.5158  -11.3572  -42.7567 C.3       4 UNK        -0.1800 
     54 N          -1.3017  -13.6407  -43.1172 N.am      4 UNK        -0.5000 
     55 C          -1.9501  -14.7748  -42.8291 C.2       3 UNK         0.5000 
     56 O          -2.1608  -15.1498  -41.6747 O.2       3 UNK        -0.5000 
     57 CA         -2.4501  -15.6255  -44.0232 C.3       3 UNK         0.1400 
     58 CB         -3.5607  -16.6125  -43.6184 C.3       3 UNK        -0.1800 
     59 N          -2.9191  -14.8557  -45.1842 N.am      3 UNK        -0.5000 
     60 C          -2.1541  -14.1768  -46.0469 C.2       2 UNK         0.5000 
     61 O          -0.9415  -14.0089  -45.8965 O.2       2 UNK        -0.5000 
     62 CA         -2.8544  -13.5550  -47.2693 C.3       2 UNK         0.1400 
     63 CB         -3.1275  -12.0623  -47.0314 C.3       2 UNK        -0.1800 
     64 N          -2.0069  -13.7077  -48.4524 N.am      2 UNK        -0.5000 
     65 C          -1.8109  -14.8784  -49.0725 C.2       1 UNK         0.5000 
     66 O          -2.4891  -15.8810  -48.8493 O.2       1 UNK        -0.5000 
     67 C          -1.5053  -22.4989  -47.3127 C.2       11 UNK         0.5000 
     68 O          -2.0697  -23.0670  -48.2472 O.2       11 UNK        -0.5000 
     69 N          -2.1569  -21.7226  -46.4365 N.am      12 UNK        -0.5000 
     70 CA         -3.6106  -21.5611  -46.4005 C.3       12 UNK         0.1400 
     71 CB         -3.9958  -20.2763  -45.6532 C.3       12 UNK        -0.1800 
     72 C          -4.2980  -22.7929  -45.7934 C.2       12 UNK         0.5000 
     73 O          -5.3270  -23.2209  -46.3128 O.2       12 UNK        -0.5000 
     74 N          -3.6879  -23.3901  -44.7594 N.am      13 UNK        -0.5000 
     75 CA         -4.0987  -24.6763  -44.1869 C.3       13 UNK         0.1400 
     76 CB         -3.3191  -24.9378  -42.8896 C.3       13 UNK        -0.1800 
     77 C          -3.9349  -25.8447  -45.1819 C.2       13 UNK         0.5000 
     78 O          -4.7560  -26.7618  -45.1855 O.2       13 UNK        -0.5000 
     79 N          -2.9158  -25.7556  -46.0486 N.am      14 UNK        -0.5000 
     80 CA         -2.6871  -26.6442  -47.1924 C.3       14 UNK         0.1400 
     81 CB         -1.2007  -26.5804  -47.5786 C.3       14 UNK        -0.1800 
     82 C          -3.5809  -26.3254  -48.4144 C.2       14 UNK         0.5000 
     83 O          -3.4526  -26.9962  -49.4383 O.2       14 UNK        -0.5000 
     84 N          -4.4470  -25.3076  -48.2994 N.am      15 UNK        -0.5000 
     85 CA         -5.4379  -24.8075  -49.2597 C.3       15 UNK         0.1400 
     86 CB         -6.3817  -25.9258  -49.7437 C.3       15 UNK        -0.1800 
     87 C          -4.8709  -23.9964  -50.4410 C.2       15 UNK         0.5000 
     88 O          -5.6497  -23.3259  -51.1170 O.2       15 UNK        -0.5000 
     89 N          -3.5518  -24.0248  -50.6662 N.am      16 UNK        -0.5000 
     90 CA         -2.8713  -23.3494  -51.7732 C.3       16 UNK         0.1400 
     91 CB         -1.3922  -23.7666  -51.7950 C.3       16 UNK        -0.1800 
     92 C          -3.0049  -21.8186  -51.7179 C.2       16 UNK         0.5000 
     93 O          -3.4274  -21.2009  -52.6963 O.2       16 UNK        -0.5000 
     94 N          -2.6770  -21.2325  -50.5597 N.am      17 UNK        -0.5000 
     95 CA         -2.7699  -19.7854  -50.3512 C.3       17 UNK         0.1400 
     96 CB         -1.8449  -19.3616  -49.2037 C.3       17 UNK        -0.1800 
     97 C          -4.2211  -19.3201  -50.1215 C.2       17 UNK         0.5000 
     98 O          -4.5424  -18.1743  -50.4300 O.2       17 UNK        -0.5000 
     99 N          -5.0906  -20.2263  -49.6470 N.am      18 UNK        -0.5000 
    100 CA        -6.5289  -19.9889  -49.4888 C.3       18 UNK         0.1400 
    101 CB        -7.1418  -21.0799  -48.5997 C.3       18 UNK        -0.1800 
    102 C         -7.2535  -19.9136  -50.8462 C.2       18 UNK         0.5000 
    103 O         -8.1386  -19.0760  -51.0197 O.2       18 UNK        -0.5000 
    104 N         -6.8232  -20.7513  -51.8008 N.am      19 UNK        -0.5000 
    105 CA        -7.2253  -20.7103  -53.2092 C.3       19 UNK         0.1400 
    106 CB        -6.8803  -22.0602  -53.8586 C.3       19 UNK        -0.1800 
    107 C         -6.5717  -19.5526  -53.9949 C.2       19 UNK         0.5000 
    108 O         -6.9387  -19.3287  -55.1490 O.2       19 UNK        -0.5000 
    109 N         -5.6200  -18.8507  -53.3619 N.am      20 UNK        -0.5000 
    110 CA        -4.8278  -17.7331  -53.8742 C.3       20 UNK         0.1400 
    111 CB        -5.7214  -16.5106  -54.1707 C.3       20 UNK        -0.1800 
    112 C         -3.9285  -18.1371  -55.0586 C.2       20 UNK         0.5000 
    113 O         -3.7954  -17.3760  -56.0196 O.2       20 UNK        -0.5000 
    114 N         -3.3185  -19.3297  -54.9691 N.am      21 UNK        -0.5000 
    115 CA        -2.4887  -19.9384  -56.0143 C.3       21 UNK         0.1400 
    116 CB        -2.0542  -21.3413  -55.5621 C.3       21 UNK        -0.1800 
    117 C         -1.2570  -19.1096  -56.4298 C.2       21 UNK         0.5000 
    118 O         -0.7962  -19.2525  -57.5634 O.2       21 UNK        -0.5000 
    119 N         -0.7606  -18.2586  -55.5246 N.am      22 UNK        -0.5000 
    120 CA         0.3489  -17.3249  -55.7694 C.3       22 UNK         0.1400 
    121 C         -0.1317  -15.8814  -56.1055 C.2       22 UNK         0.5000 
    122 N         -1.4257  -15.6144  -56.2471 N.am      22 UNK        -0.7600 
    123 O          0.6887  -14.9810  -56.2609 O.2       22 UNK        -0.5000 
    124 C124        1.3638  -17.3306  -54.5989 C.3       23 UNK        -0.0398 
    125 S125        2.0712  -18.9884  -54.2854 S.3       23 UNK        -0.2404 
    126 C126        1.1697  -19.5035  -52.7876 C.3       23 UNK        -0.0205 
    127 H127       -2.0896  -14.0341  -52.2636 H         1 UNK         0.0600 
    128 H128       -2.9175  -15.1002  -53.3822 H         1 UNK         0.0600 
    129 H129       -3.4260  -15.0531  -51.6939 H         1 UNK         0.0600 
    130 H130       -0.1297  -16.8265  -50.8311 H         1 UNK         0.3000 
    131 H131       -0.5788  -14.0014  -50.5956 H         1 UNK         0.0600 
    132 H132        0.7359  -14.3306  -48.4231 H         1 UNK         0.0800 
    133 H133        0.7378  -16.0462  -48.7445 H         1 UNK         0.0800 
    134 H134        3.3333  -16.0267  -48.5060 H         1 UNK         0.0800 
    135 H135        4.2878  -15.9455  -49.9652 H         1 UNK         0.0800 
    136 H136        1.9101  -17.0594  -51.8057 H         1 UNK         0.1150 
    137 H137        2.1707  -21.2416  -50.9585 H         1 UNK         0.1150 
    138 H138        3.8349  -18.3912  -48.2245 H         1 UNK         0.1150 
    139 H139        3.6802  -20.6720  -47.5520 H         1 UNK         0.0800 
    140 H140        4.5172  -21.3696  -48.9080 H         1 UNK         0.0800 
    141 H141        0.3064  -21.7491  -49.0903 H         1 UNK         0.0800 
    142 H142        0.9078  -20.7962  -47.7518 H         1 UNK         0.0800 
    143 H143        0.2065  -23.7345  -47.3975 H         1 UNK         0.0600 
    144 H144        1.0475  -21.7107  -45.5522 H         1 UNK         0.3000 
    145 H145       -0.0197  -23.5216  -42.6262 H         1 UNK         0.0600 
    146 H146        2.3377  -23.0011  -42.0525 H         1 UNK         0.0600 
    147 H147        2.2577  -24.3114  -43.2210 H         1 UNK         0.0600 
    148 H148        2.7107  -22.6966  -43.7465 H         1 UNK         0.0600 
    149 H149        1.1117  -20.9205  -42.9196 H         1 UNK         0.3000 
    150 H150       -2.0087  -19.1626  -43.2685 H         1 UNK         0.0600 
    151 H151        0.0522  -19.2672  -41.0060 H         1 UNK         0.0600 
    152 H152       -1.6839  -19.4860  -40.8258 H         1 UNK         0.0600 
    153 H153       -1.0463  -17.9305  -41.3396 H         1 UNK         0.0600 
    154 H154        0.6598  -18.1923  -43.1999 H         1 UNK         0.3000 
    155 H155        1.3444  -18.5306  -46.7083 H         1 UNK         0.0600 
    156 H156        0.8768  -16.0854  -44.9234 H         1 UNK         0.0600 
    157 H157        0.0913  -16.4100  -46.4598 H         1 UNK         0.0600 
    158 H158        1.8236  -16.1147  -46.4106 H         1 UNK         0.0600 
    159 H159        2.8885  -17.5342  -44.5163 H         1 UNK         0.3000 
    160 H160        4.4521  -20.6373  -43.6512 H         1 UNK         0.0600 
    161 H161        5.4371  -18.0647  -45.0051 H         1 UNK         0.0600 
    162 H162        5.6587  -19.6949  -45.6289 H         1 UNK         0.0600 
    163 H163        6.4323  -19.2236  -44.1241 H         1 UNK         0.0600 
    164 H164        4.6985  -17.9668  -42.6345 H         1 UNK         0.3000 
    165 H165        2.1817  -18.2018  -40.1236 H         1 UNK         0.0600 
    166 H166        4.1055  -17.6740  -38.6589 H         1 UNK         0.0600 
    167 H167        5.2402  -18.1874  -39.9080 H         1 UNK         0.0600 
    168 H168        4.1708  -19.3594  -39.1472 H         1 UNK         0.0600 
    169 H169        4.0350  -16.1414  -40.6823 H         1 UNK         0.3000 
    170 H170        3.1855  -14.1393  -41.4269 H         1 UNK         0.0600 
    171 H171        4.5269  -15.0789  -43.3128 H         1 UNK         0.0600 
    172 H172        3.1117  -15.0627  -44.3579 H         1 UNK         0.0600 
    173 H173        3.7981  -13.5500  -43.7740 H         1 UNK         0.0600 
    174 H174        1.0393  -14.0776  -43.4739 H         1 UNK         0.3000 
    175 H175       -1.3428  -12.6638  -41.2702 H         1 UNK         0.0600 
    176 H176        0.1238  -11.3822  -43.6399 H         1 UNK         0.0600 
    177 H177       -1.4791  -10.9412  -43.0527 H         1 UNK         0.0600 
    178 H178       -0.0671  -10.6634  -42.0446 H         1 UNK         0.0600 
    179 H179       -1.1367  -13.4382  -44.0986 H         1 UNK         0.3000 
    180 H180       -1.5928  -16.2193  -44.3439 H         1 UNK         0.0600 
    181 H181       -4.4729  -16.0902  -43.3282 H         1 UNK         0.0600 
    182 H182       -3.2584  -17.2318  -42.7738 H         1 UNK         0.0600 
    183 H183       -3.8048  -17.2880  -44.4387 H         1 UNK         0.0600 
    184 H184       -3.9123  -14.9012  -45.3605 H         1 UNK         0.3000 
    185 H185       -3.8058  -14.0632  -47.4415 H         1 UNK         0.0600 
    186 H186       -3.7738  -11.9172  -46.1648 H         1 UNK         0.0600 
    187 H187       -2.2064  -11.5066  -46.8499 H         1 UNK         0.0600 
    188 H188       -3.6281  -11.6116  -47.8886 H         1 UNK         0.0600 
    189 H189       -1.3937  -12.9319  -48.6566 H         1 UNK         0.3000 
    190 H190       -1.6195  -21.1769  -45.7719 H         1 UNK         0.3000 
    191 H191       -3.9671  -21.4622  -47.4262 H         1 UNK         0.0600 
    192 H192       -5.0755  -20.1243  -45.6752 H         1 UNK         0.0600 
    193 H193       -3.5371  -19.4000  -46.1111 H         1 UNK         0.0600 
    194 H194       -3.6930  -20.3067  -44.6077 H         1 UNK         0.0600 
    195 H195       -2.8772  -22.9404  -44.3449 H         1 UNK         0.3000 
    196 H196       -5.1587  -24.6043  -43.9347 H         1 UNK         0.0600 
    197 H197       -2.2488  -25.0313  -43.0702 H         1 UNK         0.0600 
    198 H198       -3.4668  -24.1305  -42.1719 H         1 UNK         0.0600 
    199 H199       -3.6526  -25.8613  -42.4150 H         1 UNK         0.0600 
    200 H200       -2.2403  -25.0123  -45.9109 H         1 UNK         0.3000 
    201 H201       -2.9121  -27.6671  -46.8842 H         1 UNK         0.0600 
    202 H202       -0.9429  -25.6172  -48.0165 H         1 UNK         0.0600 
    203 H203       -0.9561  -27.3465  -48.3152 H         1 UNK         0.0600 
    204 H204       -0.5559  -26.7436  -46.7147 H         1 UNK         0.0600 
    205 H205       -4.4465  -24.8036  -47.4213 H         1 UNK         0.3000 
    206 H206       -6.0501  -24.1087  -48.6913 H         1 UNK         0.0600 
    207 H207       -6.8110  -26.4719  -48.9037 H         1 UNK         0.0600 
    208 H208       -7.2110  -25.5112  -50.3182 H         1 UNK         0.0600 
    209 H209       -5.8715  -26.6421  -50.3877 H         1 UNK         0.0600 
    210 H210       -2.9730  -24.5452  -50.0224 H         1 UNK         0.3000 
    211 H211       -3.3334  -23.6855  -52.7037 H         1 UNK         0.0600 
    212 H212       -0.8592  -23.2753  -52.6104 H         1 UNK         0.0600 
    213 H213       -1.2901  -24.8419  -51.9419 H         1 UNK         0.0600 
    214 H214       -0.8833  -23.5074  -50.8656 H         1 UNK         0.0600 
    215 H215       -2.3838  -21.8146  -49.7818 H         1 UNK         0.3000 
    216 H216       -2.4102  -19.2862  -51.2536 H         1 UNK         0.0600 
    217 H217       -2.1826  -19.7433  -48.2434 H         1 UNK         0.0600 
    218 H218       -1.8091  -18.2781  -49.1200 H         1 UNK         0.0600 
    219 H219       -0.8222  -19.6950  -49.3723 H         1 UNK         0.0600 
    220 H220       -4.7596  -21.1633  -49.4778 H         1 UNK         0.3000 
    221 H221       -6.6611  -19.0292  -48.9844 H         1 UNK         0.0600 
    222 H222       -6.6417  -21.1329  -47.6330 H         1 UNK         0.0600 
    223 H223       -7.0833  -22.0617  -49.0674 H         1 UNK         0.0600 
    224 H224       -8.1957  -20.8752  -48.4078 H         1 UNK         0.0600 
    225 H225       -6.1509  -21.4725  -51.5568 H         1 UNK         0.3000 
    226 H226       -8.3071  -20.5714  -53.2592 H         1 UNK         0.0600 
    227 H227       -5.8067  -22.2525  -53.8362 H         1 UNK         0.0600 
    228 H228       -7.3780  -22.8832  -53.3455 H         1 UNK         0.0600 
    229 H229       -7.1979  -22.0889  -54.9016 H         1 UNK         0.0600 
    230 H230       -5.3987  -19.1301  -52.4167 H         1 UNK         0.3000 
    231 H231       -4.1582  -17.4535  -53.0631 H         1 UNK         0.0600 
    232 H232       -6.3991  -16.6942  -55.0047 H         1 UNK         0.0600 
    233 H233       -5.1190  -15.6389  -54.4278 H         1 UNK         0.0600 
    234 H234       -6.3219  -16.2434  -53.3012 H         1 UNK         0.0600 
    235 H235       -3.4667  -19.8948  -54.1369 H         1 UNK         0.3000 
    236 H236       -3.1172  -20.0469  -56.9004 H         1 UNK         0.0600 
    237 H237       -2.9167  -21.9726  -55.3473 H         1 UNK         0.0600 
    238 H238       -1.4720  -21.8409  -56.3374 H         1 UNK         0.0600 
    239 H239       -1.4360  -21.2980  -54.6644 H         1 UNK         0.0600 
    240 H240       -1.2167  -18.1700  -54.6237 H         1 UNK         0.3000 
    241 H241        0.8966  -17.6487  -56.6560 H         1 UNK         0.0600 
    242 H242       -1.7099  -14.6758  -56.4768 H         1 UNK         0.3800 
    243 H243       -2.1297  -16.3405  -56.1599 H         1 UNK         0.3800 
    244 H244        0.8883  -16.9415  -53.7008 H         1 UNK         0.0800 
    245 H245        2.1976  -16.6600  -54.8127 H         1 UNK         0.0800 
    246 H246        0.1836  -19.0418  -52.7548 H         1 UNK         0.0800 
    247 H247        0.9885  -20.5769  -52.8592 H         1 UNK         0.0800 
@<TRIPOS>BOND
     1    1    2 1    
     2    1  127 1    
     3    1  128 1    
     4    1  129 1    
     5    2    3 2    
     6    2    4 am   BACKBONE|DICT|INTERRES
     7    4    5 1    
     8    4  130 1    
     9    5    6 1    
    10    5   65 1    
    11    5  131 1    
    12    6    7 1    
    13    6  132 1    
    14    6  133 1    
    15    7    8 1    
    16    8    9 1    
    17    8  134 1    
    18    8  135 1    
    19    9   10 ar   
    20    9   14 ar   
    21   10   11 ar   
    22   10  136 1    
    23   11   12 ar   
    24   11  126 1    
    25   12   13 ar   
    26   12  137 1    
    27   13   14 ar   
    28   13   15 1    
    29   14  138 1    
    30   15   16 1    
    31   15  139 1    
    32   15  140 1    
    33   16   17 1    
    34   17   18 1    
    35   17  141 1    
    36   17  142 1    
    37   18   19 1    
    38   18   67 1    
    39   18  143 1    
    40   19   20 am   BACKBONE|DICT|INTERRES
    41   19  144 1    
    42   20   21 2    
    43   20   22 1    
    44   22   23 1    
    45   22   24 1    
    46   22  145 1    
    47   23  146 1    
    48   23  147 1    
    49   23  148 1    
    50   24   25 am   BACKBONE|DICT|INTERRES
    51   24  149 1    
    52   25   26 2    
    53   25   27 1    
    54   27   28 1    
    55   27   29 1    
    56   27  150 1    
    57   28  151 1    
    58   28  152 1    
    59   28  153 1    
    60   29   30 am   BACKBONE|DICT|INTERRES
    61   29  154 1    
    62   30   31 2    
    63   30   32 1    
    64   32   33 1    
    65   32   34 1    
    66   32  155 1    
    67   33  156 1    
    68   33  157 1    
    69   33  158 1    
    70   34   35 am   BACKBONE|DICT|INTERRES
    71   34  159 1    
    72   35   36 2    
    73   35   37 1    
    74   37   38 1    
    75   37   39 1    
    76   37  160 1    
    77   38  161 1    
    78   38  162 1    
    79   38  163 1    
    80   39   40 am   BACKBONE|DICT|INTERRES
    81   39  164 1    
    82   40   41 2    
    83   40   42 1    
    84   42   43 1    
    85   42   44 1    
    86   42  165 1    
    87   43  166 1    
    88   43  167 1    
    89   43  168 1    
    90   44   45 am   BACKBONE|DICT|INTERRES
    91   44  169 1    
    92   45   46 2    
    93   45   47 1    
    94   47   48 1    
    95   47   49 1    
    96   47  170 1    
    97   48  171 1    
    98   48  172 1    
    99   48  173 1    
   100   49   50 am   BACKBONE|DICT|INTERRES
   101   49  174 1    
   102   50   51 2    
   103   50   52 1    
   104   52   53 1    
   105   52   54 1    
   106   52  175 1    
   107   53  176 1    
   108   53  177 1    
   109   53  178 1    
   110   54   55 am   BACKBONE|DICT|INTERRES
   111   54  179 1    
   112   55   56 2    
   113   55   57 1    
   114   57   58 1    
   115   57   59 1    
   116   57  180 1    
   117   58  181 1    
   118   58  182 1    
   119   58  183 1    
   120   59   60 am   BACKBONE|DICT|INTERRES
   121   59  184 1    
   122   60   61 2    
   123   60   62 1    
   124   62   63 1    
   125   62   64 1    
   126   62  185 1    
   127   63  186 1    
   128   63  187 1    
   129   63  188 1    
   130   64   65 am   BACKBONE|DICT|INTERRES
   131   64  189 1    
   132   65   66 2    
   133   67   68 2    
   134   67   69 am   BACKBONE|DICT|INTERRES
   135   69   70 1    
   136   69  190 1    
   137   70   71 1    
   138   70   72 1    
   139   70  191 1    
   140   71  192 1    
   141   71  193 1    
   142   71  194 1    
   143   72   73 2    
   144   72   74 am   BACKBONE|DICT|INTERRES
   145   74   75 1    
   146   74  195 1    
   147   75   76 1    
   148   75   77 1    
   149   75  196 1    
   150   76  197 1    
   151   76  198 1    
   152   76  199 1    
   153   77   78 2    
   154   77   79 am   BACKBONE|DICT|INTERRES
   155   79   80 1    
   156   79  200 1    
   157   80   81 1    
   158   80   82 1    
   159   80  201 1    
   160   81  202 1    
   161   81  203 1    
   162   81  204 1    
   163   82   83 2    
   164   82   84 am   BACKBONE|DICT|INTERRES
   165   84   85 1    
   166   84  205 1    
   167   85   86 1    
   168   85   87 1    
   169   85  206 1    
   170   86  207 1    
   171   86  208 1    
   172   86  209 1    
   173   87   88 2    
   174   87   89 am   BACKBONE|DICT|INTERRES
   175   89   90 1    
   176   89  210 1    
   177   90   91 1    
   178   90   92 1    
   179   90  211 1    
   180   91  212 1    
   181   91  213 1    
   182   91  214 1    
   183   92   93 2    
   184   92   94 am   BACKBONE|DICT|INTERRES
   185   94   95 1    
   186   94  215 1    
   187   95   96 1    
   188   95   97 1    
   189   95  216 1    
   190   96  217 1    
   191   96  218 1    
   192   96  219 1    
   193   97   98 2    
   194   97   99 am   BACKBONE|DICT|INTERRES
   195   99  100 1    
   196   99  220 1    
   197  100  101 1    
   198  100  102 1    
   199  100  221 1    
   200  101  222 1    
   201  101  223 1    
   202  101  224 1    
   203  102  103 2    
   204  102  104 am   BACKBONE|DICT|INTERRES
   205  104  105 1    
   206  104  225 1    
   207  105  106 1    
   208  105  107 1    
   209  105  226 1    
   210  106  227 1    
   211  106  228 1    
   212  106  229 1    
   213  107  108 2    
   214  107  109 am   BACKBONE|DICT|INTERRES
   215  109  110 1    
   216  109  230 1    
   217  110  111 1    
   218  110  112 1    
   219  110  231 1    
   220  111  232 1    
   221  111  233 1    
   222  111  234 1    
   223  112  113 2    
   224  112  114 am   BACKBONE|DICT|INTERRES
   225  114  115 1    
   226  114  235 1    
   227  115  116 1    
   228  115  117 1    
   229  115  236 1    
   230  116  237 1    
   231  116  238 1    
   232  116  239 1    
   233  117  118 2    
   234  117  119 am   BACKBONE|DICT|INTERRES
   235  119  120 1    
   236  119  240 1    
   237  120  121 1    
   238  120  124 1    
   239  120  241 1    
   240  121  122 am   BACKBONE|DICT|INTERRES
   241  121  123 2    
   242  122  242 1    
   243  122  243 1    
   244  124  125 1    
   245  124  244 1    
   246  124  245 1    
   247  125  126 1    
   248  126  246 1    
   249  126  247 1    
@<TRIPOS>SUBSTRUCTURE
     1 UNK         1 GROUP             0       ****    0 ROOT    
