@<TRIPOS>MOLECULE
3R540
247   249    1
SMALL
USER_CHARGES


@<TRIPOS>ATOM
      1 CA         -4.5885  -13.5762  -49.5873 C.3       0 UNK        -0.1800 
      2 C          -3.1659  -13.0454  -49.6852 C.2       0 UNK         0.5000 
      3 O          -2.9640  -11.9055  -50.1034 O.2       0 UNK        -0.5000 
      4 N          -2.1823  -13.8715  -49.3054 N.am      1 UNK        -0.5000 
      5 CA         -0.7459  -13.5760  -49.4022 C.3       1 UNK         0.1400 
      6 C6          0.1202  -14.8399  -49.1904 C.3       23 UNK        -0.0398 
      7 S7         -0.2159  -16.1610  -50.4032 S.3       23 UNK        -0.2404 
      8 C8         -0.8626  -17.4943  -49.3443 C.3       23 UNK        -0.0205 
      9 C9         -2.3741  -17.4343  -49.2036 C.ar      23 UNK        -0.0193 
     10 C10        -3.1759  -17.9046  -50.2450 C.ar      23 UNK        -0.1150 
     11 C11        -4.5683  -17.8813  -50.1422 C.ar      23 UNK        -0.0193 
     12 C12        -5.1577  -17.4065  -48.9696 C.ar      23 UNK        -0.1150 
     13 C13        -4.3682  -16.9526  -47.9102 C.ar      23 UNK        -0.0193 
     14 C14        -2.9741  -16.9554  -48.0350 C.ar      23 UNK        -0.1150 
     15 C15        -5.0365  -16.4920  -46.6257 C.3       23 UNK        -0.0205 
     16 S16        -5.6363  -17.9127  -45.6541 S.3       23 UNK        -0.2404 
     17 C17        -4.0615  -18.6682  -45.1364 C.3       23 UNK        -0.0398 
     18 CA         -3.6492  -19.9032  -45.9844 C.3       11 UNK         0.1400 
     19 N          -2.1917  -20.0638  -46.0326 N.am      11 UNK        -0.5000 
     20 C          -1.5130  -20.9703  -46.7486 C.2       10 UNK         0.5000 
     21 O          -2.0439  -21.7612  -47.5246 O.2       10 UNK        -0.5000 
     22 CA          0.0105  -21.0540  -46.5198 C.3       10 UNK         0.1400 
     23 CB          0.7804  -20.1104  -47.4506 C.3       10 UNK        -0.1800 
     24 N           0.3988  -20.7968  -45.1329 N.am      10 UNK        -0.5000 
     25 C           0.0799  -21.5942  -44.1040 C.2       9 UNK         0.5000 
     26 O          -0.5429  -22.6494  -44.2258 O.2       9 UNK        -0.5000 
     27 CA          0.4741  -21.1008  -42.7002 C.3       9 UNK         0.1400 
     28 CB          1.9701  -21.3280  -42.4373 C.3       9 UNK        -0.1800 
     29 N           0.1481  -19.6890  -42.4960 N.am      9 UNK        -0.5000 
     30 C          -1.0955  -19.1886  -42.5173 C.2       8 UNK         0.5000 
     31 O          -2.1078  -19.8782  -42.6498 O.2       8 UNK        -0.5000 
     32 CA         -1.2276  -17.6557  -42.4346 C.3       8 UNK         0.1400 
     33 CB         -1.1401  -17.1784  -40.9783 C.3       8 UNK        -0.1800 
     34 N          -0.2365  -16.9480  -43.2509 N.am      8 UNK        -0.5000 
     35 C          -0.1292  -17.0694  -44.5815 C.2       7 UNK         0.5000 
     36 O          -0.8555  -17.7826  -45.2639 O.2       7 UNK        -0.5000 
     37 CA          0.9923  -16.2967  -45.2813 C.3       7 UNK         0.1400 
     38 CB          0.5749  -14.8426  -45.5039 C.3       7 UNK        -0.1800 
     39 N           2.2562  -16.3673  -44.5551 N.am      7 UNK        -0.5000 
     40 C           2.9521  -17.5008  -44.3857 C.2       6 UNK         0.5000 
     41 O           2.6395  -18.5818  -44.8881 O.2       6 UNK        -0.5000 
     42 CA          4.1620  -17.4205  -43.4406 C.3       6 UNK         0.1400 
     43 CB          5.3769  -16.8024  -44.1484 C.3       6 UNK        -0.1800 
     44 N           3.8521  -16.6578  -42.2304 N.am      6 UNK        -0.5000 
     45 C           2.9751  -17.0545  -41.2966 C.2       5 UNK         0.5000 
     46 O           2.3718  -18.1269  -41.3377 O.2       5 UNK        -0.5000 
     47 CA          2.6989  -16.0801  -40.1374 C.3       5 UNK         0.1400 
     48 CB          3.6674  -16.3418  -38.9746 C.3       5 UNK        -0.1800 
     49 N           2.7769  -14.6692  -40.5203 N.am      5 UNK        -0.5000 
     50 C           1.9719  -14.0556  -41.3992 C.2       4 UNK         0.5000 
     51 O           1.0735  -14.6354  -42.0124 O.2       4 UNK        -0.5000 
     52 CA          2.1921  -12.5400  -41.6160 C.3       4 UNK         0.1400 
     53 CB          3.4733  -11.9927  -40.9465 C.3       4 UNK        -0.1800 
     54 N           2.1691  -12.1279  -43.0231 N.am      4 UNK        -0.5000 
     55 C           2.8935  -12.6157  -44.0376 C.2       3 UNK         0.5000 
     56 O           3.5913  -13.6293  -43.9516 O.2       3 UNK        -0.5000 
     57 CA          2.8326  -11.8206  -45.3654 C.3       3 UNK         0.1400 
     58 CB          3.8052  -12.3775  -46.4213 C.3       3 UNK        -0.1800 
     59 N           1.4996  -11.7412  -45.9712 N.am      3 UNK        -0.5000 
     60 C           0.4262  -11.0862  -45.5155 C.2       2 UNK         0.5000 
     61 O           0.4280  -10.4440  -44.4639 O.2       2 UNK        -0.5000 
     62 CA         -0.8765  -11.1457  -46.3491 C.3       2 UNK         0.1400 
     63 CB         -1.1562   -9.7830  -47.0116 C.3       2 UNK        -0.1800 
     64 N          -0.9977  -12.2305  -47.3415 N.am      2 UNK        -0.5000 
     65 C          -0.2783  -12.4448  -48.4554 C.2       1 UNK         0.5000 
     66 O           0.7308  -11.8038  -48.7471 O.2       1 UNK        -0.5000 
     67 C          -4.3450  -21.1792  -45.4697 C.2       11 UNK         0.5000 
     68 O          -5.3216  -21.6306  -46.0689 O.2       11 UNK        -0.5000 
     69 N          -3.8090  -21.7447  -44.3780 N.am      12 UNK        -0.5000 
     70 CA         -4.2808  -22.9888  -43.7724 C.3       12 UNK         0.1400 
     71 CB         -3.6450  -23.1488  -42.3829 C.3       12 UNK        -0.1800 
     72 C          -3.9988  -24.2210  -44.6521 C.2       12 UNK         0.5000 
     73 O          -4.8556  -25.0994  -44.7574 O.2       12 UNK        -0.5000 
     74 N          -2.8085  -24.2612  -45.2656 N.am      13 UNK        -0.5000 
     75 CA         -2.3700  -25.3256  -46.1682 C.3       13 UNK         0.1400 
     76 CB         -0.8609  -25.1815  -46.4042 C.3       13 UNK        -0.1800 
     77 C          -3.1344  -25.3415  -47.5058 C.2       13 UNK         0.5000 
     78 O          -3.4801  -26.4204  -47.9903 O.2       13 UNK        -0.5000 
     79 N          -3.3799  -24.1517  -48.0741 N.am      14 UNK        -0.5000 
     80 CA         -4.0761  -23.8852  -49.3344 C.3       14 UNK         0.1400 
     81 CB         -5.5912  -24.1351  -49.1729 C.3       14 UNK        -0.1800 
     82 C          -3.4326  -24.6499  -50.5076 C.2       14 UNK         0.5000 
     83 O          -2.3258  -24.3020  -50.9192 O.2       14 UNK        -0.5000 
     84 N          -4.1031  -25.7033  -50.9935 N.am      15 UNK        -0.5000 
     85 CA         -3.6255  -26.5997  -52.0477 C.3       15 UNK         0.1400 
     86 CB         -4.7393  -27.5938  -52.4055 C.3       15 UNK        -0.1800 
     87 C          -2.3242  -27.3442  -51.6936 C.2       15 UNK         0.5000 
     88 O          -1.5376  -27.6299  -52.5960 O.2       15 UNK        -0.5000 
     89 N          -2.0795  -27.5956  -50.3984 N.am      16 UNK        -0.5000 
     90 CA         -0.8346  -28.1953  -49.9068 C.3       16 UNK         0.1400 
     91 CB         -1.0473  -28.7397  -48.4861 C.3       16 UNK        -0.1800 
     92 C           0.3713  -27.2327  -49.9677 C.2       16 UNK         0.5000 
     93 O           1.5103  -27.6995  -49.9478 O.2       16 UNK        -0.5000 
     94 N           0.1088  -25.9220  -50.0765 N.am      17 UNK        -0.5000 
     95 CA          1.1051  -24.8789  -50.3330 C.3       17 UNK         0.1400 
     96 CB          0.8361  -23.6881  -49.3956 C.3       17 UNK        -0.1800 
     97 C           1.1074  -24.4386  -51.8122 C.2       17 UNK         0.5000 
     98 O           1.7987  -23.4778  -52.1511 O.2       17 UNK        -0.5000 
     99 N           0.3231  -25.1199  -52.6630 N.am      18 UNK        -0.5000 
    100 CA         0.0995  -24.9206  -54.1020 C.3       18 UNK         0.1400 
    101 CB         1.4083  -25.0800  -54.8979 C.3       18 UNK        -0.1800 
    102 C         -0.6229  -23.6120  -54.4840 C.2       18 UNK         0.5000 
    103 O         -1.4087  -23.6162  -55.4320 O.2       18 UNK        -0.5000 
    104 N         -0.3738  -22.5241  -53.7476 N.am      19 UNK        -0.5000 
    105 CA        -0.8775  -21.1656  -53.9638 C.3       19 UNK         0.1400 
    106 CB         0.0241  -20.1888  -53.1854 C.3       19 UNK        -0.1800 
    107 C         -2.3727  -20.9691  -53.6219 C.2       19 UNK         0.5000 
    108 O         -2.7465  -19.9113  -53.1166 O.2       19 UNK        -0.5000 
    109 N         -3.2199  -21.9604  -53.9277 N.am      20 UNK        -0.5000 
    110 CA        -4.6624  -21.9727  -53.6553 C.3       20 UNK         0.1400 
    111 CB        -5.2220  -23.3622  -53.9926 C.3       20 UNK        -0.1800 
    112 C         -5.4628  -20.8757  -54.3892 C.2       20 UNK         0.5000 
    113 O         -6.5585  -20.5310  -53.9475 O.2       20 UNK        -0.5000 
    114 N         -4.8969  -20.3333  -55.4763 N.am      21 UNK        -0.5000 
    115 CA        -5.4240  -19.1858  -56.2191 C.3       21 UNK         0.1400 
    116 CB        -4.7657  -19.1605  -57.6078 C.3       21 UNK        -0.1800 
    117 C         -5.2169  -17.8350  -55.4979 C.2       21 UNK         0.5000 
    118 O         -5.8168  -16.8408  -55.9084 O.2       21 UNK        -0.5000 
    119 N         -4.3714  -17.8174  -54.4577 N.am      22 UNK        -0.5000 
    120 CA        -4.0226  -16.6580  -53.6176 C.3       22 UNK         0.1400 
    121 C         -3.1136  -15.5990  -54.3129 C.2       22 UNK         0.5000 
    122 N         -2.4925  -15.9005  -55.4469 N.am      22 UNK        -0.7600 
    123 O         -2.9436  -14.4929  -53.8077 O.2       22 UNK        -0.5000 
    124 C124       -5.2369  -16.0032  -52.8918 C.3       23 UNK        -0.0398 
    125 S125       -6.4394  -17.1134  -52.0670 S.3       23 UNK        -0.2404 
    126 C126       -5.4362  -18.4119  -51.2723 C.3       23 UNK        -0.0205 
    127 H127       -5.0458  -13.2628  -48.6488 H         1 UNK         0.0600 
    128 H128       -4.6100  -14.6640  -49.6374 H         1 UNK         0.0600 
    129 H129       -5.1941  -13.1940  -50.4093 H         1 UNK         0.0600 
    130 H130       -2.4161  -14.8109  -49.0159 H         1 UNK         0.3000 
    131 H131       -0.5627  -13.2193  -50.4182 H         1 UNK         0.0600 
    132 H132       -0.0199  -15.2301  -48.1848 H         1 UNK         0.0800 
    133 H133        1.1805  -14.5934  -49.2734 H         1 UNK         0.0800 
    134 H134       -0.3847  -17.4663  -48.3661 H         1 UNK         0.0800 
    135 H135       -0.5869  -18.4511  -49.7899 H         1 UNK         0.0800 
    136 H136       -2.7039  -18.3014  -51.1314 H         1 UNK         0.1150 
    137 H137       -6.2346  -17.4076  -48.8744 H         1 UNK         0.1150 
    138 H138       -2.3583  -16.6168  -47.2136 H         1 UNK         0.1150 
    139 H139       -4.3553  -15.8889  -46.0235 H         1 UNK         0.0800 
    140 H140       -5.8815  -15.8465  -46.8694 H         1 UNK         0.0800 
    141 H141       -4.1273  -18.9102  -44.0746 H         1 UNK         0.0800 
    142 H142       -3.3039  -17.8916  -45.1990 H         1 UNK         0.0800 
    143 H143       -3.9696  -19.7445  -47.0163 H         1 UNK         0.0600 
    144 H144       -1.6526  -19.3845  -45.5005 H         1 UNK         0.3000 
    145 H145        0.3175  -22.0716  -46.7645 H         1 UNK         0.0600 
    146 H146        1.8511  -20.3106  -47.4095 H         1 UNK         0.0600 
    147 H147        0.6315  -19.0693  -47.1712 H         1 UNK         0.0600 
    148 H148        0.4656  -20.2353  -48.4871 H         1 UNK         0.0600 
    149 H149        0.9235  -19.9483  -44.9539 H         1 UNK         0.3000 
    150 H150       -0.0926  -21.6845  -41.9717 H         1 UNK         0.0600 
    151 H151        2.2369  -22.3763  -42.5763 H         1 UNK         0.0600 
    152 H152        2.2348  -21.0569  -41.4151 H         1 UNK         0.0600 
    153 H153        2.5928  -20.7369  -43.1097 H         1 UNK         0.0600 
    154 H154        0.9278  -19.0586  -42.3333 H         1 UNK         0.3000 
    155 H155       -2.2143  -17.3878  -42.8175 H         1 UNK         0.0600 
    156 H156       -1.9384  -17.6167  -40.3783 H         1 UNK         0.0600 
    157 H157       -1.2369  -16.0947  -40.9089 H         1 UNK         0.0600 
    158 H158       -0.1944  -17.4629  -40.5188 H         1 UNK         0.0600 
    159 H159        0.3702  -16.2879  -42.7727 H         1 UNK         0.3000 
    160 H160        1.1428  -16.7537  -46.2616 H         1 UNK         0.0600 
    161 H161        0.5437  -14.2791  -44.5725 H         1 UNK         0.0600 
    162 H162       -0.4192  -14.7792  -45.9471 H         1 UNK         0.0600 
    163 H163        1.2712  -14.3561  -46.1833 H         1 UNK         0.0600 
    164 H164        2.5827  -15.5187  -44.1066 H         1 UNK         0.3000 
    165 H165        4.4221  -18.4389  -43.1437 H         1 UNK         0.0600 
    166 H166        6.2527  -16.8018  -43.4993 H         1 UNK         0.0600 
    167 H167        5.6359  -17.3700  -45.0431 H         1 UNK         0.0600 
    168 H168        5.1874  -15.7737  -44.4566 H         1 UNK         0.0600 
    169 H169        4.2724  -15.7434  -42.1449 H         1 UNK         0.3000 
    170 H170        1.6852  -16.2688  -39.7809 H         1 UNK         0.0600 
    171 H171        4.7011  -16.1384  -39.2572 H         1 UNK         0.0600 
    172 H172        3.4259  -15.7207  -38.1118 H         1 UNK         0.0600 
    173 H173        3.6145  -17.3817  -38.6491 H         1 UNK         0.0600 
    174 H174        3.4906  -14.1199  -40.0639 H         1 UNK         0.3000 
    175 H175        1.3396  -12.0485  -41.1457 H         1 UNK         0.0600 
    176 H176        4.3727  -12.4672  -41.3416 H         1 UNK         0.0600 
    177 H177        3.5698  -10.9196  -41.1124 H         1 UNK         0.0600 
    178 H178        3.4577  -12.1416  -39.8662 H         1 UNK         0.0600 
    179 H179        1.5488  -11.3537  -43.2461 H         1 UNK         0.3000 
    180 H180        3.1503  -10.8023  -45.1334 H         1 UNK         0.0600 
    181 H181        3.8110  -11.7581  -47.3184 H         1 UNK         0.0600 
    182 H182        3.5404  -13.3933  -46.7174 H         1 UNK         0.0600 
    183 H183        4.8268  -12.4023  -46.0398 H         1 UNK         0.0600 
    184 H184        1.4078  -12.1525  -46.8918 H         1 UNK         0.3000 
    185 H185       -1.6761  -11.3255  -45.6290 H         1 UNK         0.0600 
    186 H186       -2.1148   -9.7868  -47.5308 H         1 UNK         0.0600 
    187 H187       -1.1932   -8.9855  -46.2684 H         1 UNK         0.0600 
    188 H188       -0.3846   -9.5178  -47.7349 H         1 UNK         0.0600 
    189 H189       -1.7919  -12.8384  -47.2002 H         1 UNK         0.3000 
    190 H190       -3.0227  -21.2875  -43.9285 H         1 UNK         0.3000 
    191 H191       -5.3624  -22.9125  -43.6428 H         1 UNK         0.0600 
    192 H192       -3.8973  -22.3086  -41.7356 H         1 UNK         0.0600 
    193 H193       -2.5577  -23.2096  -42.4404 H         1 UNK         0.0600 
    194 H194       -3.9999  -24.0563  -41.8931 H         1 UNK         0.0600 
    195 H195       -2.1367  -23.5259  -45.0687 H         1 UNK         0.3000 
    196 H196       -2.5464  -26.2845  -45.6766 H         1 UNK         0.0600 
    197 H197       -0.3031  -25.3121  -45.4768 H         1 UNK         0.0600 
    198 H198       -0.6238  -24.1952  -46.7973 H         1 UNK         0.0600 
    199 H199       -0.4886  -25.9171  -47.1160 H         1 UNK         0.0600 
    200 H200       -2.9736  -23.3237  -47.6423 H         1 UNK         0.3000 
    201 H201       -3.9356  -22.8242  -49.5471 H         1 UNK         0.0600 
    202 H202       -6.0066  -23.4847  -48.4026 H         1 UNK         0.0600 
    203 H203       -5.8151  -25.1630  -48.8859 H         1 UNK         0.0600 
    204 H204       -6.1274  -23.9190  -50.0979 H         1 UNK         0.0600 
    205 H205       -4.9849  -25.9435  -50.5644 H         1 UNK         0.3000 
    206 H206       -3.4126  -25.9932  -52.9298 H         1 UNK         0.0600 
    207 H207       -5.0167  -28.2115  -51.5503 H         1 UNK         0.0600 
    208 H208       -5.6339  -27.0758  -52.7516 H         1 UNK         0.0600 
    209 H209       -4.4232  -28.2639  -53.2062 H         1 UNK         0.0600 
    210 H210       -2.7522  -27.2994  -49.6975 H         1 UNK         0.3000 
    211 H211       -0.5933  -29.0453  -50.5488 H         1 UNK         0.0600 
    212 H212       -1.3125  -27.9539  -47.7818 H         1 UNK         0.0600 
    213 H213       -0.1428  -29.2216  -48.1128 H         1 UNK         0.0600 
    214 H214       -1.8426  -29.4849  -48.4669 H         1 UNK         0.0600 
    215 H215       -0.8566  -25.6162  -50.1223 H         1 UNK         0.3000 
    216 H216        2.1093  -25.2497  -50.1190 H         1 UNK         0.0600 
    217 H217        1.4980  -22.8485  -49.6113 H         1 UNK         0.0600 
    218 H218        1.0176  -23.9694  -48.3600 H         1 UNK         0.0600 
    219 H219       -0.1899  -23.3268  -49.4769 H         1 UNK         0.0600 
    220 H220       -0.2127  -25.8834  -52.2715 H         1 UNK         0.3000 
    221 H221       -0.5638  -25.7319  -54.4054 H         1 UNK         0.0600 
    222 H222        2.1230  -24.2880  -54.6730 H         1 UNK         0.0600 
    223 H223        1.8863  -26.0357  -54.6827 H         1 UNK         0.0600 
    224 H224        1.2161  -25.0475  -55.9711 H         1 UNK         0.0600 
    225 H225        0.3060  -22.6344  -53.0017 H         1 UNK         0.3000 
    226 H226       -0.7721  -20.9374  -55.0261 H         1 UNK         0.0600 
    227 H227        1.0708  -20.3081  -53.4660 H         1 UNK         0.0600 
    228 H228       -0.2456  -19.1512  -53.3875 H         1 UNK         0.0600 
    229 H229       -0.0539  -20.3455  -52.1086 H         1 UNK         0.0600 
    230 H230       -2.8317  -22.7699  -54.4009 H         1 UNK         0.3000 
    231 H231       -4.7949  -21.8027  -52.5847 H         1 UNK         0.0600 
    232 H232       -6.2929  -23.4148  -53.7920 H         1 UNK         0.0600 
    233 H233       -4.7448  -24.1328  -53.3906 H         1 UNK         0.0600 
    234 H234       -5.0702  -23.6127  -55.0432 H         1 UNK         0.0600 
    235 H235       -4.0030  -20.6944  -55.7748 H         1 UNK         0.3000 
    236 H236       -6.4992  -19.3224  -56.3524 H         1 UNK         0.0600 
    237 H237       -3.6846  -19.0339  -57.5391 H         1 UNK         0.0600 
    238 H238       -4.9623  -20.0831  -58.1544 H         1 UNK         0.0600 
    239 H239       -5.1547  -18.3391  -58.2112 H         1 UNK         0.0600 
    240 H240       -3.9155  -18.6823  -54.1879 H         1 UNK         0.3000 
    241 H241       -3.3747  -17.0664  -52.8473 H         1 UNK         0.0600 
    242 H242       -2.6140  -16.8044  -55.8732 H         1 UNK         0.3800 
    243 H243       -1.9001  -15.2130  -55.8854 H         1 UNK         0.3800 
    244 H244       -5.8010  -15.3919  -53.5977 H         1 UNK         0.0800 
    245 H245       -4.8739  -15.3110  -52.1308 H         1 UNK         0.0800 
    246 H246       -6.1122  -19.1655  -50.8664 H         1 UNK         0.0800 
    247 H247       -4.8384  -18.9297  -52.0186 H         1 UNK         0.0800 
@<TRIPOS>BOND
     1    1    2 1    
     2    1  127 1    
     3    1  128 1    
     4    1  129 1    
     5    2    3 2    
     6    2    4 am   BACKBONE|DICT|INTERRES
     7    4    5 1    
     8    4  130 1    
     9    5    6 1    
    10    5   65 1    
    11    5  131 1    
    12    6    7 1    
    13    6  132 1    
    14    6  133 1    
    15    7    8 1    
    16    8    9 1    
    17    8  134 1    
    18    8  135 1    
    19    9   10 ar   
    20    9   14 ar   
    21   10   11 ar   
    22   10  136 1    
    23   11   12 ar   
    24   11  126 1    
    25   12   13 ar   
    26   12  137 1    
    27   13   14 ar   
    28   13   15 1    
    29   14  138 1    
    30   15   16 1    
    31   15  139 1    
    32   15  140 1    
    33   16   17 1    
    34   17   18 1    
    35   17  141 1    
    36   17  142 1    
    37   18   19 1    
    38   18   67 1    
    39   18  143 1    
    40   19   20 am   BACKBONE|DICT|INTERRES
    41   19  144 1    
    42   20   21 2    
    43   20   22 1    
    44   22   23 1    
    45   22   24 1    
    46   22  145 1    
    47   23  146 1    
    48   23  147 1    
    49   23  148 1    
    50   24   25 am   BACKBONE|DICT|INTERRES
    51   24  149 1    
    52   25   26 2    
    53   25   27 1    
    54   27   28 1    
    55   27   29 1    
    56   27  150 1    
    57   28  151 1    
    58   28  152 1    
    59   28  153 1    
    60   29   30 am   BACKBONE|DICT|INTERRES
    61   29  154 1    
    62   30   31 2    
    63   30   32 1    
    64   32   33 1    
    65   32   34 1    
    66   32  155 1    
    67   33  156 1    
    68   33  157 1    
    69   33  158 1    
    70   34   35 am   BACKBONE|DICT|INTERRES
    71   34  159 1    
    72   35   36 2    
    73   35   37 1    
    74   37   38 1    
    75   37   39 1    
    76   37  160 1    
    77   38  161 1    
    78   38  162 1    
    79   38  163 1    
    80   39   40 am   BACKBONE|DICT|INTERRES
    81   39  164 1    
    82   40   41 2    
    83   40   42 1    
    84   42   43 1    
    85   42   44 1    
    86   42  165 1    
    87   43  166 1    
    88   43  167 1    
    89   43  168 1    
    90   44   45 am   BACKBONE|DICT|INTERRES
    91   44  169 1    
    92   45   46 2    
    93   45   47 1    
    94   47   48 1    
    95   47   49 1    
    96   47  170 1    
    97   48  171 1    
    98   48  172 1    
    99   48  173 1    
   100   49   50 am   BACKBONE|DICT|INTERRES
   101   49  174 1    
   102   50   51 2    
   103   50   52 1    
   104   52   53 1    
   105   52   54 1    
   106   52  175 1    
   107   53  176 1    
   108   53  177 1    
   109   53  178 1    
   110   54   55 am   BACKBONE|DICT|INTERRES
   111   54  179 1    
   112   55   56 2    
   113   55   57 1    
   114   57   58 1    
   115   57   59 1    
   116   57  180 1    
   117   58  181 1    
   118   58  182 1    
   119   58  183 1    
   120   59   60 am   BACKBONE|DICT|INTERRES
   121   59  184 1    
   122   60   61 2    
   123   60   62 1    
   124   62   63 1    
   125   62   64 1    
   126   62  185 1    
   127   63  186 1    
   128   63  187 1    
   129   63  188 1    
   130   64   65 am   BACKBONE|DICT|INTERRES
   131   64  189 1    
   132   65   66 2    
   133   67   68 2    
   134   67   69 am   BACKBONE|DICT|INTERRES
   135   69   70 1    
   136   69  190 1    
   137   70   71 1    
   138   70   72 1    
   139   70  191 1    
   140   71  192 1    
   141   71  193 1    
   142   71  194 1    
   143   72   73 2    
   144   72   74 am   BACKBONE|DICT|INTERRES
   145   74   75 1    
   146   74  195 1    
   147   75   76 1    
   148   75   77 1    
   149   75  196 1    
   150   76  197 1    
   151   76  198 1    
   152   76  199 1    
   153   77   78 2    
   154   77   79 am   BACKBONE|DICT|INTERRES
   155   79   80 1    
   156   79  200 1    
   157   80   81 1    
   158   80   82 1    
   159   80  201 1    
   160   81  202 1    
   161   81  203 1    
   162   81  204 1    
   163   82   83 2    
   164   82   84 am   BACKBONE|DICT|INTERRES
   165   84   85 1    
   166   84  205 1    
   167   85   86 1    
   168   85   87 1    
   169   85  206 1    
   170   86  207 1    
   171   86  208 1    
   172   86  209 1    
   173   87   88 2    
   174   87   89 am   BACKBONE|DICT|INTERRES
   175   89   90 1    
   176   89  210 1    
   177   90   91 1    
   178   90   92 1    
   179   90  211 1    
   180   91  212 1    
   181   91  213 1    
   182   91  214 1    
   183   92   93 2    
   184   92   94 am   BACKBONE|DICT|INTERRES
   185   94   95 1    
   186   94  215 1    
   187   95   96 1    
   188   95   97 1    
   189   95  216 1    
   190   96  217 1    
   191   96  218 1    
   192   96  219 1    
   193   97   98 2    
   194   97   99 am   BACKBONE|DICT|INTERRES
   195   99  100 1    
   196   99  220 1    
   197  100  101 1    
   198  100  102 1    
   199  100  221 1    
   200  101  222 1    
   201  101  223 1    
   202  101  224 1    
   203  102  103 2    
   204  102  104 am   BACKBONE|DICT|INTERRES
   205  104  105 1    
   206  104  225 1    
   207  105  106 1    
   208  105  107 1    
   209  105  226 1    
   210  106  227 1    
   211  106  228 1    
   212  106  229 1    
   213  107  108 2    
   214  107  109 am   BACKBONE|DICT|INTERRES
   215  109  110 1    
   216  109  230 1    
   217  110  111 1    
   218  110  112 1    
   219  110  231 1    
   220  111  232 1    
   221  111  233 1    
   222  111  234 1    
   223  112  113 2    
   224  112  114 am   BACKBONE|DICT|INTERRES
   225  114  115 1    
   226  114  235 1    
   227  115  116 1    
   228  115  117 1    
   229  115  236 1    
   230  116  237 1    
   231  116  238 1    
   232  116  239 1    
   233  117  118 2    
   234  117  119 am   BACKBONE|DICT|INTERRES
   235  119  120 1    
   236  119  240 1    
   237  120  121 1    
   238  120  124 1    
   239  120  241 1    
   240  121  122 am   BACKBONE|DICT|INTERRES
   241  121  123 2    
   242  122  242 1    
   243  122  243 1    
   244  124  125 1    
   245  124  244 1    
   246  124  245 1    
   247  125  126 1    
   248  126  246 1    
   249  126  247 1    
@<TRIPOS>SUBSTRUCTURE
     1 UNK         1 GROUP             0       ****    0 ROOT    
