@<TRIPOS>MOLECULE
3R540
247   249    1
SMALL
USER_CHARGES


@<TRIPOS>ATOM
      1 CA          3.5640   -9.9906  -48.3359 C.3       0 UNK        -0.1800 
      2 C           2.5424  -11.0148  -47.8615 C.2       0 UNK         0.5000 
      3 O           2.9015  -11.9519  -47.1471 O.2       0 UNK        -0.5000 
      4 N           1.2749  -10.8407  -48.2607 N.am      1 UNK        -0.5000 
      5 CA          0.1451  -11.7147  -47.9306 C.3       1 UNK         0.1400 
      6 C6         -1.1299  -11.3142  -48.7181 C.3       23 UNK        -0.0398 
      7 S7         -2.3169  -12.6944  -48.8429 S.3       23 UNK        -0.2404 
      8 C8         -1.9612  -13.3154  -50.5162 C.3       23 UNK        -0.0205 
      9 C9         -2.1416  -14.8215  -50.5838 C.ar      23 UNK        -0.0193 
     10 C10        -3.3127  -15.3833  -51.1006 C.ar      23 UNK        -0.1150 
     11 C11        -3.4596  -16.7725  -51.1703 C.ar      23 UNK        -0.0193 
     12 C12        -2.4379  -17.5987  -50.6880 C.ar      23 UNK        -0.1150 
     13 C13        -1.2593  -17.0458  -50.1780 C.ar      23 UNK        -0.0193 
     14 C14        -1.1161  -15.6572  -50.1365 C.ar      23 UNK        -0.1150 
     15 C15        -0.1260  -17.9441  -49.7024 C.3       23 UNK        -0.0205 
     16 S16         0.3410  -17.6374  -47.9664 S.3       23 UNK        -0.2404 
     17 C17        -1.1564  -18.1830  -47.0794 C.3       23 UNK        -0.0398 
     18 CA         -1.1714  -19.7116  -46.8570 C.3       11 UNK         0.1400 
     19 N          -0.1102  -20.1741  -45.9606 N.am      11 UNK        -0.5000 
     20 C           0.2463  -21.4576  -45.8203 C.2       10 UNK         0.5000 
     21 O          -0.2813  -22.3836  -46.4371 O.2       10 UNK        -0.5000 
     22 CA          1.3402  -21.7662  -44.7840 C.3       10 UNK         0.1400 
     23 CB          2.7296  -21.3980  -45.3252 C.3       10 UNK        -0.1800 
     24 N           1.1078  -21.0937  -43.5052 N.am      10 UNK        -0.5000 
     25 C           0.0479  -21.3198  -42.7153 C.2       9 UNK         0.5000 
     26 O          -0.8333  -22.1406  -42.9719 O.2       9 UNK        -0.5000 
     27 CA         -0.0707  -20.4606  -41.4440 C.3       9 UNK         0.1400 
     28 CB          0.8578  -20.9887  -40.3405 C.3       9 UNK        -0.1800 
     29 N           0.2064  -19.0445  -41.6854 N.am      9 UNK        -0.5000 
     30 C          -0.5140  -18.2544  -42.4949 C.2       8 UNK         0.5000 
     31 O          -1.5103  -18.6282  -43.1114 O.2       8 UNK        -0.5000 
     32 CA         -0.0019  -16.8182  -42.6975 C.3       8 UNK         0.1400 
     33 CB         -0.3180  -15.9453  -41.4734 C.3       8 UNK        -0.1800 
     34 N           1.4324  -16.7717  -42.9762 N.am      8 UNK        -0.5000 
     35 C           2.0362  -17.3847  -44.0041 C.2       7 UNK         0.5000 
     36 O           1.4413  -18.0377  -44.8584 O.2       7 UNK        -0.5000 
     37 CA          3.5697  -17.3044  -44.0479 C.3       7 UNK         0.1400 
     38 CB          4.0374  -15.9438  -44.5892 C.3       7 UNK        -0.1800 
     39 N           4.1579  -17.5502  -42.7314 N.am      7 UNK        -0.5000 
     40 C           4.1199  -18.7305  -42.0952 C.2       6 UNK         0.5000 
     41 O           3.6219  -19.7511  -42.5701 O.2       6 UNK        -0.5000 
     42 CA          4.6984  -18.7605  -40.6693 C.3       6 UNK         0.1400 
     43 CB          6.2271  -18.9054  -40.7051 C.3       6 UNK        -0.1800 
     44 N           4.3397  -17.5692  -39.8984 N.am      6 UNK        -0.5000 
     45 C           3.0922  -17.2693  -39.5100 C.2       5 UNK         0.5000 
     46 O           2.1162  -17.9859  -39.7298 O.2       5 UNK        -0.5000 
     47 CA          2.8973  -15.9172  -38.7994 C.3       5 UNK         0.1400 
     48 CB          3.1750  -16.0522  -37.2949 C.3       5 UNK        -0.1800 
     49 N           3.7252  -14.8410  -39.3544 N.am      5 UNK        -0.5000 
     50 C           3.6404  -14.3942  -40.6136 C.2       4 UNK         0.5000 
     51 O           2.8882  -14.8780  -41.4633 O.2       4 UNK        -0.5000 
     52 CA          4.5745  -13.2440  -41.0053 C.3       4 UNK         0.1400 
     53 CB          5.9393  -13.7857  -41.4598 C.3       4 UNK        -0.1800 
     54 N           3.9539  -12.5217  -42.1087 N.am      4 UNK        -0.5000 
     55 C           3.8312  -11.1952  -42.2086 C.2       3 UNK         0.5000 
     56 O           4.3414  -10.4010  -41.4169 O.2       3 UNK        -0.5000 
     57 CA          2.9935  -10.6549  -43.3858 C.3       3 UNK         0.1400 
     58 CB          3.9023  -10.0327  -44.4558 C.3       3 UNK        -0.1800 
     59 N           2.1245  -11.6535  -44.0200 N.am      3 UNK        -0.5000 
     60 C           1.0069  -12.1533  -43.4693 C.2       2 UNK         0.5000 
     61 O           0.6227  -11.8574  -42.3369 O.2       2 UNK        -0.5000 
     62 CA          0.1877  -13.1433  -44.3306 C.3       2 UNK         0.1400 
     63 CB         -1.2873  -13.2529  -43.8878 C.3       2 UNK        -0.1800 
     64 N           0.2677  -12.8746  -45.7720 N.am      2 UNK        -0.5000 
     65 C          -0.1001  -11.7500  -46.4061 C.2       1 UNK         0.5000 
     66 O          -0.5734  -10.7586  -45.8463 O.2       1 UNK        -0.5000 
     67 C          -2.5642  -20.1918  -46.4112 C.2       11 UNK         0.5000 
     68 O          -3.3710  -20.5304  -47.2736 O.2       11 UNK        -0.5000 
     69 N          -2.8229  -20.2588  -45.0974 N.am      12 UNK        -0.5000 
     70 CA         -4.0579  -20.8144  -44.5389 C.3       12 UNK         0.1400 
     71 CB         -4.1348  -20.5124  -43.0348 C.3       12 UNK        -0.1800 
     72 C          -4.2009  -22.3258  -44.7987 C.2       12 UNK         0.5000 
     73 O          -5.3051  -22.7862  -45.0906 O.2       12 UNK        -0.5000 
     74 N          -3.0860  -23.0636  -44.7029 N.am      13 UNK        -0.5000 
     75 CA         -3.0176  -24.4967  -44.9826 C.3       13 UNK         0.1400 
     76 CB         -1.6992  -25.0657  -44.4353 C.3       13 UNK        -0.1800 
     77 C          -3.1754  -24.8158  -46.4806 C.2       13 UNK         0.5000 
     78 O          -3.9299  -25.7252  -46.8282 O.2       13 UNK        -0.5000 
     79 N          -2.4626  -24.0707  -47.3370 N.am      14 UNK        -0.5000 
     80 CA         -2.4870  -24.2403  -48.7910 C.3       14 UNK         0.1400 
     81 CB         -1.2809  -23.5148  -49.4071 C.3       14 UNK        -0.1800 
     82 C          -3.7918  -23.7426  -49.4363 C.2       14 UNK         0.5000 
     83 O          -4.2867  -24.3728  -50.3765 O.2       14 UNK        -0.5000 
     84 N          -4.3048  -22.6096  -48.9309 N.am      15 UNK        -0.5000 
     85 CA         -5.4627  -21.8583  -49.4173 C.3       15 UNK         0.1400 
     86 CB         -6.7626  -22.5911  -49.0143 C.3       15 UNK        -0.1800 
     87 C          -5.3285  -21.5654  -50.9259 C.2       15 UNK         0.5000 
     88 O          -4.2638  -21.1257  -51.3673 O.2       15 UNK        -0.5000 
     89 N          -6.3749  -21.8887  -51.6877 N.am      16 UNK        -0.5000 
     90 CA         -6.3232  -22.1163  -53.1274 C.3       16 UNK         0.1400 
     91 CB         -7.1523  -21.0395  -53.8505 C.3       16 UNK        -0.1800 
     92 C          -6.8055  -23.5544  -53.4010 C.2       16 UNK         0.5000 
     93 O          -7.5804  -23.7814  -54.3306 O.2       16 UNK        -0.5000 
     94 N          -6.3801  -24.4893  -52.5373 N.am      17 UNK        -0.5000 
     95 CA         -6.7342  -25.9081  -52.5799 C.3       17 UNK         0.1400 
     96 CB         -7.2676  -26.3262  -51.2005 C.3       17 UNK        -0.1800 
     97 C          -5.5279  -26.7776  -52.9714 C.2       17 UNK         0.5000 
     98 O          -5.7159  -27.8281  -53.5857 O.2       17 UNK        -0.5000 
     99 N          -4.3114  -26.3281  -52.6274 N.am      18 UNK        -0.5000 
    100 CA        -3.0447  -26.9909  -52.9547 C.3       18 UNK         0.1400 
    101 CB        -1.9281  -26.3593  -52.1095 C.3       18 UNK        -0.1800 
    102 C         -2.6774  -26.9421  -54.4532 C.2       18 UNK         0.5000 
    103 O         -1.8261  -27.7162  -54.8932 O.2       18 UNK        -0.5000 
    104 N         -3.3165  -26.0419  -55.2050 N.am      19 UNK        -0.5000 
    105 CA        -3.1758  -25.8536  -56.6429 C.3       19 UNK         0.1400 
    106 CB        -1.9903  -24.9085  -56.9216 C.3       19 UNK        -0.1800 
    107 C         -4.5029  -25.3053  -57.1949 C.2       19 UNK         0.5000 
    108 O         -5.4624  -25.1384  -56.4384 O.2       19 UNK        -0.5000 
    109 N         -4.5367  -25.0195  -58.5032 N.am      20 UNK        -0.5000 
    110 CA        -5.6768  -24.4035  -59.1951 C.3       20 UNK         0.1400 
    111 CB        -5.4909  -24.5887  -60.7096 C.3       20 UNK        -0.1800 
    112 C         -5.8785  -22.9095  -58.8537 C.2       20 UNK         0.5000 
    113 O         -6.9338  -22.3531  -59.1604 O.2       20 UNK        -0.5000 
    114 N         -4.8675  -22.2935  -58.2344 N.am      21 UNK        -0.5000 
    115 CA        -4.8640  -20.9366  -57.7007 C.3       21 UNK         0.1400 
    116 CB        -4.0634  -20.0308  -58.6549 C.3       21 UNK        -0.1800 
    117 C         -4.2598  -20.9719  -56.2844 C.2       21 UNK         0.5000 
    118 O         -4.0117  -22.0581  -55.7545 O.2       21 UNK        -0.5000 
    119 N         -4.0463  -19.7880  -55.6963 N.am      22 UNK        -0.5000 
    120 CA        -3.4302  -19.5717  -54.3756 C.3       22 UNK         0.1400 
    121 C         -2.0951  -20.3404  -54.1562 C.2       22 UNK         0.5000 
    122 N         -1.9547  -21.0280  -53.0311 N.am      22 UNK        -0.7600 
    123 O         -1.1782  -20.2719  -54.9718 O.2       22 UNK        -0.5000 
    124 C124       -3.2123  -18.0612  -54.1108 C.3       23 UNK        -0.0398 
    125 S125       -4.7472  -17.2089  -53.6115 S.3       23 UNK        -0.2404 
    126 C126       -4.7087  -17.3840  -51.7926 C.3       23 UNK        -0.0205 
    127 H127        4.2725  -10.4601  -49.0182 H         1 UNK         0.0600 
    128 H128        4.1224   -9.5896  -47.4908 H         1 UNK         0.0600 
    129 H129        3.0913   -9.1570  -48.8558 H         1 UNK         0.0600 
    130 H130        1.0492  -10.0304  -48.8195 H         1 UNK         0.3000 
    131 H131        0.4352  -12.7164  -48.2566 H         1 UNK         0.0600 
    132 H132       -1.6287  -10.4558  -48.2644 H         1 UNK         0.0800 
    133 H133       -0.8680  -10.9925  -49.7270 H         1 UNK         0.0800 
    134 H134       -2.6107  -12.8132  -51.2349 H         1 UNK         0.0800 
    135 H135       -0.9371  -13.0713  -50.8028 H         1 UNK         0.0800 
    136 H136       -4.1027  -14.7423  -51.4662 H         1 UNK         0.1150 
    137 H137       -2.5498  -18.6734  -50.7387 H         1 UNK         0.1150 
    138 H138       -0.2053  -15.2255  -49.7454 H         1 UNK         0.1150 
    139 H139       -0.3825  -18.9969  -49.8282 H         1 UNK         0.0800 
    140 H140        0.7457  -17.7669  -50.3335 H         1 UNK         0.0800 
    141 H141       -1.1992  -17.6605  -46.1221 H         1 UNK         0.0800 
    142 H142       -2.0332  -17.8568  -47.6416 H         1 UNK         0.0800 
    143 H143       -0.9923  -20.1837  -47.8252 H         1 UNK         0.0600 
    144 H144        0.3977  -19.4548  -45.4492 H         1 UNK         0.3000 
    145 H145        1.3251  -22.8423  -44.5996 H         1 UNK         0.0600 
    146 H146        3.5144  -21.6990  -44.6311 H         1 UNK         0.0600 
    147 H147        2.9245  -21.8990  -46.2741 H         1 UNK         0.0600 
    148 H148        2.8267  -20.3253  -45.4938 H         1 UNK         0.0600 
    149 H149        1.8083  -20.4205  -43.2116 H         1 UNK         0.3000 
    150 H150       -1.0995  -20.5399  -41.0870 H         1 UNK         0.0600 
    151 H151        0.6663  -22.0434  -40.1390 H         1 UNK         0.0600 
    152 H152        0.7068  -20.4465  -39.4069 H         1 UNK         0.0600 
    153 H153        1.9083  -20.8910  -40.6166 H         1 UNK         0.0600 
    154 H154        0.9954  -18.6455  -41.1848 H         1 UNK         0.3000 
    155 H155       -0.5175  -16.3965  -43.5626 H         1 UNK         0.0600 
    156 H156        0.0757  -14.9360  -41.5908 H         1 UNK         0.0600 
    157 H157        0.1088  -16.3590  -40.5602 H         1 UNK         0.0600 
    158 H158       -1.3949  -15.8631  -41.3231 H         1 UNK         0.0600 
    159 H159        2.0020  -16.2274  -42.3321 H         1 UNK         0.3000 
    160 H160        3.9264  -18.0801  -44.7288 H         1 UNK         0.0600 
    161 H161        3.7095  -15.1168  -43.9603 H         1 UNK         0.0600 
    162 H162        3.6399  -15.7682  -45.5897 H         1 UNK         0.0600 
    163 H163        5.1242  -15.9002  -44.6601 H         1 UNK         0.0600 
    164 H164        4.5372  -16.7519  -42.2462 H         1 UNK         0.3000 
    165 H165        4.2841  -19.6334  -40.1601 H         1 UNK         0.0600 
    166 H166        6.7043  -18.0471  -41.1797 H         1 UNK         0.0600 
    167 H167        6.6369  -19.0042  -39.6998 H         1 UNK         0.0600 
    168 H168        6.5210  -19.7952  -41.2636 H         1 UNK         0.0600 
    169 H169        5.0830  -16.9242  -39.6752 H         1 UNK         0.3000 
    170 H170        1.8520  -15.6285  -38.9263 H         1 UNK         0.0600 
    171 H171        2.5573  -16.8353  -36.8529 H         1 UNK         0.0600 
    172 H172        4.2173  -16.3055  -37.0976 H         1 UNK         0.0600 
    173 H173        2.9483  -15.1256  -36.7672 H         1 UNK         0.0600 
    174 H174        4.3756  -14.4011  -38.7192 H         1 UNK         0.3000 
    175 H175        4.7056  -12.5912  -40.1398 H         1 UNK         0.0600 
    176 H176        6.6059  -12.9729  -41.7487 H         1 UNK         0.0600 
    177 H177        6.4303  -14.3385  -40.6581 H         1 UNK         0.0600 
    178 H178        5.8436  -14.4572  -42.3140 H         1 UNK         0.0600 
    179 H179        3.4338  -13.1022  -42.7519 H         1 UNK         0.3000 
    180 H180        2.3588   -9.8619  -42.9847 H         1 UNK         0.0600 
    181 H181        3.3116   -9.5172  -45.2124 H         1 UNK         0.0600 
    182 H182        4.5792   -9.2963  -44.0205 H         1 UNK         0.0600 
    183 H183        4.5119  -10.7868  -44.9551 H         1 UNK         0.0600 
    184 H184        2.3656  -11.9274  -44.9655 H         1 UNK         0.3000 
    185 H185        0.6502  -14.1190  -44.1765 H         1 UNK         0.0600 
    186 H186       -1.8178  -14.0044  -44.4726 H         1 UNK         0.0600 
    187 H187       -1.3701  -13.5424  -42.8407 H         1 UNK         0.0600 
    188 H188       -1.8155  -12.3060  -44.0012 H         1 UNK         0.0600 
    189 H189        0.6927  -13.6072  -46.3234 H         1 UNK         0.3000 
    190 H190       -2.1421  -19.9018  -44.4328 H         1 UNK         0.3000 
    191 H191       -4.8993  -20.3158  -45.0247 H         1 UNK         0.0600 
    192 H192       -5.0480  -20.9205  -42.5998 H         1 UNK         0.0600 
    193 H193       -4.1394  -19.4384  -42.8489 H         1 UNK         0.0600 
    194 H194       -3.2919  -20.9426  -42.4935 H         1 UNK         0.0600 
    195 H195       -2.2269  -22.6164  -44.3997 H         1 UNK         0.3000 
    196 H196       -3.8377  -24.9842  -44.4511 H         1 UNK         0.0600 
    197 H197       -1.6290  -26.1381  -44.6211 H         1 UNK         0.0600 
    198 H198       -1.6242  -24.9162  -43.3580 H         1 UNK         0.0600 
    199 H199       -0.8316  -24.5940  -44.8974 H         1 UNK         0.0600 
    200 H200       -1.8204  -23.3739  -46.9674 H         1 UNK         0.3000 
    201 H201       -2.3925  -25.3052  -49.0103 H         1 UNK         0.0600 
    202 H202       -0.3424  -23.9134  -49.0215 H         1 UNK         0.0600 
    203 H203       -1.3028  -22.4455  -49.1926 H         1 UNK         0.0600 
    204 H204       -1.2643  -23.6313  -50.4912 H         1 UNK         0.0600 
    205 H205       -3.7897  -22.1326  -48.1968 H         1 UNK         0.3000 
    206 H206       -5.4510  -20.8909  -48.9143 H         1 UNK         0.0600 
    207 H207       -6.7903  -22.7580  -47.9370 H         1 UNK         0.0600 
    208 H208       -7.6468  -22.0043  -49.2656 H         1 UNK         0.0600 
    209 H209       -6.8528  -23.5655  -49.4963 H         1 UNK         0.0600 
    210 H210       -7.2012  -22.2446  -51.2271 H         1 UNK         0.3000 
    211 H211       -5.2947  -22.0656  -53.4856 H         1 UNK         0.0600 
    212 H212       -8.1995  -21.0681  -53.5482 H         1 UNK         0.0600 
    213 H213       -7.1152  -21.1775  -54.9316 H         1 UNK         0.0600 
    214 H214       -6.7680  -20.0416  -53.6381 H         1 UNK         0.0600 
    215 H215       -5.7432  -24.2164  -51.7958 H         1 UNK         0.3000 
    216 H216       -7.5199  -26.0853  -53.3173 H         1 UNK         0.0600 
    217 H217       -7.5507  -27.3796  -51.1935 H         1 UNK         0.0600 
    218 H218       -8.1525  -25.7499  -50.9302 H         1 UNK         0.0600 
    219 H219       -6.5217  -26.1804  -50.4179 H         1 UNK         0.0600 
    220 H220       -4.2455  -25.4945  -52.0540 H         1 UNK         0.3000 
    221 H221       -3.1296  -28.0434  -52.6765 H         1 UNK         0.0600 
    222 H222       -1.8323  -25.2909  -52.3064 H         1 UNK         0.0600 
    223 H223       -2.1212  -26.4917  -51.0457 H         1 UNK         0.0600 
    224 H224       -0.9631  -26.8215  -52.3217 H         1 UNK         0.0600 
    225 H225       -4.0573  -25.4927  -54.7877 H         1 UNK         0.3000 
    226 H226       -2.9948  -26.8186  -57.1206 H         1 UNK         0.0600 
    227 H227       -1.0635  -25.3092  -56.5107 H         1 UNK         0.0600 
    228 H228       -1.8292  -24.7691  -57.9907 H         1 UNK         0.0600 
    229 H229       -2.1492  -23.9246  -56.4789 H         1 UNK         0.0600 
    230 H230       -3.7161  -25.1947  -59.0653 H         1 UNK         0.3000 
    231 H231       -6.5857  -24.9298  -58.8961 H         1 UNK         0.0600 
    232 H232       -6.3373  -24.1775  -61.2613 H         1 UNK         0.0600 
    233 H233       -5.4167  -25.6441  -60.9725 H         1 UNK         0.0600 
    234 H234       -4.5910  -24.0876  -61.0685 H         1 UNK         0.0600 
    235 H235       -4.0832  -22.8583  -57.9402 H         1 UNK         0.3000 
    236 H236       -5.8858  -20.5616  -57.6129 H         1 UNK         0.0600 
    237 H237       -3.0136  -20.3236  -58.6989 H         1 UNK         0.0600 
    238 H238       -4.4646  -20.0771  -59.6676 H         1 UNK         0.0600 
    239 H239       -4.1034  -18.9867  -58.3439 H         1 UNK         0.0600 
    240 H240       -4.2862  -18.9491  -56.2027 H         1 UNK         0.3000 
    241 H241       -4.1463  -19.9451  -53.6447 H         1 UNK         0.0600 
    242 H242       -1.0951  -21.5222  -52.8577 H         1 UNK         0.3800 
    243 H243       -2.7220  -21.0915  -52.3636 H         1 UNK         0.3800 
    244 H244       -2.8205  -17.5728  -55.0044 H         1 UNK         0.0800 
    245 H245       -2.4507  -17.8922  -53.3509 H         1 UNK         0.0800 
    246 H246       -5.5925  -16.9020  -51.3726 H         1 UNK         0.0800 
    247 H247       -4.7886  -18.4409  -51.5353 H         1 UNK         0.0800 
@<TRIPOS>BOND
     1    1    2 1    
     2    1  127 1    
     3    1  128 1    
     4    1  129 1    
     5    2    3 2    
     6    2    4 am   BACKBONE|DICT|INTERRES
     7    4    5 1    
     8    4  130 1    
     9    5    6 1    
    10    5   65 1    
    11    5  131 1    
    12    6    7 1    
    13    6  132 1    
    14    6  133 1    
    15    7    8 1    
    16    8    9 1    
    17    8  134 1    
    18    8  135 1    
    19    9   10 ar   
    20    9   14 ar   
    21   10   11 ar   
    22   10  136 1    
    23   11   12 ar   
    24   11  126 1    
    25   12   13 ar   
    26   12  137 1    
    27   13   14 ar   
    28   13   15 1    
    29   14  138 1    
    30   15   16 1    
    31   15  139 1    
    32   15  140 1    
    33   16   17 1    
    34   17   18 1    
    35   17  141 1    
    36   17  142 1    
    37   18   19 1    
    38   18   67 1    
    39   18  143 1    
    40   19   20 am   BACKBONE|DICT|INTERRES
    41   19  144 1    
    42   20   21 2    
    43   20   22 1    
    44   22   23 1    
    45   22   24 1    
    46   22  145 1    
    47   23  146 1    
    48   23  147 1    
    49   23  148 1    
    50   24   25 am   BACKBONE|DICT|INTERRES
    51   24  149 1    
    52   25   26 2    
    53   25   27 1    
    54   27   28 1    
    55   27   29 1    
    56   27  150 1    
    57   28  151 1    
    58   28  152 1    
    59   28  153 1    
    60   29   30 am   BACKBONE|DICT|INTERRES
    61   29  154 1    
    62   30   31 2    
    63   30   32 1    
    64   32   33 1    
    65   32   34 1    
    66   32  155 1    
    67   33  156 1    
    68   33  157 1    
    69   33  158 1    
    70   34   35 am   BACKBONE|DICT|INTERRES
    71   34  159 1    
    72   35   36 2    
    73   35   37 1    
    74   37   38 1    
    75   37   39 1    
    76   37  160 1    
    77   38  161 1    
    78   38  162 1    
    79   38  163 1    
    80   39   40 am   BACKBONE|DICT|INTERRES
    81   39  164 1    
    82   40   41 2    
    83   40   42 1    
    84   42   43 1    
    85   42   44 1    
    86   42  165 1    
    87   43  166 1    
    88   43  167 1    
    89   43  168 1    
    90   44   45 am   BACKBONE|DICT|INTERRES
    91   44  169 1    
    92   45   46 2    
    93   45   47 1    
    94   47   48 1    
    95   47   49 1    
    96   47  170 1    
    97   48  171 1    
    98   48  172 1    
    99   48  173 1    
   100   49   50 am   BACKBONE|DICT|INTERRES
   101   49  174 1    
   102   50   51 2    
   103   50   52 1    
   104   52   53 1    
   105   52   54 1    
   106   52  175 1    
   107   53  176 1    
   108   53  177 1    
   109   53  178 1    
   110   54   55 am   BACKBONE|DICT|INTERRES
   111   54  179 1    
   112   55   56 2    
   113   55   57 1    
   114   57   58 1    
   115   57   59 1    
   116   57  180 1    
   117   58  181 1    
   118   58  182 1    
   119   58  183 1    
   120   59   60 am   BACKBONE|DICT|INTERRES
   121   59  184 1    
   122   60   61 2    
   123   60   62 1    
   124   62   63 1    
   125   62   64 1    
   126   62  185 1    
   127   63  186 1    
   128   63  187 1    
   129   63  188 1    
   130   64   65 am   BACKBONE|DICT|INTERRES
   131   64  189 1    
   132   65   66 2    
   133   67   68 2    
   134   67   69 am   BACKBONE|DICT|INTERRES
   135   69   70 1    
   136   69  190 1    
   137   70   71 1    
   138   70   72 1    
   139   70  191 1    
   140   71  192 1    
   141   71  193 1    
   142   71  194 1    
   143   72   73 2    
   144   72   74 am   BACKBONE|DICT|INTERRES
   145   74   75 1    
   146   74  195 1    
   147   75   76 1    
   148   75   77 1    
   149   75  196 1    
   150   76  197 1    
   151   76  198 1    
   152   76  199 1    
   153   77   78 2    
   154   77   79 am   BACKBONE|DICT|INTERRES
   155   79   80 1    
   156   79  200 1    
   157   80   81 1    
   158   80   82 1    
   159   80  201 1    
   160   81  202 1    
   161   81  203 1    
   162   81  204 1    
   163   82   83 2    
   164   82   84 am   BACKBONE|DICT|INTERRES
   165   84   85 1    
   166   84  205 1    
   167   85   86 1    
   168   85   87 1    
   169   85  206 1    
   170   86  207 1    
   171   86  208 1    
   172   86  209 1    
   173   87   88 2    
   174   87   89 am   BACKBONE|DICT|INTERRES
   175   89   90 1    
   176   89  210 1    
   177   90   91 1    
   178   90   92 1    
   179   90  211 1    
   180   91  212 1    
   181   91  213 1    
   182   91  214 1    
   183   92   93 2    
   184   92   94 am   BACKBONE|DICT|INTERRES
   185   94   95 1    
   186   94  215 1    
   187   95   96 1    
   188   95   97 1    
   189   95  216 1    
   190   96  217 1    
   191   96  218 1    
   192   96  219 1    
   193   97   98 2    
   194   97   99 am   BACKBONE|DICT|INTERRES
   195   99  100 1    
   196   99  220 1    
   197  100  101 1    
   198  100  102 1    
   199  100  221 1    
   200  101  222 1    
   201  101  223 1    
   202  101  224 1    
   203  102  103 2    
   204  102  104 am   BACKBONE|DICT|INTERRES
   205  104  105 1    
   206  104  225 1    
   207  105  106 1    
   208  105  107 1    
   209  105  226 1    
   210  106  227 1    
   211  106  228 1    
   212  106  229 1    
   213  107  108 2    
   214  107  109 am   BACKBONE|DICT|INTERRES
   215  109  110 1    
   216  109  230 1    
   217  110  111 1    
   218  110  112 1    
   219  110  231 1    
   220  111  232 1    
   221  111  233 1    
   222  111  234 1    
   223  112  113 2    
   224  112  114 am   BACKBONE|DICT|INTERRES
   225  114  115 1    
   226  114  235 1    
   227  115  116 1    
   228  115  117 1    
   229  115  236 1    
   230  116  237 1    
   231  116  238 1    
   232  116  239 1    
   233  117  118 2    
   234  117  119 am   BACKBONE|DICT|INTERRES
   235  119  120 1    
   236  119  240 1    
   237  120  121 1    
   238  120  124 1    
   239  120  241 1    
   240  121  122 am   BACKBONE|DICT|INTERRES
   241  121  123 2    
   242  122  242 1    
   243  122  243 1    
   244  124  125 1    
   245  124  244 1    
   246  124  245 1    
   247  125  126 1    
   248  126  246 1    
   249  126  247 1    
@<TRIPOS>SUBSTRUCTURE
     1 UNK         1 GROUP             0       ****    0 ROOT    
