@<TRIPOS>MOLECULE
3R540
247   249    1
SMALL
USER_CHARGES


@<TRIPOS>ATOM
      1 CA          0.1827  -14.0972  -53.3881 C.3       0 UNK        -0.1800 
      2 C           0.5944  -14.5905  -52.0083 C.2       0 UNK         0.5000 
      3 O           1.6680  -15.1764  -51.8665 O.2       0 UNK        -0.5000 
      4 N          -0.2526  -14.3605  -50.9975 N.am      1 UNK        -0.5000 
      5 CA         -0.0136  -14.7481  -49.6038 C.3       1 UNK         0.1400 
      6 C6         -1.2792  -14.5969  -48.7212 C.3       23 UNK        -0.0398 
      7 S7         -2.6724  -15.6498  -49.2410 S.3       23 UNK        -0.2404 
      8 C8         -2.3753  -17.1532  -48.2540 C.3       23 UNK        -0.0205 
      9 C9         -1.2939  -18.0164  -48.8844 C.ar      23 UNK        -0.0193 
     10 C10        -1.5734  -18.6972  -50.0679 C.ar      23 UNK        -0.1150 
     11 C11        -0.5705  -19.3876  -50.7510 C.ar      23 UNK        -0.0193 
     12 C12         0.7104  -19.4572  -50.1966 C.ar      23 UNK        -0.1150 
     13 C13         0.9932  -18.8217  -48.9830 C.ar      23 UNK        -0.0193 
     14 C14        -0.0146  -18.1034  -48.3285 C.ar      23 UNK        -0.1150 
     15 C15         2.4047  -18.8487  -48.4171 C.3       23 UNK        -0.0205 
     16 S16         2.4977  -19.6827  -46.8049 S.3       23 UNK        -0.2404 
     17 C17         2.5025  -21.4503  -47.2397 C.3       23 UNK        -0.0398 
     18 CA          1.3771  -22.2986  -46.5964 C.3       11 UNK         0.1400 
     19 N           1.2815  -22.1980  -45.1324 N.am      11 UNK        -0.5000 
     20 C           0.6548  -23.1202  -44.3823 C.2       10 UNK         0.5000 
     21 O           0.1269  -24.1294  -44.8512 O.2       10 UNK        -0.5000 
     22 CA          0.5558  -22.8722  -42.8667 C.3       10 UNK         0.1400 
     23 CB          1.9032  -23.1106  -42.1688 C.3       10 UNK        -0.1800 
     24 N           0.0435  -21.5429  -42.5418 N.am      10 UNK        -0.5000 
     25 C          -1.1871  -21.1092  -42.8515 C.2       9 UNK         0.5000 
     26 O          -2.0306  -21.7985  -43.4256 O.2       9 UNK        -0.5000 
     27 CA         -1.5210  -19.6481  -42.4934 C.3       9 UNK         0.1400 
     28 CB         -1.9948  -19.5314  -41.0372 C.3       9 UNK        -0.1800 
     29 N          -0.3937  -18.7431  -42.7131 N.am      9 UNK        -0.5000 
     30 C           0.1632  -18.5083  -43.9091 C.2       8 UNK         0.5000 
     31 O          -0.2544  -18.9801  -44.9643 O.2       8 UNK        -0.5000 
     32 CA          1.4302  -17.6402  -43.9117 C.3       8 UNK         0.1400 
     33 CB          1.0679  -16.1480  -43.8407 C.3       8 UNK        -0.1800 
     34 N           2.3373  -18.0070  -42.8214 N.am      8 UNK        -0.5000 
     35 C           2.9899  -19.1785  -42.7388 C.2       7 UNK         0.5000 
     36 O           2.9202  -20.0651  -43.5884 O.2       7 UNK        -0.5000 
     37 CA          3.8316  -19.4225  -41.4720 C.3       7 UNK         0.1400 
     38 CB          5.2350  -18.8198  -41.6336 C.3       7 UNK        -0.1800 
     39 N           3.2078  -18.8769  -40.2674 N.am      7 UNK        -0.5000 
     40 C           2.0593  -19.3188  -39.7339 C.2       6 UNK         0.5000 
     41 O           1.4416  -20.2962  -40.1554 O.2       6 UNK        -0.5000 
     42 CA          1.4726  -18.4772  -38.5810 C.3       6 UNK         0.1400 
     43 CB          2.0263  -18.9489  -37.2286 C.3       6 UNK        -0.1800 
     44 N           1.7323  -17.0406  -38.7430 N.am      6 UNK        -0.5000 
     45 C           1.2923  -16.3158  -39.7806 C.2       5 UNK         0.5000 
     46 O           0.5509  -16.7775  -40.6516 O.2       5 UNK        -0.5000 
     47 CA          1.8491  -14.8830  -39.9083 C.3       5 UNK         0.1400 
     48 CB          3.3581  -14.9161  -40.2084 C.3       5 UNK        -0.1800 
     49 N           1.1957  -14.1360  -40.9821 N.am      5 UNK        -0.5000 
     50 C          -0.0413  -13.6300  -40.9292 C.2       4 UNK         0.5000 
     51 O          -0.7424  -13.6655  -39.9158 O.2       4 UNK        -0.5000 
     52 CA         -0.5960  -12.9998  -42.2281 C.3       4 UNK         0.1400 
     53 CB         -1.5774  -11.8439  -41.9421 C.3       4 UNK        -0.1800 
     54 N           0.4112  -12.5740  -43.2135 N.am      4 UNK        -0.5000 
     55 C           1.3719  -11.6523  -43.0642 C.2       3 UNK         0.5000 
     56 O           1.6534  -11.1398  -41.9797 O.2       3 UNK        -0.5000 
     57 CA          2.1160  -11.1994  -44.3463 C.3       3 UNK         0.1400 
     58 CB          3.2810  -10.2395  -44.0398 C.3       3 UNK        -0.1800 
     59 N           2.6238  -12.2696  -45.2156 N.am      3 UNK        -0.5000 
     60 C           1.8993  -13.0922  -45.9845 C.2       2 UNK         0.5000 
     61 O           0.6704  -13.1824  -45.9144 O.2       2 UNK        -0.5000 
     62 CA          2.6846  -13.9438  -47.0084 C.3       2 UNK         0.1400 
     63 CB          3.5343  -15.0287  -46.3261 C.3       2 UNK        -0.1800 
     64 N           1.7860  -14.5897  -47.9656 N.am      2 UNK        -0.5000 
     65 C           1.1439  -13.9589  -48.9575 C.2       1 UNK         0.5000 
     66 O           1.3834  -12.7995  -49.3070 O.2       1 UNK        -0.5000 
     67 C           0.0136  -22.1282  -47.2953 C.2       11 UNK         0.5000 
     68 O          -0.2304  -22.8241  -48.2813 O.2       11 UNK        -0.5000 
     69 N          -0.8753  -21.2860  -46.7437 N.am      12 UNK        -0.5000 
     70 CA         -2.2599  -21.1387  -47.1987 C.3       12 UNK         0.1400 
     71 CB         -2.9760  -20.0494  -46.3866 C.3       12 UNK        -0.1800 
     72 C          -3.0488  -22.4539  -47.1094 C.2       12 UNK         0.5000 
     73 O          -3.6918  -22.8418  -48.0859 O.2       12 UNK        -0.5000 
     74 N          -2.9578  -23.1212  -45.9504 N.am      13 UNK        -0.5000 
     75 CA         -3.5873  -24.4113  -45.6814 C.3       13 UNK         0.1400 
     76 CB         -3.4746  -24.7350  -44.1840 C.3       13 UNK        -0.1800 
     77 C          -2.9967  -25.5475  -46.5328 C.2       13 UNK         0.5000 
     78 O          -3.7576  -26.3471  -47.0781 O.2       13 UNK        -0.5000 
     79 N          -1.6614  -25.5867  -46.6506 N.am      14 UNK        -0.5000 
     80 CA         -0.9270  -26.5894  -47.4248 C.3       14 UNK         0.1400 
     81 CB          0.5777  -26.4582  -47.1473 C.3       14 UNK        -0.1800 
     82 C          -1.2069  -26.5104  -48.9360 C.2       14 UNK         0.5000 
     83 O          -1.3862  -27.5489  -49.5735 O.2       14 UNK        -0.5000 
     84 N          -1.2556  -25.2864  -49.4786 N.am      15 UNK        -0.5000 
     85 CA         -1.5532  -25.0294  -50.8876 C.3       15 UNK         0.1400 
     86 CB         -0.9920  -23.6506  -51.2738 C.3       15 UNK        -0.1800 
     87 C          -3.0569  -25.0842  -51.2112 C.2       15 UNK         0.5000 
     88 O          -3.4045  -25.1382  -52.3903 O.2       15 UNK        -0.5000 
     89 N          -3.9189  -24.9898  -50.1862 N.am      16 UNK        -0.5000 
     90 CA         -5.3697  -24.7662  -50.2702 C.3       16 UNK         0.1400 
     91 CB         -6.0878  -26.0005  -50.8526 C.3       16 UNK        -0.1800 
     92 C          -5.6825  -23.4607  -51.0340 C.2       16 UNK         0.5000 
     93 O          -6.4805  -23.4520  -51.9744 O.2       16 UNK        -0.5000 
     94 N          -4.9414  -22.4013  -50.6716 N.am      17 UNK        -0.5000 
     95 CA         -4.8613  -21.0871  -51.3244 C.3       17 UNK         0.1400 
     96 CB         -6.1803  -20.3110  -51.1399 C.3       17 UNK        -0.1800 
     97 C          -4.4217  -21.1383  -52.8075 C.2       17 UNK         0.5000 
     98 O          -4.6334  -20.1675  -53.5360 O.2       17 UNK        -0.5000 
     99 N          -3.8345  -22.2689  -53.2326 N.am      18 UNK        -0.5000 
    100 CA        -3.4902  -22.6355  -54.6096 C.3       18 UNK         0.1400 
    101 CB        -2.3510  -21.7478  -55.1484 C.3       18 UNK        -0.1800 
    102 C         -4.7317  -22.6686  -55.5245 C.2       18 UNK         0.5000 
    103 O         -4.6641  -22.2244  -56.6694 O.2       18 UNK        -0.5000 
    104 N         -5.8651  -23.1421  -54.9794 N.am      19 UNK        -0.5000 
    105 CA        -7.2055  -23.0987  -55.5800 C.3       19 UNK         0.1400 
    106 CB        -7.2928  -24.0121  -56.8206 C.3       19 UNK        -0.1800 
    107 C         -7.6644  -21.6481  -55.8514 C.2       19 UNK         0.5000 
    108 O         -8.2484  -21.3579  -56.8962 O.2       19 UNK        -0.5000 
    109 N         -7.3475  -20.7682  -54.8912 N.am      20 UNK        -0.5000 
    110 CA        -7.5524  -19.3175  -54.8594 C.3       20 UNK         0.1400 
    111 CB        -9.0342  -18.9431  -55.0686 C.3       20 UNK        -0.1800 
    112 C         -6.6060  -18.5099  -55.7731 C.2       20 UNK         0.5000 
    113 O         -6.7441  -17.2866  -55.8293 O.2       20 UNK        -0.5000 
    114 N         -5.6312  -19.1573  -56.4327 N.am      21 UNK        -0.5000 
    115 CA        -4.6397  -18.4917  -57.2873 C.3       21 UNK         0.1400 
    116 CB        -3.8699  -19.5291  -58.1162 C.3       21 UNK        -0.1800 
    117 C         -3.6646  -17.5808  -56.5139 C.2       21 UNK         0.5000 
    118 O         -3.1368  -16.6366  -57.1032 O.2       21 UNK        -0.5000 
    119 N         -3.4704  -17.8445  -55.2141 N.am      22 UNK        -0.5000 
    120 CA        -2.7658  -16.9414  -54.2883 C.3       22 UNK         0.1400 
    121 C         -3.6184  -15.7169  -53.8286 C.2       22 UNK         0.5000 
    122 N         -4.8916  -15.5953  -54.1891 N.am      22 UNK        -0.7600 
    123 O         -3.1080  -14.8428  -53.1344 O.2       22 UNK        -0.5000 
    124 C124       -2.1944  -17.7001  -53.0655 C.3       23 UNK        -0.0398 
    125 S125       -0.8251  -18.8373  -53.4772 S.3       23 UNK        -0.2404 
    126 C126       -0.8712  -20.0330  -52.0958 C.3       23 UNK        -0.0205 
    127 H127       -0.7127  -13.4768  -53.3452 H         1 UNK         0.0600 
    128 H128       -0.0196  -14.9446  -54.0431 H         1 UNK         0.0600 
    129 H129        0.9831  -13.5046  -53.8310 H         1 UNK         0.0600 
    130 H130       -1.1287  -13.8918  -51.1802 H         1 UNK         0.3000 
    131 H131        0.2804  -15.7967  -49.6223 H         1 UNK         0.0600 
    132 H132       -1.0570  -14.8188  -47.6754 H         1 UNK         0.0800 
    133 H133       -1.6223  -13.5608  -48.7328 H         1 UNK         0.0800 
    134 H134       -3.3047  -17.7217  -48.2057 H         1 UNK         0.0800 
    135 H135       -2.1216  -16.8877  -47.2266 H         1 UNK         0.0800 
    136 H136       -2.5697  -18.6385  -50.4769 H         1 UNK         0.1150 
    137 H137        1.4915  -19.9887  -50.7215 H         1 UNK         0.1150 
    138 H138        0.2055  -17.5944  -47.4010 H         1 UNK         0.1150 
    139 H139        3.1029  -19.3176  -49.1120 H         1 UNK         0.0800 
    140 H140        2.7479  -17.8208  -48.2937 H         1 UNK         0.0800 
    141 H141        2.4888  -21.5633  -48.3253 H         1 UNK         0.0800 
    142 H142        3.4667  -21.8485  -46.9215 H         1 UNK         0.0800 
    143 H143        1.6659  -23.3317  -46.7999 H         1 UNK         0.0600 
    144 H144        1.6969  -21.3805  -44.6959 H         1 UNK         0.3000 
    145 H145       -0.1541  -23.5980  -42.4642 H         1 UNK         0.0600 
    146 H146        1.8160  -22.9854  -41.0894 H         1 UNK         0.0600 
    147 H147        2.6739  -22.4279  -42.5233 H         1 UNK         0.0600 
    148 H148        2.2592  -24.1253  -42.3507 H         1 UNK         0.0600 
    149 H149        0.6607  -20.9279  -42.0246 H         1 UNK         0.3000 
    150 H150       -2.3370  -19.3254  -43.1431 H         1 UNK         0.0600 
    151 H151       -2.8673  -20.1615  -40.8604 H         1 UNK         0.0600 
    152 H152       -2.2776  -18.5066  -40.7956 H         1 UNK         0.0600 
    153 H153       -1.2205  -19.8387  -40.3343 H         1 UNK         0.0600 
    154 H154       -0.0084  -18.2733  -41.9001 H         1 UNK         0.3000 
    155 H155        1.9608  -17.8023  -44.8480 H         1 UNK         0.0600 
    156 H156        0.5929  -15.8278  -44.7687 H         1 UNK         0.0600 
    157 H157        1.9492  -15.5250  -43.6906 H         1 UNK         0.0600 
    158 H158        0.3629  -15.9351  -43.0394 H         1 UNK         0.0600 
    159 H159        2.3841  -17.3703  -42.0415 H         1 UNK         0.3000 
    160 H160        3.9347  -20.5018  -41.3416 H         1 UNK         0.0600 
    161 H161        5.1993  -17.7351  -41.7435 H         1 UNK         0.0600 
    162 H162        5.7325  -19.2229  -42.5168 H         1 UNK         0.0600 
    163 H163        5.8646  -19.0502  -40.7740 H         1 UNK         0.0600 
    164 H164        3.6546  -18.0764  -39.8466 H         1 UNK         0.3000 
    165 H165        0.3907  -18.6264  -38.5802 H         1 UNK         0.0600 
    166 H166        1.5604  -18.4113  -36.4026 H         1 UNK         0.0600 
    167 H167        1.8291  -20.0109  -37.0759 H         1 UNK         0.0600 
    168 H168        3.1049  -18.8020  -37.1601 H         1 UNK         0.0600 
    169 H169        2.3348  -16.6088  -38.0569 H         1 UNK         0.3000 
    170 H170        1.6844  -14.3630  -38.9625 H         1 UNK         0.0600 
    171 H171        3.5755  -15.4502  -41.1344 H         1 UNK         0.0600 
    172 H172        3.7600  -13.9071  -40.3050 H         1 UNK         0.0600 
    173 H173        3.9147  -15.4043  -39.4077 H         1 UNK         0.0600 
    174 H174        1.6964  -14.0587  -41.8535 H         1 UNK         0.3000 
    175 H175       -1.1643  -13.7935  -42.7149 H         1 UNK         0.0600 
    176 H176       -1.0932  -11.0283  -41.4043 H         1 UNK         0.0600 
    177 H177       -1.9892  -11.4386  -42.8664 H         1 UNK         0.0600 
    178 H178       -2.4196  -12.1808  -41.3367 H         1 UNK         0.0600 
    179 H179        0.2870  -12.9369  -44.1573 H         1 UNK         0.3000 
    180 H180        1.3833  -10.6353  -44.9271 H         1 UNK         0.0600 
    181 H181        4.0619  -10.7301  -43.4574 H         1 UNK         0.0600 
    182 H182        2.9409   -9.3727  -43.4715 H         1 UNK         0.0600 
    183 H183        3.7332   -9.8604  -44.9566 H         1 UNK         0.0600 
    184 H184        3.6287  -12.2996  -45.3104 H         1 UNK         0.3000 
    185 H185        3.3535  -13.2732  -47.5520 H         1 UNK         0.0600 
    186 H186        2.9182  -15.8076  -45.8814 H         1 UNK         0.0600 
    187 H187        4.1966  -15.5105  -47.0457 H         1 UNK         0.0600 
    188 H188        4.1645  -14.6139  -45.5387 H         1 UNK         0.0600 
    189 H189        1.5065  -15.5300  -47.7335 H         1 UNK         0.3000 
    190 H190       -0.5844  -20.6961  -45.9700 H         1 UNK         0.3000 
    191 H191       -2.2309  -20.8310  -48.2452 H         1 UNK         0.0600 
    192 H192       -2.4099  -19.1219  -46.3795 H         1 UNK         0.0600 
    193 H193       -3.1251  -20.3440  -45.3485 H         1 UNK         0.0600 
    194 H194       -3.9580  -19.8331  -46.8084 H         1 UNK         0.0600 
    195 H195       -2.4271  -22.7089  -45.1889 H         1 UNK         0.3000 
    196 H196       -4.6469  -24.3248  -45.9309 H         1 UNK         0.0600 
    197 H197       -3.9696  -23.9748  -43.5795 H         1 UNK         0.0600 
    198 H198       -2.4345  -24.7914  -43.8608 H         1 UNK         0.0600 
    199 H199       -3.9445  -25.6919  -43.9534 H         1 UNK         0.0600 
    200 H200       -1.1031  -24.9143  -46.1314 H         1 UNK         0.3000 
    201 H201       -1.2485  -27.5742  -47.0794 H         1 UNK         0.0600 
    202 H202        0.7959  -26.5763  -46.0858 H         1 UNK         0.0600 
    203 H203        0.9601  -25.4879  -47.4633 H         1 UNK         0.0600 
    204 H204        1.1417  -27.2232  -47.6824 H         1 UNK         0.0600 
    205 H205       -1.0482  -24.4737  -48.9033 H         1 UNK         0.3000 
    206 H206       -1.0539  -25.7828  -51.5004 H         1 UNK         0.0600 
    207 H207        0.0774  -23.5881  -51.0717 H         1 UNK         0.0600 
    208 H208       -1.4829  -22.8480  -50.7215 H         1 UNK         0.0600 
    209 H209       -1.1321  -23.4516  -52.3370 H         1 UNK         0.0600 
    210 H210       -3.5273  -24.9160  -49.2563 H         1 UNK         0.3000 
    211 H211       -5.7240  -24.6239  -49.2482 H         1 UNK         0.0600 
    212 H212       -5.8160  -26.1795  -51.8931 H         1 UNK         0.0600 
    213 H213       -7.1702  -25.8729  -50.8162 H         1 UNK         0.0600 
    214 H214       -5.8468  -26.8986  -50.2839 H         1 UNK         0.0600 
    215 H215       -4.3421  -22.5250  -49.8581 H         1 UNK         0.3000 
    216 H216       -4.0797  -20.5388  -50.7981 H         1 UNK         0.0600 
    217 H217       -6.0869  -19.2847  -51.4973 H         1 UNK         0.0600 
    218 H218       -6.4612  -20.2599  -50.0880 H         1 UNK         0.0600 
    219 H219       -7.0037  -20.7745  -51.6837 H         1 UNK         0.0600 
    220 H220       -3.7434  -23.0285  -52.5702 H         1 UNK         0.3000 
    221 H221       -3.1158  -23.6590  -54.5785 H         1 UNK         0.0600 
    222 H222       -2.6479  -20.7020  -55.2196 H         1 UNK         0.0600 
    223 H223       -1.4743  -21.8029  -54.5040 H         1 UNK         0.0600 
    224 H224       -2.0392  -22.0688  -56.1428 H         1 UNK         0.0600 
    225 H225       -5.8376  -23.4535  -54.0140 H         1 UNK         0.3000 
    226 H226       -7.8886  -23.4984  -54.8291 H         1 UNK         0.0600 
    227 H227       -6.9593  -25.0235  -56.5890 H         1 UNK         0.0600 
    228 H228       -8.3203  -24.0836  -57.1788 H         1 UNK         0.0600 
    229 H229       -6.6864  -23.6394  -57.6464 H         1 UNK         0.0600 
    230 H230       -6.8173  -21.1265  -54.1096 H         1 UNK         0.3000 
    231 H231       -7.2904  -19.0177  -53.8439 H         1 UNK         0.0600 
    232 H232       -9.2035  -17.8877  -54.8520 H         1 UNK         0.0600 
    233 H233       -9.6843  -19.5161  -54.4076 H         1 UNK         0.0600 
    234 H234       -9.3579  -19.1165  -56.0949 H         1 UNK         0.0600 
    235 H235       -5.5455  -20.1607  -56.3317 H         1 UNK         0.3000 
    236 H236       -5.1882  -17.8558  -57.9853 H         1 UNK         0.0600 
    237 H237       -3.2329  -20.1531  -57.4907 H         1 UNK         0.0600 
    238 H238       -4.5483  -20.1815  -58.6663 H         1 UNK         0.0600 
    239 H239       -3.2249  -19.0399  -58.8471 H         1 UNK         0.0600 
    240 H240       -3.9351  -18.6435  -54.7955 H         1 UNK         0.3000 
    241 H241       -1.9165  -16.5112  -54.8220 H         1 UNK         0.0600 
    242 H242       -5.4079  -14.7881  -53.8785 H         1 UNK         0.3800 
    243 H243       -5.3495  -16.2768  -54.7831 H         1 UNK         0.3800 
    244 H244       -2.9989  -18.2563  -52.5862 H         1 UNK         0.0800 
    245 H245       -1.8078  -17.0013  -52.3208 H         1 UNK         0.0800 
    246 H246       -0.1482  -20.8242  -52.2988 H         1 UNK         0.0800 
    247 H247       -1.8416  -20.5198  -52.0600 H         1 UNK         0.0800 
@<TRIPOS>BOND
     1    1    2 1    
     2    1  127 1    
     3    1  128 1    
     4    1  129 1    
     5    2    3 2    
     6    2    4 am   BACKBONE|DICT|INTERRES
     7    4    5 1    
     8    4  130 1    
     9    5    6 1    
    10    5   65 1    
    11    5  131 1    
    12    6    7 1    
    13    6  132 1    
    14    6  133 1    
    15    7    8 1    
    16    8    9 1    
    17    8  134 1    
    18    8  135 1    
    19    9   10 ar   
    20    9   14 ar   
    21   10   11 ar   
    22   10  136 1    
    23   11   12 ar   
    24   11  126 1    
    25   12   13 ar   
    26   12  137 1    
    27   13   14 ar   
    28   13   15 1    
    29   14  138 1    
    30   15   16 1    
    31   15  139 1    
    32   15  140 1    
    33   16   17 1    
    34   17   18 1    
    35   17  141 1    
    36   17  142 1    
    37   18   19 1    
    38   18   67 1    
    39   18  143 1    
    40   19   20 am   BACKBONE|DICT|INTERRES
    41   19  144 1    
    42   20   21 2    
    43   20   22 1    
    44   22   23 1    
    45   22   24 1    
    46   22  145 1    
    47   23  146 1    
    48   23  147 1    
    49   23  148 1    
    50   24   25 am   BACKBONE|DICT|INTERRES
    51   24  149 1    
    52   25   26 2    
    53   25   27 1    
    54   27   28 1    
    55   27   29 1    
    56   27  150 1    
    57   28  151 1    
    58   28  152 1    
    59   28  153 1    
    60   29   30 am   BACKBONE|DICT|INTERRES
    61   29  154 1    
    62   30   31 2    
    63   30   32 1    
    64   32   33 1    
    65   32   34 1    
    66   32  155 1    
    67   33  156 1    
    68   33  157 1    
    69   33  158 1    
    70   34   35 am   BACKBONE|DICT|INTERRES
    71   34  159 1    
    72   35   36 2    
    73   35   37 1    
    74   37   38 1    
    75   37   39 1    
    76   37  160 1    
    77   38  161 1    
    78   38  162 1    
    79   38  163 1    
    80   39   40 am   BACKBONE|DICT|INTERRES
    81   39  164 1    
    82   40   41 2    
    83   40   42 1    
    84   42   43 1    
    85   42   44 1    
    86   42  165 1    
    87   43  166 1    
    88   43  167 1    
    89   43  168 1    
    90   44   45 am   BACKBONE|DICT|INTERRES
    91   44  169 1    
    92   45   46 2    
    93   45   47 1    
    94   47   48 1    
    95   47   49 1    
    96   47  170 1    
    97   48  171 1    
    98   48  172 1    
    99   48  173 1    
   100   49   50 am   BACKBONE|DICT|INTERRES
   101   49  174 1    
   102   50   51 2    
   103   50   52 1    
   104   52   53 1    
   105   52   54 1    
   106   52  175 1    
   107   53  176 1    
   108   53  177 1    
   109   53  178 1    
   110   54   55 am   BACKBONE|DICT|INTERRES
   111   54  179 1    
   112   55   56 2    
   113   55   57 1    
   114   57   58 1    
   115   57   59 1    
   116   57  180 1    
   117   58  181 1    
   118   58  182 1    
   119   58  183 1    
   120   59   60 am   BACKBONE|DICT|INTERRES
   121   59  184 1    
   122   60   61 2    
   123   60   62 1    
   124   62   63 1    
   125   62   64 1    
   126   62  185 1    
   127   63  186 1    
   128   63  187 1    
   129   63  188 1    
   130   64   65 am   BACKBONE|DICT|INTERRES
   131   64  189 1    
   132   65   66 2    
   133   67   68 2    
   134   67   69 am   BACKBONE|DICT|INTERRES
   135   69   70 1    
   136   69  190 1    
   137   70   71 1    
   138   70   72 1    
   139   70  191 1    
   140   71  192 1    
   141   71  193 1    
   142   71  194 1    
   143   72   73 2    
   144   72   74 am   BACKBONE|DICT|INTERRES
   145   74   75 1    
   146   74  195 1    
   147   75   76 1    
   148   75   77 1    
   149   75  196 1    
   150   76  197 1    
   151   76  198 1    
   152   76  199 1    
   153   77   78 2    
   154   77   79 am   BACKBONE|DICT|INTERRES
   155   79   80 1    
   156   79  200 1    
   157   80   81 1    
   158   80   82 1    
   159   80  201 1    
   160   81  202 1    
   161   81  203 1    
   162   81  204 1    
   163   82   83 2    
   164   82   84 am   BACKBONE|DICT|INTERRES
   165   84   85 1    
   166   84  205 1    
   167   85   86 1    
   168   85   87 1    
   169   85  206 1    
   170   86  207 1    
   171   86  208 1    
   172   86  209 1    
   173   87   88 2    
   174   87   89 am   BACKBONE|DICT|INTERRES
   175   89   90 1    
   176   89  210 1    
   177   90   91 1    
   178   90   92 1    
   179   90  211 1    
   180   91  212 1    
   181   91  213 1    
   182   91  214 1    
   183   92   93 2    
   184   92   94 am   BACKBONE|DICT|INTERRES
   185   94   95 1    
   186   94  215 1    
   187   95   96 1    
   188   95   97 1    
   189   95  216 1    
   190   96  217 1    
   191   96  218 1    
   192   96  219 1    
   193   97   98 2    
   194   97   99 am   BACKBONE|DICT|INTERRES
   195   99  100 1    
   196   99  220 1    
   197  100  101 1    
   198  100  102 1    
   199  100  221 1    
   200  101  222 1    
   201  101  223 1    
   202  101  224 1    
   203  102  103 2    
   204  102  104 am   BACKBONE|DICT|INTERRES
   205  104  105 1    
   206  104  225 1    
   207  105  106 1    
   208  105  107 1    
   209  105  226 1    
   210  106  227 1    
   211  106  228 1    
   212  106  229 1    
   213  107  108 2    
   214  107  109 am   BACKBONE|DICT|INTERRES
   215  109  110 1    
   216  109  230 1    
   217  110  111 1    
   218  110  112 1    
   219  110  231 1    
   220  111  232 1    
   221  111  233 1    
   222  111  234 1    
   223  112  113 2    
   224  112  114 am   BACKBONE|DICT|INTERRES
   225  114  115 1    
   226  114  235 1    
   227  115  116 1    
   228  115  117 1    
   229  115  236 1    
   230  116  237 1    
   231  116  238 1    
   232  116  239 1    
   233  117  118 2    
   234  117  119 am   BACKBONE|DICT|INTERRES
   235  119  120 1    
   236  119  240 1    
   237  120  121 1    
   238  120  124 1    
   239  120  241 1    
   240  121  122 am   BACKBONE|DICT|INTERRES
   241  121  123 2    
   242  122  242 1    
   243  122  243 1    
   244  124  125 1    
   245  124  244 1    
   246  124  245 1    
   247  125  126 1    
   248  126  246 1    
   249  126  247 1    
@<TRIPOS>SUBSTRUCTURE
     1 UNK         1 GROUP             0       ****    0 ROOT    
