@<TRIPOS>MOLECULE
3R540
247   249    1
SMALL
USER_CHARGES


@<TRIPOS>ATOM
      1 CA          1.9346  -15.9670  -47.4745 C.3       0 UNK        -0.1800 
      2 C           0.7625  -15.0186  -47.6726 C.2       0 UNK         0.5000 
      3 O          -0.1651  -14.9973  -46.8641 O.2       0 UNK        -0.5000 
      4 N           0.8123  -14.2159  -48.7430 N.am      1 UNK        -0.5000 
      5 CA         -0.1840  -13.1993  -49.1022 C.3       1 UNK         0.1400 
      6 C6         -0.0828  -12.7970  -50.5984 C.3       23 UNK        -0.0398 
      7 S7         -0.7870  -14.0556  -51.7184 S.3       23 UNK        -0.2404 
      8 C8          0.6479  -15.1307  -52.0615 C.3       23 UNK        -0.0205 
      9 C9          0.3594  -16.6084  -51.8109 C.ar      23 UNK        -0.0193 
     10 C10         0.8301  -17.5744  -52.7070 C.ar      23 UNK        -0.1150 
     11 C11         0.6105  -18.9350  -52.4674 C.ar      23 UNK        -0.0193 
     12 C12        -0.1051  -19.3280  -51.3341 C.ar      23 UNK        -0.1150 
     13 C13        -0.5710  -18.3757  -50.4257 C.ar      23 UNK        -0.0193 
     14 C14        -0.3330  -17.0222  -50.6675 C.ar      23 UNK        -0.1150 
     15 C15        -1.3297  -18.8015  -49.1809 C.3       23 UNK        -0.0205 
     16 S16        -0.2758  -18.7939  -47.6991 S.3       23 UNK        -0.2404 
     17 C17         0.8274  -20.2188  -47.9884 C.3       23 UNK        -0.0398 
     18 CA          0.4425  -21.5302  -47.2620 C.3       11 UNK         0.1400 
     19 N           0.7086  -21.5099  -45.8218 N.am      11 UNK        -0.5000 
     20 C           0.8131  -22.6271  -45.0861 C.2       10 UNK         0.5000 
     21 O           0.6883  -23.7605  -45.5521 O.2       10 UNK        -0.5000 
     22 CA          1.0628  -22.4627  -43.5785 C.3       10 UNK         0.1400 
     23 CB          2.5289  -22.0985  -43.3015 C.3       10 UNK        -0.1800 
     24 N           0.1760  -21.4794  -42.9595 N.am      10 UNK        -0.5000 
     25 C          -1.1579  -21.5967  -42.8935 C.2       9 UNK         0.5000 
     26 O          -1.7846  -22.5562  -43.3454 O.2       9 UNK        -0.5000 
     27 CA         -1.9233  -20.4309  -42.2408 C.3       9 UNK         0.1400 
     28 CB         -1.8394  -20.5094  -40.7092 C.3       9 UNK        -0.1800 
     29 N          -1.4484  -19.1232  -42.6934 N.am      9 UNK        -0.5000 
     30 C          -1.5374  -18.6869  -43.9582 C.2       8 UNK         0.5000 
     31 O          -2.0775  -19.3244  -44.8607 O.2       8 UNK        -0.5000 
     32 CA         -0.8729  -17.3358  -44.2756 C.3       8 UNK         0.1400 
     33 CB         -1.7581  -16.1648  -43.8239 C.3       8 UNK        -0.1800 
     34 N           0.4542  -17.2098  -43.6764 N.am      8 UNK        -0.5000 
     35 C           1.4974  -18.0103  -43.9392 C.2       7 UNK         0.5000 
     36 O           1.4758  -18.9374  -44.7480 O.2       7 UNK        -0.5000 
     37 CA          2.7694  -17.7635  -43.1131 C.3       7 UNK         0.1400 
     38 CB          3.5565  -16.5619  -43.6597 C.3       7 UNK        -0.1800 
     39 N           2.4666  -17.5624  -41.6953 N.am      7 UNK        -0.5000 
     40 C           1.9681  -18.5098  -40.8868 C.2       6 UNK         0.5000 
     41 O           1.7416  -19.6655  -41.2428 O.2       6 UNK        -0.5000 
     42 CA          1.6281  -18.0813  -39.4487 C.3       6 UNK         0.1400 
     43 CB          2.8831  -18.1057  -38.5636 C.3       6 UNK        -0.1800 
     44 N           1.0189  -16.7525  -39.3928 N.am      6 UNK        -0.5000 
     45 C          -0.1925  -16.4532  -39.8830 C.2       5 UNK         0.5000 
     46 O          -0.9433  -17.2766  -40.4062 O.2       5 UNK        -0.5000 
     47 CA         -0.6051  -14.9702  -39.8238 C.3       5 UNK         0.1400 
     48 CB         -1.1908  -14.6231  -38.4470 C.3       5 UNK        -0.1800 
     49 N           0.5044  -14.0599  -40.1293 N.am      5 UNK        -0.5000 
     50 C           1.1253  -14.0143  -41.3142 C.2       4 UNK         0.5000 
     51 O           0.8212  -14.7327  -42.2705 O.2       4 UNK        -0.5000 
     52 CA          2.3060  -13.0452  -41.4503 C.3       4 UNK         0.1400 
     53 CB          3.5826  -13.6727  -40.8559 C.3       4 UNK        -0.1800 
     54 N           2.4686  -12.7751  -42.8735 N.am      4 UNK        -0.5000 
     55 C           3.2849  -11.8906  -43.4540 C.2       3 UNK         0.5000 
     56 O           4.0675  -11.1625  -42.8425 O.2       3 UNK        -0.5000 
     57 CA          3.1809  -11.7910  -44.9877 C.3       3 UNK         0.1400 
     58 CB          3.9972  -12.9054  -45.6617 C.3       3 UNK        -0.1800 
     59 N           1.7957  -11.8616  -45.4586 N.am      3 UNK        -0.5000 
     60 C           0.8748  -10.9039  -45.2760 C.2       2 UNK         0.5000 
     61 O           1.1091   -9.8384  -44.7030 O.2       2 UNK        -0.5000 
     62 CA         -0.5447  -11.1948  -45.8116 C.3       2 UNK         0.1400 
     63 CB         -1.3332   -9.9134  -46.1552 C.3       2 UNK        -0.1800 
     64 N          -0.5658  -12.1437  -46.9314 N.am      2 UNK        -0.5000 
     65 C          -0.0498  -11.9838  -48.1589 C.2       1 UNK         0.5000 
     66 O           0.5393  -10.9692  -48.5352 O.2       1 UNK        -0.5000 
     67 C          -0.9840  -22.0201  -47.5860 C.2       11 UNK         0.5000 
     68 O          -1.1573  -22.7320  -48.5744 O.2       11 UNK        -0.5000 
     69 N          -1.9686  -21.6812  -46.7380 N.am      12 UNK        -0.5000 
     70 CA         -3.3420  -22.1764  -46.8370 C.3       12 UNK         0.1400 
     71 CB         -4.2516  -21.4393  -45.8447 C.3       12 UNK        -0.1800 
     72 C          -3.4389  -23.6976  -46.6492 C.2       12 UNK         0.5000 
     73 O          -4.1653  -24.3490  -47.3978 O.2       12 UNK        -0.5000 
     74 N          -2.6765  -24.2411  -45.6910 N.am      13 UNK        -0.5000 
     75 CA         -2.5514  -25.6801  -45.4670 C.3       13 UNK         0.1400 
     76 CB         -1.8235  -25.9326  -44.1378 C.3       13 UNK        -0.1800 
     77 C          -1.8422  -26.3980  -46.6314 C.2       13 UNK         0.5000 
     78 O          -2.2931  -27.4657  -47.0470 O.2       13 UNK        -0.5000 
     79 N          -0.7577  -25.7972  -47.1409 N.am      14 UNK        -0.5000 
     80 CA          0.0595  -26.3414  -48.2255 C.3       14 UNK         0.1400 
     81 CB          1.3834  -25.5660  -48.3087 C.3       14 UNK        -0.1800 
     82 C          -0.6546  -26.3438  -49.5896 C.2       14 UNK         0.5000 
     83 O          -0.6542  -27.3700  -50.2708 O.2       14 UNK        -0.5000 
     84 N          -1.2392  -25.1999  -49.9702 N.am      15 UNK        -0.5000 
     85 CA         -1.8832  -24.9955  -51.2714 C.3       15 UNK         0.1400 
     86 CB         -1.7217  -23.5221  -51.6763 C.3       15 UNK        -0.1800 
     87 C          -3.3666  -25.4152  -51.2921 C.2       15 UNK         0.5000 
     88 O          -3.9779  -25.4023  -52.3610 O.2       15 UNK        -0.5000 
     89 N          -3.9270  -25.7573  -50.1229 N.am      16 UNK        -0.5000 
     90 CA         -5.2944  -26.2163  -49.8378 C.3       16 UNK         0.1400 
     91 CB         -5.6386  -27.4994  -50.6178 C.3       16 UNK        -0.1800 
     92 C          -6.3810  -25.1380  -50.0201 C.2       16 UNK         0.5000 
     93 O          -7.2093  -24.9588  -49.1268 O.2       16 UNK        -0.5000 
     94 N          -6.3522  -24.4289  -51.1540 N.am      17 UNK        -0.5000 
     95 CA         -7.2294  -23.2979  -51.4713 C.3       17 UNK         0.1400 
     96 CB         -7.7077  -23.4273  -52.9266 C.3       17 UNK        -0.1800 
     97 C          -6.5291  -21.9441  -51.2384 C.2       17 UNK         0.5000 
     98 O          -7.0891  -20.9063  -51.5931 O.2       17 UNK        -0.5000 
     99 N          -5.3177  -21.9715  -50.6625 N.am      18 UNK        -0.5000 
    100 CA        -4.4368  -20.8281  -50.4193 C.3       18 UNK         0.1400 
    101 CB        -5.0635  -19.8717  -49.3763 C.3       18 UNK        -0.1800 
    102 C         -4.0194  -20.1475  -51.7400 C.2       18 UNK         0.5000 
    103 O         -3.7157  -20.8427  -52.7123 O.2       18 UNK        -0.5000 
    104 N         -4.0248  -18.8086  -51.7660 N.am      19 UNK        -0.5000 
    105 CA        -3.6359  -17.9840  -52.9116 C.3       19 UNK         0.1400 
    106 CB        -3.6608  -16.5076  -52.4912 C.3       19 UNK        -0.1800 
    107 C         -4.4972  -18.2002  -54.1733 C.2       19 UNK         0.5000 
    108 O         -4.0273  -17.9101  -55.2731 O.2       19 UNK        -0.5000 
    109 N         -5.7195  -18.7303  -54.0123 N.am      20 UNK        -0.5000 
    110 CA        -6.6251  -19.0696  -55.1119 C.3       20 UNK         0.1400 
    111 CB        -8.0222  -19.3766  -54.5534 C.3       20 UNK        -0.1800 
    112 C         -6.1207  -20.2375  -55.9830 C.2       20 UNK         0.5000 
    113 O         -6.4602  -20.2863  -57.1659 O.2       20 UNK        -0.5000 
    114 N         -5.3119  -21.1402  -55.4064 N.am      21 UNK        -0.5000 
    115 CA        -4.6210  -22.1939  -56.1530 C.3       21 UNK         0.1400 
    116 CB        -4.2295  -23.3395  -55.2064 C.3       21 UNK        -0.1800 
    117 C         -3.3770  -21.6512  -56.8777 C.2       21 UNK         0.5000 
    118 O         -3.0904  -22.0759  -57.9979 O.2       21 UNK        -0.5000 
    119 N         -2.6599  -20.7350  -56.2174 N.am      22 UNK        -0.5000 
    120 CA        -1.4201  -20.1228  -56.7160 C.3       22 UNK         0.1400 
    121 C         -1.6474  -19.0531  -57.8189 C.2       22 UNK         0.5000 
    122 N         -2.7088  -18.2603  -57.7537 N.am      22 UNK        -0.7600 
    123 O         -0.8529  -18.9460  -58.7490 O.2       22 UNK        -0.5000 
    124 C124       -0.5666  -19.5483  -55.5607 C.3       23 UNK        -0.0398 
    125 S125       -0.1200  -20.8361  -54.3485 S.3       23 UNK        -0.2404 
    126 C126        1.1798  -19.9901  -53.4028 C.3       23 UNK        -0.0205 
    127 H127        2.8739  -15.4165  -47.4254 H         1 UNK         0.0600 
    128 H128        1.8199  -16.5306  -46.5489 H         1 UNK         0.0600 
    129 H129        1.9897  -16.6785  -48.2987 H         1 UNK         0.0600 
    130 H130        1.6193  -14.2630  -49.3468 H         1 UNK         0.3000 
    131 H131       -1.1798  -13.6183  -48.9391 H         1 UNK         0.0600 
    132 H132        0.9458  -12.5686  -50.8819 H         1 UNK         0.0800 
    133 H133       -0.6501  -11.8828  -50.7835 H         1 UNK         0.0800 
    134 H134        1.5022  -14.8403  -51.4510 H         1 UNK         0.0800 
    135 H135        0.9464  -14.9724  -53.0988 H         1 UNK         0.0800 
    136 H136        1.3863  -17.2689  -53.5820 H         1 UNK         0.1150 
    137 H137       -0.2841  -20.3793  -51.1550 H         1 UNK         0.1150 
    138 H138       -0.6906  -16.2908  -49.9576 H         1 UNK         0.1150 
    139 H139       -2.1609  -18.1154  -49.0157 H         1 UNK         0.0800 
    140 H140       -1.7664  -19.7900  -49.3152 H         1 UNK         0.0800 
    141 H141        1.8306  -19.9197  -47.6822 H         1 UNK         0.0800 
    142 H142        0.9050  -20.4080  -49.0578 H         1 UNK         0.0800 
    143 H143        1.1119  -22.2877  -47.6749 H         1 UNK         0.0600 
    144 H144        0.8348  -20.5980  -45.3867 H         1 UNK         0.3000 
    145 H145        0.8632  -23.4272  -43.1068 H         1 UNK         0.0600 
    146 H146        2.7353  -22.0857  -42.2313 H         1 UNK         0.0600 
    147 H147        3.2045  -22.8256  -43.7537 H         1 UNK         0.0600 
    148 H148        2.7847  -21.1179  -43.7028 H         1 UNK         0.0600 
    149 H149        0.6222  -20.6731  -42.5330 H         1 UNK         0.3000 
    150 H150       -2.9730  -20.5222  -42.5275 H         1 UNK         0.0600 
    151 H151       -2.1996  -21.4730  -40.3469 H         1 UNK         0.0600 
    152 H152       -2.4500  -19.7367  -40.2419 H         1 UNK         0.0600 
    153 H153       -0.8159  -20.3854  -40.3541 H         1 UNK         0.0600 
    154 H154       -1.0301  -18.5196  -41.9927 H         1 UNK         0.3000 
    155 H155       -0.7538  -17.2630  -45.3563 H         1 UNK         0.0600 
    156 H156       -1.8899  -16.1504  -42.7421 H         1 UNK         0.0600 
    157 H157       -2.7479  -16.2277  -44.2773 H         1 UNK         0.0600 
    158 H158       -1.3246  -15.2096  -44.1216 H         1 UNK         0.0600 
    159 H159        0.5801  -16.4398  -43.0250 H         1 UNK         0.3000 
    160 H160        3.4018  -18.6495  -43.2001 H         1 UNK         0.0600 
    161 H161        4.4870  -16.4162  -43.1110 H         1 UNK         0.0600 
    162 H162        2.9822  -15.6379  -43.5998 H         1 UNK         0.0600 
    163 H163        3.8187  -16.7143  -44.7074 H         1 UNK         0.0600 
    164 H164        2.5816  -16.6295  -41.3319 H         1 UNK         0.3000 
    165 H165        0.9122  -18.8015  -39.0467 H         1 UNK         0.0600 
    166 H166        2.6380  -17.8770  -37.5263 H         1 UNK         0.0600 
    167 H167        3.3496  -19.0917  -38.5763 H         1 UNK         0.0600 
    168 H168        3.6296  -17.3848  -38.8994 H         1 UNK         0.0600 
    169 H169        1.5673  -16.0139  -38.9782 H         1 UNK         0.3000 
    170 H170       -1.3839  -14.8146  -40.5735 H         1 UNK         0.0600 
    171 H171       -2.0288  -15.2777  -38.2037 H         1 UNK         0.0600 
    172 H172       -0.4500  -14.7293  -37.6536 H         1 UNK         0.0600 
    173 H173       -1.5633  -13.5988  -38.4241 H         1 UNK         0.0600 
    174 H174        0.8056  -13.4449  -39.3869 H         1 UNK         0.3000 
    175 H175        2.0668  -12.1133  -40.9347 H         1 UNK         0.0600 
    176 H176        3.8731  -14.5779  -41.3891 H         1 UNK         0.0600 
    177 H177        4.4241  -12.9814  -40.8939 H         1 UNK         0.0600 
    178 H178        3.4395  -13.9395  -39.8081 H         1 UNK         0.0600 
    179 H179        1.8447  -13.3252  -43.4511 H         1 UNK         0.3000 
    180 H180        3.5985  -10.8287  -45.2916 H         1 UNK         0.0600 
    181 H181        3.6128  -13.8953  -45.4140 H         1 UNK         0.0600 
    182 H182        5.0404  -12.8702  -45.3452 H         1 UNK         0.0600 
    183 H183        3.9837  -12.8024  -46.7470 H         1 UNK         0.0600 
    184 H184        1.5172  -12.7010  -45.9438 H         1 UNK         0.3000 
    185 H185       -1.0708  -11.6894  -44.9940 H         1 UNK         0.0600 
    186 H186       -1.4582   -9.2827  -45.2743 H         1 UNK         0.0600 
    187 H187       -0.8270   -9.3156  -46.9136 H         1 UNK         0.0600 
    188 H188       -2.3305  -10.1511  -46.5251 H         1 UNK         0.0600 
    189 H189       -0.9294  -13.0660  -46.7123 H         1 UNK         0.3000 
    190 H190       -1.7689  -21.0420  -45.9749 H         1 UNK         0.3000 
    191 H191       -3.6995  -21.9595  -47.8417 H         1 UNK         0.0600 
    192 H192       -3.9144  -21.5676  -44.8160 H         1 UNK         0.0600 
    193 H193       -5.2762  -21.8085  -45.9046 H         1 UNK         0.0600 
    194 H194       -4.2802  -20.3709  -46.0583 H         1 UNK         0.0600 
    195 H195       -2.1392  -23.6318  -45.0828 H         1 UNK         0.3000 
    196 H196       -3.5576  -26.0962  -45.3836 H         1 UNK         0.0600 
    197 H197       -1.7385  -27.0010  -43.9359 H         1 UNK         0.0600 
    198 H198       -2.3631  -25.4849  -43.3030 H         1 UNK         0.0600 
    199 H199       -0.8154  -25.5175  -44.1425 H         1 UNK         0.0600 
    200 H200       -0.4236  -24.9441  -46.7027 H         1 UNK         0.3000 
    201 H201        0.2968  -27.3776  -47.9751 H         1 UNK         0.0600 
    202 H202        1.9316  -25.6189  -47.3679 H         1 UNK         0.0600 
    203 H203        1.2198  -24.5139  -48.5419 H         1 UNK         0.0600 
    204 H204        2.0291  -25.9776  -49.0853 H         1 UNK         0.0600 
    205 H205       -1.1917  -24.3853  -49.3600 H         1 UNK         0.3000 
    206 H206       -1.3703  -25.5996  -52.0227 H         1 UNK         0.0600 
    207 H207       -0.6743  -23.2199  -51.6684 H         1 UNK         0.0600 
    208 H208       -2.0982  -23.3456  -52.6833 H         1 UNK         0.0600 
    209 H209       -2.2640  -22.8603  -51.0045 H         1 UNK         0.0600 
    210 H210       -3.3439  -25.6676  -49.3014 H         1 UNK         0.3000 
    211 H211       -5.2928  -26.4777  -48.7783 H         1 UNK         0.0600 
    212 H212       -5.6862  -27.3268  -51.6932 H         1 UNK         0.0600 
    213 H213       -6.6088  -27.8909  -50.3098 H         1 UNK         0.0600 
    214 H214       -4.9002  -28.2801  -50.4354 H         1 UNK         0.0600 
    215 H215       -5.6263  -24.6570  -51.8298 H         1 UNK         0.3000 
    216 H216       -8.1112  -23.3169  -50.8281 H         1 UNK         0.0600 
    217 H217       -8.4766  -22.6871  -53.1511 H         1 UNK         0.0600 
    218 H218       -8.1396  -24.4097  -53.1177 H         1 UNK         0.0600 
    219 H219       -6.8940  -23.2719  -53.6324 H         1 UNK         0.0600 
    220 H220       -4.9410  -22.8785  -50.4319 H         1 UNK         0.3000 
    221 H221       -3.5211  -21.2331  -49.9918 H         1 UNK         0.0600 
    222 H222       -5.9186  -19.3270  -49.7779 H         1 UNK         0.0600 
    223 H223       -5.4151  -20.4197  -48.5026 H         1 UNK         0.0600 
    224 H224       -4.3404  -19.1390  -49.0193 H         1 UNK         0.0600 
    225 H225       -4.3177  -18.3114  -50.9382 H         1 UNK         0.3000 
    226 H226       -2.6078  -18.2475  -53.1680 H         1 UNK         0.0600 
    227 H227       -4.6666  -16.1814  -52.2241 H         1 UNK         0.0600 
    228 H228       -3.0111  -16.3292  -51.6346 H         1 UNK         0.0600 
    229 H229       -3.3092  -15.8655  -53.2999 H         1 UNK         0.0600 
    230 H230       -6.0271  -18.9715  -53.0801 H         1 UNK         0.3000 
    231 H231       -6.7063  -18.1918  -55.7564 H         1 UNK         0.0600 
    232 H232       -8.3933  -18.5581  -53.9365 H         1 UNK         0.0600 
    233 H233       -8.0241  -20.2831  -53.9491 H         1 UNK         0.0600 
    234 H234       -8.7388  -19.5251  -55.3621 H         1 UNK         0.0600 
    235 H235       -5.0507  -21.0216  -54.4345 H         1 UNK         0.3000 
    236 H236       -5.2951  -22.6021  -56.9092 H         1 UNK         0.0600 
    237 H237       -3.6115  -24.0786  -55.7179 H         1 UNK         0.0600 
    238 H238       -3.6630  -22.9783  -54.3493 H         1 UNK         0.0600 
    239 H239       -5.1051  -23.8665  -54.8331 H         1 UNK         0.0600 
    240 H240       -2.9587  -20.4559  -55.2948 H         1 UNK         0.3000 
    241 H241       -0.8320  -20.9172  -57.1808 H         1 UNK         0.0600 
    242 H242       -2.8591  -17.5716  -58.4731 H         1 UNK         0.3800 
    243 H243       -3.3100  -18.2681  -56.9324 H         1 UNK         0.3800 
    244 H244        0.3533  -19.1097  -55.9517 H         1 UNK         0.0800 
    245 H245       -1.0990  -18.7465  -55.0468 H         1 UNK         0.0800 
    246 H246        1.7186  -20.7318  -52.8116 H         1 UNK         0.0800 
    247 H247        1.9120  -19.5574  -54.0861 H         1 UNK         0.0800 
@<TRIPOS>BOND
     1    1    2 1    
     2    1  127 1    
     3    1  128 1    
     4    1  129 1    
     5    2    3 2    
     6    2    4 am   BACKBONE|DICT|INTERRES
     7    4    5 1    
     8    4  130 1    
     9    5    6 1    
    10    5   65 1    
    11    5  131 1    
    12    6    7 1    
    13    6  132 1    
    14    6  133 1    
    15    7    8 1    
    16    8    9 1    
    17    8  134 1    
    18    8  135 1    
    19    9   10 ar   
    20    9   14 ar   
    21   10   11 ar   
    22   10  136 1    
    23   11   12 ar   
    24   11  126 1    
    25   12   13 ar   
    26   12  137 1    
    27   13   14 ar   
    28   13   15 1    
    29   14  138 1    
    30   15   16 1    
    31   15  139 1    
    32   15  140 1    
    33   16   17 1    
    34   17   18 1    
    35   17  141 1    
    36   17  142 1    
    37   18   19 1    
    38   18   67 1    
    39   18  143 1    
    40   19   20 am   BACKBONE|DICT|INTERRES
    41   19  144 1    
    42   20   21 2    
    43   20   22 1    
    44   22   23 1    
    45   22   24 1    
    46   22  145 1    
    47   23  146 1    
    48   23  147 1    
    49   23  148 1    
    50   24   25 am   BACKBONE|DICT|INTERRES
    51   24  149 1    
    52   25   26 2    
    53   25   27 1    
    54   27   28 1    
    55   27   29 1    
    56   27  150 1    
    57   28  151 1    
    58   28  152 1    
    59   28  153 1    
    60   29   30 am   BACKBONE|DICT|INTERRES
    61   29  154 1    
    62   30   31 2    
    63   30   32 1    
    64   32   33 1    
    65   32   34 1    
    66   32  155 1    
    67   33  156 1    
    68   33  157 1    
    69   33  158 1    
    70   34   35 am   BACKBONE|DICT|INTERRES
    71   34  159 1    
    72   35   36 2    
    73   35   37 1    
    74   37   38 1    
    75   37   39 1    
    76   37  160 1    
    77   38  161 1    
    78   38  162 1    
    79   38  163 1    
    80   39   40 am   BACKBONE|DICT|INTERRES
    81   39  164 1    
    82   40   41 2    
    83   40   42 1    
    84   42   43 1    
    85   42   44 1    
    86   42  165 1    
    87   43  166 1    
    88   43  167 1    
    89   43  168 1    
    90   44   45 am   BACKBONE|DICT|INTERRES
    91   44  169 1    
    92   45   46 2    
    93   45   47 1    
    94   47   48 1    
    95   47   49 1    
    96   47  170 1    
    97   48  171 1    
    98   48  172 1    
    99   48  173 1    
   100   49   50 am   BACKBONE|DICT|INTERRES
   101   49  174 1    
   102   50   51 2    
   103   50   52 1    
   104   52   53 1    
   105   52   54 1    
   106   52  175 1    
   107   53  176 1    
   108   53  177 1    
   109   53  178 1    
   110   54   55 am   BACKBONE|DICT|INTERRES
   111   54  179 1    
   112   55   56 2    
   113   55   57 1    
   114   57   58 1    
   115   57   59 1    
   116   57  180 1    
   117   58  181 1    
   118   58  182 1    
   119   58  183 1    
   120   59   60 am   BACKBONE|DICT|INTERRES
   121   59  184 1    
   122   60   61 2    
   123   60   62 1    
   124   62   63 1    
   125   62   64 1    
   126   62  185 1    
   127   63  186 1    
   128   63  187 1    
   129   63  188 1    
   130   64   65 am   BACKBONE|DICT|INTERRES
   131   64  189 1    
   132   65   66 2    
   133   67   68 2    
   134   67   69 am   BACKBONE|DICT|INTERRES
   135   69   70 1    
   136   69  190 1    
   137   70   71 1    
   138   70   72 1    
   139   70  191 1    
   140   71  192 1    
   141   71  193 1    
   142   71  194 1    
   143   72   73 2    
   144   72   74 am   BACKBONE|DICT|INTERRES
   145   74   75 1    
   146   74  195 1    
   147   75   76 1    
   148   75   77 1    
   149   75  196 1    
   150   76  197 1    
   151   76  198 1    
   152   76  199 1    
   153   77   78 2    
   154   77   79 am   BACKBONE|DICT|INTERRES
   155   79   80 1    
   156   79  200 1    
   157   80   81 1    
   158   80   82 1    
   159   80  201 1    
   160   81  202 1    
   161   81  203 1    
   162   81  204 1    
   163   82   83 2    
   164   82   84 am   BACKBONE|DICT|INTERRES
   165   84   85 1    
   166   84  205 1    
   167   85   86 1    
   168   85   87 1    
   169   85  206 1    
   170   86  207 1    
   171   86  208 1    
   172   86  209 1    
   173   87   88 2    
   174   87   89 am   BACKBONE|DICT|INTERRES
   175   89   90 1    
   176   89  210 1    
   177   90   91 1    
   178   90   92 1    
   179   90  211 1    
   180   91  212 1    
   181   91  213 1    
   182   91  214 1    
   183   92   93 2    
   184   92   94 am   BACKBONE|DICT|INTERRES
   185   94   95 1    
   186   94  215 1    
   187   95   96 1    
   188   95   97 1    
   189   95  216 1    
   190   96  217 1    
   191   96  218 1    
   192   96  219 1    
   193   97   98 2    
   194   97   99 am   BACKBONE|DICT|INTERRES
   195   99  100 1    
   196   99  220 1    
   197  100  101 1    
   198  100  102 1    
   199  100  221 1    
   200  101  222 1    
   201  101  223 1    
   202  101  224 1    
   203  102  103 2    
   204  102  104 am   BACKBONE|DICT|INTERRES
   205  104  105 1    
   206  104  225 1    
   207  105  106 1    
   208  105  107 1    
   209  105  226 1    
   210  106  227 1    
   211  106  228 1    
   212  106  229 1    
   213  107  108 2    
   214  107  109 am   BACKBONE|DICT|INTERRES
   215  109  110 1    
   216  109  230 1    
   217  110  111 1    
   218  110  112 1    
   219  110  231 1    
   220  111  232 1    
   221  111  233 1    
   222  111  234 1    
   223  112  113 2    
   224  112  114 am   BACKBONE|DICT|INTERRES
   225  114  115 1    
   226  114  235 1    
   227  115  116 1    
   228  115  117 1    
   229  115  236 1    
   230  116  237 1    
   231  116  238 1    
   232  116  239 1    
   233  117  118 2    
   234  117  119 am   BACKBONE|DICT|INTERRES
   235  119  120 1    
   236  119  240 1    
   237  120  121 1    
   238  120  124 1    
   239  120  241 1    
   240  121  122 am   BACKBONE|DICT|INTERRES
   241  121  123 2    
   242  122  242 1    
   243  122  243 1    
   244  124  125 1    
   245  124  244 1    
   246  124  245 1    
   247  125  126 1    
   248  126  246 1    
   249  126  247 1    
@<TRIPOS>SUBSTRUCTURE
     1 UNK         1 GROUP             0       ****    0 ROOT    
