@<TRIPOS>MOLECULE
3R540
247   249    1
SMALL
USER_CHARGES


@<TRIPOS>ATOM
      1 CA         -1.2513  -14.7533  -50.9104 C.3       0 UNK        -0.1800 
      2 C          -0.2611  -13.6177  -50.6970 C.2       0 UNK         0.5000 
      3 O          -0.3504  -12.5942  -51.3759 O.2       0 UNK        -0.5000 
      4 N           0.6854  -13.7945  -49.7674 N.am      1 UNK        -0.5000 
      5 CA          1.6636  -12.7781  -49.3703 C.3       1 UNK         0.1400 
      6 C6          2.9303  -13.3980  -48.7231 C.3       23 UNK        -0.0398 
      7 S7          2.6064  -14.4703  -47.2783 S.3       23 UNK        -0.2404 
      8 C8          3.9462  -15.7036  -47.4061 C.3       23 UNK        -0.0205 
      9 C9          3.6050  -16.9556  -48.2156 C.ar      23 UNK        -0.0193 
     10 C10         2.7442  -16.9223  -49.3205 C.ar      23 UNK        -0.1150 
     11 C11         2.4668  -18.0830  -50.0463 C.ar      23 UNK        -0.0193 
     12 C12         3.0785  -19.2831  -49.6842 C.ar      23 UNK        -0.1150 
     13 C13         3.9369  -19.3379  -48.5843 C.ar      23 UNK        -0.0193 
     14 C14         4.1948  -18.1730  -47.8556 C.ar      23 UNK        -0.1150 
     15 C15         4.5841  -20.6572  -48.1892 C.3       23 UNK        -0.0205 
     16 S16         3.5936  -21.5640  -46.9597 S.3       23 UNK        -0.2404 
     17 C17         2.0692  -21.8958  -47.9060 C.3       23 UNK        -0.0398 
     18 CA          1.1683  -22.9502  -47.2281 C.3       11 UNK         0.1400 
     19 N           0.6191  -22.4823  -45.9523 N.am      11 UNK        -0.5000 
     20 C          -0.0461  -23.2562  -45.0843 C.2       10 UNK         0.5000 
     21 O          -0.2306  -24.4636  -45.2469 O.2       10 UNK        -0.5000 
     22 CA         -0.6449  -22.5564  -43.8509 C.3       10 UNK         0.1400 
     23 CB          0.4368  -22.2804  -42.7960 C.3       10 UNK        -0.1800 
     24 N          -1.3413  -21.3131  -44.1904 N.am      10 UNK        -0.5000 
     25 C          -2.4472  -21.2542  -44.9467 C.2       9 UNK         0.5000 
     26 O          -3.0107  -22.2468  -45.4042 O.2       9 UNK        -0.5000 
     27 CA         -3.0076  -19.8604  -45.2822 C.3       9 UNK         0.1400 
     28 CB         -3.8681  -19.3252  -44.1289 C.3       9 UNK        -0.1800 
     29 N          -1.9732  -18.8847  -45.6210 N.am      9 UNK        -0.5000 
     30 C          -1.1333  -18.9963  -46.6604 C.2       8 UNK         0.5000 
     31 O          -1.1504  -19.9331  -47.4558 O.2       8 UNK        -0.5000 
     32 CA         -0.0515  -17.9108  -46.7939 C.3       8 UNK         0.1400 
     33 CB         -0.6627  -16.6040  -47.3204 C.3       8 UNK        -0.1800 
     34 N           0.6505  -17.6656  -45.5328 N.am      8 UNK        -0.5000 
     35 C           1.3025  -18.6079  -44.8341 C.2       7 UNK         0.5000 
     36 O           1.4247  -19.7768  -45.1963 O.2       7 UNK        -0.5000 
     37 CA          1.8364  -18.1935  -43.4561 C.3       7 UNK         0.1400 
     38 CB          3.1477  -17.4027  -43.5847 C.3       7 UNK        -0.1800 
     39 N           0.8386  -17.4170  -42.7190 N.am      7 UNK        -0.5000 
     40 C          -0.2828  -17.9413  -42.2004 C.2       6 UNK         0.5000 
     41 O          -0.5617  -19.1389  -42.2511 O.2       6 UNK        -0.5000 
     42 CA         -1.2777  -16.9659  -41.5430 C.3       6 UNK         0.1400 
     43 CB         -0.9094  -16.7296  -40.0709 C.3       6 UNK        -0.1800 
     44 N          -1.3545  -15.6793  -42.2341 N.am      6 UNK        -0.5000 
     45 C          -1.8359  -15.5102  -43.4736 C.2       5 UNK         0.5000 
     46 O          -2.3261  -16.4178  -44.1439 O.2       5 UNK        -0.5000 
     47 CA         -1.7023  -14.1018  -44.0849 C.3       5 UNK         0.1400 
     48 CB         -2.9593  -13.2671  -43.8007 C.3       5 UNK        -0.1800 
     49 N          -0.5219  -13.3665  -43.6226 N.am      5 UNK        -0.5000 
     50 C           0.7481  -13.7648  -43.7712 C.2       4 UNK         0.5000 
     51 O           1.0550  -14.8446  -44.2782 O.2       4 UNK        -0.5000 
     52 CA          1.8394  -12.8130  -43.2353 C.3       4 UNK         0.1400 
     53 CB          3.2630  -13.2704  -43.5982 C.3       4 UNK        -0.1800 
     54 N           1.6603  -11.4348  -43.6943 N.am      4 UNK        -0.5000 
     55 C           0.8038  -10.5360  -43.1984 C.2       3 UNK         0.5000 
     56 O           0.0102  -10.7912  -42.2915 O.2       3 UNK        -0.5000 
     57 CA          0.8081   -9.1286  -43.8280 C.3       3 UNK         0.1400 
     58 CB          2.0207   -8.3071  -43.3491 C.3       3 UNK        -0.1800 
     59 N           0.6889   -9.1096  -45.2934 N.am      3 UNK        -0.5000 
     60 C           1.5499   -9.5590  -46.2165 C.2       2 UNK         0.5000 
     61 O           2.6359  -10.0853  -45.9585 O.2       2 UNK        -0.5000 
     62 CA          1.1302   -9.3605  -47.6841 C.3       2 UNK         0.1400 
     63 CB          1.7357   -8.0647  -48.2453 C.3       2 UNK        -0.1800 
     64 N           1.5532  -10.4840  -48.5185 N.am      2 UNK        -0.5000 
     65 C           1.0120  -11.7076  -48.4673 C.2       1 UNK         0.5000 
     66 O           0.0498  -11.9979  -47.7501 O.2       1 UNK        -0.5000 
     67 C           0.0553  -23.4109  -48.1901 C.2       11 UNK         0.5000 
     68 O           0.1962  -24.4616  -48.8160 O.2       11 UNK        -0.5000 
     69 N          -1.0452  -22.6491  -48.2618 N.am      12 UNK        -0.5000 
     70 CA         -2.2298  -22.9851  -49.0471 C.3       12 UNK         0.1400 
     71 CB         -3.2168  -21.8150  -49.0313 C.3       12 UNK        -0.1800 
     72 C          -2.9100  -24.2746  -48.5637 C.2       12 UNK         0.5000 
     73 O          -3.2440  -25.1167  -49.3928 O.2       12 UNK        -0.5000 
     74 N          -3.0548  -24.4391  -47.2411 N.am      13 UNK        -0.5000 
     75 CA         -3.5981  -25.6446  -46.6132 C.3       13 UNK         0.1400 
     76 CB         -3.7556  -25.4220  -45.1018 C.3       13 UNK        -0.1800 
     77 C          -2.7523  -26.8990  -46.8975 C.2       13 UNK         0.5000 
     78 O          -3.3182  -27.9546  -47.1821 O.2       13 UNK        -0.5000 
     79 N          -1.4196  -26.7520  -46.8695 N.am      14 UNK        -0.5000 
     80 CA         -0.4637  -27.7992  -47.2378 C.3       14 UNK         0.1400 
     81 CB          0.9543  -27.3605  -46.8421 C.3       14 UNK        -0.1800 
     82 C          -0.5291  -28.1728  -48.7331 C.2       14 UNK         0.5000 
     83 O          -0.4042  -29.3503  -49.0711 O.2       14 UNK        -0.5000 
     84 N          -0.7524  -27.1722  -49.5958 N.am      15 UNK        -0.5000 
     85 CA         -0.9390  -27.3292  -51.0409 C.3       15 UNK         0.1400 
     86 CB         -0.6566  -25.9794  -51.7215 C.3       15 UNK        -0.1800 
     87 C          -2.3403  -27.8440  -51.4367 C.2       15 UNK         0.5000 
     88 O          -2.5323  -28.2153  -52.5953 O.2       15 UNK        -0.5000 
     89 N          -3.2876  -27.8368  -50.4868 N.am      16 UNK        -0.5000 
     90 CA         -4.7198  -28.1167  -50.6384 C.3       16 UNK         0.1400 
     91 CB         -4.9630  -29.5835  -51.0513 C.3       16 UNK        -0.1800 
     92 C          -5.4260  -27.0920  -51.5550 C.2       16 UNK         0.5000 
     93 O          -6.2686  -27.4626  -52.3751 O.2       16 UNK        -0.5000 
     94 N          -5.0575  -25.8172  -51.3934 N.am      17 UNK        -0.5000 
     95 CA         -5.5765  -24.6608  -52.1160 C.3       17 UNK         0.1400 
     96 CB         -4.3926  -23.9715  -52.8183 C.3       17 UNK        -0.1800 
     97 C          -6.2543  -23.6828  -51.1401 C.2       17 UNK         0.5000 
     98 O          -6.1173  -23.8160  -49.9214 O.2       17 UNK        -0.5000 
     99 N          -6.9530  -22.6876  -51.6986 N.am      18 UNK        -0.5000 
    100 CA        -7.4482  -21.5219  -50.9658 C.3       18 UNK         0.1400 
    101 CB        -8.5578  -20.8522  -51.7910 C.3       18 UNK        -0.1800 
    102 C         -6.3018  -20.5256  -50.7201 C.2       18 UNK         0.5000 
    103 O         -5.3947  -20.4324  -51.5503 O.2       18 UNK        -0.5000 
    104 N         -6.3756  -19.7600  -49.6234 N.am      19 UNK        -0.5000 
    105 CA        -5.3680  -18.7605  -49.2393 C.3       19 UNK         0.1400 
    106 CB        -5.6966  -18.2191  -47.8398 C.3       19 UNK        -0.1800 
    107 C         -5.2121  -17.6056  -50.2499 C.2       19 UNK         0.5000 
    108 O         -4.1269  -17.0362  -50.3580 O.2       19 UNK        -0.5000 
    109 N         -6.2897  -17.3021  -50.9872 N.am      20 UNK        -0.5000 
    110 CA        -6.3028  -16.3265  -52.0775 C.3       20 UNK         0.1400 
    111 CB        -7.7593  -15.9611  -52.4025 C.3       20 UNK        -0.1800 
    112 C         -5.5791  -16.8293  -53.3428 C.2       20 UNK         0.5000 
    113 O         -5.0371  -16.0136  -54.0893 O.2       20 UNK        -0.5000 
    114 N         -5.5841  -18.1518  -53.5641 N.am      21 UNK        -0.5000 
    115 CA        -4.8690  -18.8089  -54.6583 C.3       21 UNK         0.1400 
    116 CB        -5.5752  -20.1263  -55.0191 C.3       21 UNK        -0.1800 
    117 C         -3.4006  -19.0536  -54.2754 C.2       21 UNK         0.5000 
    118 O         -2.5051  -18.7565  -55.0664 O.2       21 UNK        -0.5000 
    119 N         -3.1902  -19.5577  -53.0522 N.am      22 UNK        -0.5000 
    120 CA        -1.8846  -19.7813  -52.4139 C.3       22 UNK         0.1400 
    121 C         -1.0261  -20.9228  -53.0437 C.2       22 UNK         0.5000 
    122 N         -1.6090  -21.8260  -53.8229 N.am      22 UNK        -0.7600 
    123 O          0.1756  -21.0138  -52.8116 O.2       22 UNK        -0.5000 
    124 C124       -1.1118  -18.4487  -52.1982 C.3       23 UNK        -0.0398 
    125 S125       -0.1910  -18.4222  -50.6263 S.3       23 UNK        -0.2404 
    126 C126        1.4893  -18.0521  -51.2075 C.3       23 UNK        -0.0205 
    127 H127       -2.2689  -14.4089  -50.7266 H         1 UNK         0.0600 
    128 H128       -1.0539  -15.5909  -50.2440 H         1 UNK         0.0600 
    129 H129       -1.1929  -15.1160  -51.9364 H         1 UNK         0.0600 
    130 H130        0.6736  -14.6230  -49.1916 H         1 UNK         0.3000 
    131 H131        1.9931  -12.2700  -50.2795 H         1 UNK         0.0600 
    132 H132        3.4650  -13.9749  -49.4783 H         1 UNK         0.0800 
    133 H133        3.6254  -12.6148  -48.4155 H         1 UNK         0.0800 
    134 H134        4.2064  -15.9951  -46.3876 H         1 UNK         0.0800 
    135 H135        4.8388  -15.2377  -47.8249 H         1 UNK         0.0800 
    136 H136        2.2753  -15.9998  -49.6204 H         1 UNK         0.1150 
    137 H137        2.8663  -20.1802  -50.2486 H         1 UNK         0.1150 
    138 H138        4.8606  -18.2168  -47.0051 H         1 UNK         0.1150 
    139 H139        4.7367  -21.2844  -49.0688 H         1 UNK         0.0800 
    140 H140        5.5758  -20.4714  -47.7742 H         1 UNK         0.0800 
    141 H141        2.3608  -22.2292  -48.9037 H         1 UNK         0.0800 
    142 H142        1.5222  -20.9595  -48.0338 H         1 UNK         0.0800 
    143 H143        1.7822  -23.8280  -47.0146 H         1 UNK         0.0600 
    144 H144        0.7662  -21.5001  -45.7302 H         1 UNK         0.3000 
    145 H145       -1.3767  -23.2365  -43.4101 H         1 UNK         0.0600 
    146 H146        0.0016  -21.8718  -41.8840 H         1 UNK         0.0600 
    147 H147        0.9600  -23.1979  -42.5241 H         1 UNK         0.0600 
    148 H148        1.1824  -21.5717  -43.1569 H         1 UNK         0.0600 
    149 H149       -0.9496  -20.4549  -43.8182 H         1 UNK         0.3000 
    150 H150       -3.6494  -19.9699  -46.1581 H         1 UNK         0.0600 
    151 H151       -4.6560  -20.0327  -43.8676 H         1 UNK         0.0600 
    152 H152       -4.3513  -18.3868  -44.4015 H         1 UNK         0.0600 
    153 H153       -3.2731  -19.1479  -43.2326 H         1 UNK         0.0600 
    154 H154       -1.9178  -18.0591  -45.0303 H         1 UNK         0.3000 
    155 H155        0.6850  -18.2633  -47.5189 H         1 UNK         0.0600 
    156 H156       -1.3475  -16.1566  -46.6021 H         1 UNK         0.0600 
    157 H157        0.1076  -15.8713  -47.5497 H         1 UNK         0.0600 
    158 H158       -1.2278  -16.7833  -48.2351 H         1 UNK         0.0600 
    159 H159        0.6223  -16.7221  -45.1620 H         1 UNK         0.3000 
    160 H160        2.0487  -19.1020  -42.8883 H         1 UNK         0.0600 
    161 H161        3.0296  -16.5133  -44.2027 H         1 UNK         0.0600 
    162 H162        3.9215  -18.0154  -44.0487 H         1 UNK         0.0600 
    163 H163        3.5198  -17.0894  -42.6094 H         1 UNK         0.0600 
    164 H164        0.9530  -16.4126  -42.7293 H         1 UNK         0.3000 
    165 H165       -2.2668  -17.4274  -41.5772 H         1 UNK         0.0600 
    166 H166       -1.6504  -16.1026  -39.5746 H         1 UNK         0.0600 
    167 H167       -0.8648  -17.6726  -39.5243 H         1 UNK         0.0600 
    168 H168        0.0628  -16.2455  -39.9705 H         1 UNK         0.0600 
    169 H169       -0.9718  -14.8776  -41.7554 H         1 UNK         0.3000 
    170 H170       -1.6086  -14.2204  -45.1659 H         1 UNK         0.0600 
    171 H171       -3.8557  -13.7779  -44.1550 H         1 UNK         0.0600 
    172 H172       -3.0860  -13.0813  -42.7334 H         1 UNK         0.0600 
    173 H173       -2.9143  -12.3026  -44.3068 H         1 UNK         0.0600 
    174 H174       -0.6812  -12.4733  -43.1692 H         1 UNK         0.3000 
    175 H175        1.7599  -12.8280  -42.1465 H         1 UNK         0.0600 
    176 H176        3.4199  -13.2755  -44.6768 H         1 UNK         0.0600 
    177 H177        4.0118  -12.6131  -43.1561 H         1 UNK         0.0600 
    178 H178        3.4608  -14.2771  -43.2292 H         1 UNK         0.0600 
    179 H179        2.2253  -11.1414  -44.4879 H         1 UNK         0.3000 
    180 H180       -0.0859   -8.6238  -43.4582 H         1 UNK         0.0600 
    181 H181        2.9667   -8.7478  -43.6646 H         1 UNK         0.0600 
    182 H182        2.0403   -8.2437  -42.2604 H         1 UNK         0.0600 
    183 H183        1.9817   -7.2877  -43.7329 H         1 UNK         0.0600 
    184 H184       -0.1791   -8.7151  -45.6291 H         1 UNK         0.3000 
    185 H185        0.0417   -9.2850  -47.7364 H         1 UNK         0.0600 
    186 H186        1.4192   -7.2002  -47.6603 H         1 UNK         0.0600 
    187 H187        2.8262   -8.0896  -48.2292 H         1 UNK         0.0600 
    188 H188        1.4182   -7.8932  -49.2741 H         1 UNK         0.0600 
    189 H189        2.3578  -10.3225  -49.1064 H         1 UNK         0.3000 
    190 H190       -1.0718  -21.7629  -47.7613 H         1 UNK         0.3000 
    191 H191       -1.9078  -23.1394  -50.0790 H         1 UNK         0.0600 
    192 H192       -3.6196  -21.6337  -48.0351 H         1 UNK         0.0600 
    193 H193       -4.0552  -22.0171  -49.6950 H         1 UNK         0.0600 
    194 H194       -2.7421  -20.8970  -49.3721 H         1 UNK         0.0600 
    195 H195       -2.8041  -23.6759  -46.6175 H         1 UNK         0.3000 
    196 H196       -4.5909  -25.8144  -47.0352 H         1 UNK         0.0600 
    197 H197       -4.1631  -26.3092  -44.6157 H         1 UNK         0.0600 
    198 H198       -4.4372  -24.5968  -44.8951 H         1 UNK         0.0600 
    199 H199       -2.8016  -25.1945  -44.6258 H         1 UNK         0.0600 
    200 H200       -1.0334  -25.8577  -46.5849 H         1 UNK         0.3000 
    201 H201       -0.7121  -28.6940  -46.6632 H         1 UNK         0.0600 
    202 H202        1.0190  -27.1546  -45.7734 H         1 UNK         0.0600 
    203 H203        1.2626  -26.4604  -47.3738 H         1 UNK         0.0600 
    204 H204        1.6816  -28.1409  -47.0686 H         1 UNK         0.0600 
    205 H205       -0.7793  -26.2223  -49.2394 H         1 UNK         0.3000 
    206 H206       -0.2093  -28.0536  -51.4079 H         1 UNK         0.0600 
    207 H207        0.3459  -25.6206  -51.4878 H         1 UNK         0.0600 
    208 H208       -0.7267  -26.0641  -52.8065 H         1 UNK         0.0600 
    209 H209       -1.3671  -25.2143  -51.4074 H         1 UNK         0.0600 
    210 H210       -3.0190  -27.4644  -49.5853 H         1 UNK         0.3000 
    211 H211       -5.1550  -27.9816  -49.6472 H         1 UNK         0.0600 
    212 H212       -4.6149  -29.7856  -52.0644 H         1 UNK         0.0600 
    213 H213       -6.0258  -29.8255  -51.0183 H         1 UNK         0.0600 
    214 H214       -4.4530  -30.2715  -50.3769 H         1 UNK         0.0600 
    215 H215       -4.4008  -25.5940  -50.6449 H         1 UNK         0.3000 
    216 H216       -6.3111  -24.9676  -52.8630 H         1 UNK         0.0600 
    217 H217       -4.7236  -23.1185  -53.4111 H         1 UNK         0.0600 
    218 H218       -3.8829  -24.6581  -53.4946 H         1 UNK         0.0600 
    219 H219       -3.6573  -23.6062  -52.0995 H         1 UNK         0.0600 
    220 H220       -6.9949  -22.6279  -52.7050 H         1 UNK         0.3000 
    221 H221       -7.8608  -21.8416  -50.0065 H         1 UNK         0.0600 
    222 H222       -8.1895  -20.5023  -52.7566 H         1 UNK         0.0600 
    223 H223       -9.3803  -21.5431  -51.9774 H         1 UNK         0.0600 
    224 H224       -8.9724  -19.9908  -51.2658 H         1 UNK         0.0600 
    225 H225       -7.1554  -19.8776  -48.9923 H         1 UNK         0.3000 
    226 H226       -4.4021  -19.2631  -49.1841 H         1 UNK         0.0600 
    227 H227       -5.7479  -19.0235  -47.1061 H         1 UNK         0.0600 
    228 H228       -4.9285  -17.5219  -47.5012 H         1 UNK         0.0600 
    229 H229       -6.6506  -17.6908  -47.8264 H         1 UNK         0.0600 
    230 H230       -7.1461  -17.8075  -50.8161 H         1 UNK         0.3000 
    231 H231       -5.7911  -15.4227  -51.7393 H         1 UNK         0.0600 
    232 H232       -7.8066  -15.2153  -53.1972 H         1 UNK         0.0600 
    233 H233       -8.2638  -15.5396  -51.5328 H         1 UNK         0.0600 
    234 H234       -8.3289  -16.8304  -52.7338 H         1 UNK         0.0600 
    235 H235       -5.9900  -18.7584  -52.8655 H         1 UNK         0.3000 
    236 H236       -4.8878  -18.1662  -55.5411 H         1 UNK         0.0600 
    237 H237       -6.6041  -19.9467  -55.3310 H         1 UNK         0.0600 
    238 H238       -5.0678  -20.6254  -55.8455 H         1 UNK         0.0600 
    239 H239       -5.5983  -20.8224  -54.1809 H         1 UNK         0.0600 
    240 H240       -3.9989  -19.8145  -52.4888 H         1 UNK         0.3000 
    241 H241       -2.1521  -20.1659  -51.4315 H         1 UNK         0.0600 
    242 H242       -2.5909  -21.7626  -54.0328 H         1 UNK         0.3800 
    243 H243       -1.0524  -22.5629  -54.2251 H         1 UNK         0.3800 
    244 H244       -0.4556  -18.2324  -53.0428 H         1 UNK         0.0800 
    245 H245       -1.8116  -17.6132  -52.1476 H         1 UNK         0.0800 
    246 H246        1.7834  -18.7810  -51.9645 H         1 UNK         0.0800 
    247 H247        1.5023  -17.0736  -51.6902 H         1 UNK         0.0800 
@<TRIPOS>BOND
     1    1    2 1    
     2    1  127 1    
     3    1  128 1    
     4    1  129 1    
     5    2    3 2    
     6    2    4 am   BACKBONE|DICT|INTERRES
     7    4    5 1    
     8    4  130 1    
     9    5    6 1    
    10    5   65 1    
    11    5  131 1    
    12    6    7 1    
    13    6  132 1    
    14    6  133 1    
    15    7    8 1    
    16    8    9 1    
    17    8  134 1    
    18    8  135 1    
    19    9   10 ar   
    20    9   14 ar   
    21   10   11 ar   
    22   10  136 1    
    23   11   12 ar   
    24   11  126 1    
    25   12   13 ar   
    26   12  137 1    
    27   13   14 ar   
    28   13   15 1    
    29   14  138 1    
    30   15   16 1    
    31   15  139 1    
    32   15  140 1    
    33   16   17 1    
    34   17   18 1    
    35   17  141 1    
    36   17  142 1    
    37   18   19 1    
    38   18   67 1    
    39   18  143 1    
    40   19   20 am   BACKBONE|DICT|INTERRES
    41   19  144 1    
    42   20   21 2    
    43   20   22 1    
    44   22   23 1    
    45   22   24 1    
    46   22  145 1    
    47   23  146 1    
    48   23  147 1    
    49   23  148 1    
    50   24   25 am   BACKBONE|DICT|INTERRES
    51   24  149 1    
    52   25   26 2    
    53   25   27 1    
    54   27   28 1    
    55   27   29 1    
    56   27  150 1    
    57   28  151 1    
    58   28  152 1    
    59   28  153 1    
    60   29   30 am   BACKBONE|DICT|INTERRES
    61   29  154 1    
    62   30   31 2    
    63   30   32 1    
    64   32   33 1    
    65   32   34 1    
    66   32  155 1    
    67   33  156 1    
    68   33  157 1    
    69   33  158 1    
    70   34   35 am   BACKBONE|DICT|INTERRES
    71   34  159 1    
    72   35   36 2    
    73   35   37 1    
    74   37   38 1    
    75   37   39 1    
    76   37  160 1    
    77   38  161 1    
    78   38  162 1    
    79   38  163 1    
    80   39   40 am   BACKBONE|DICT|INTERRES
    81   39  164 1    
    82   40   41 2    
    83   40   42 1    
    84   42   43 1    
    85   42   44 1    
    86   42  165 1    
    87   43  166 1    
    88   43  167 1    
    89   43  168 1    
    90   44   45 am   BACKBONE|DICT|INTERRES
    91   44  169 1    
    92   45   46 2    
    93   45   47 1    
    94   47   48 1    
    95   47   49 1    
    96   47  170 1    
    97   48  171 1    
    98   48  172 1    
    99   48  173 1    
   100   49   50 am   BACKBONE|DICT|INTERRES
   101   49  174 1    
   102   50   51 2    
   103   50   52 1    
   104   52   53 1    
   105   52   54 1    
   106   52  175 1    
   107   53  176 1    
   108   53  177 1    
   109   53  178 1    
   110   54   55 am   BACKBONE|DICT|INTERRES
   111   54  179 1    
   112   55   56 2    
   113   55   57 1    
   114   57   58 1    
   115   57   59 1    
   116   57  180 1    
   117   58  181 1    
   118   58  182 1    
   119   58  183 1    
   120   59   60 am   BACKBONE|DICT|INTERRES
   121   59  184 1    
   122   60   61 2    
   123   60   62 1    
   124   62   63 1    
   125   62   64 1    
   126   62  185 1    
   127   63  186 1    
   128   63  187 1    
   129   63  188 1    
   130   64   65 am   BACKBONE|DICT|INTERRES
   131   64  189 1    
   132   65   66 2    
   133   67   68 2    
   134   67   69 am   BACKBONE|DICT|INTERRES
   135   69   70 1    
   136   69  190 1    
   137   70   71 1    
   138   70   72 1    
   139   70  191 1    
   140   71  192 1    
   141   71  193 1    
   142   71  194 1    
   143   72   73 2    
   144   72   74 am   BACKBONE|DICT|INTERRES
   145   74   75 1    
   146   74  195 1    
   147   75   76 1    
   148   75   77 1    
   149   75  196 1    
   150   76  197 1    
   151   76  198 1    
   152   76  199 1    
   153   77   78 2    
   154   77   79 am   BACKBONE|DICT|INTERRES
   155   79   80 1    
   156   79  200 1    
   157   80   81 1    
   158   80   82 1    
   159   80  201 1    
   160   81  202 1    
   161   81  203 1    
   162   81  204 1    
   163   82   83 2    
   164   82   84 am   BACKBONE|DICT|INTERRES
   165   84   85 1    
   166   84  205 1    
   167   85   86 1    
   168   85   87 1    
   169   85  206 1    
   170   86  207 1    
   171   86  208 1    
   172   86  209 1    
   173   87   88 2    
   174   87   89 am   BACKBONE|DICT|INTERRES
   175   89   90 1    
   176   89  210 1    
   177   90   91 1    
   178   90   92 1    
   179   90  211 1    
   180   91  212 1    
   181   91  213 1    
   182   91  214 1    
   183   92   93 2    
   184   92   94 am   BACKBONE|DICT|INTERRES
   185   94   95 1    
   186   94  215 1    
   187   95   96 1    
   188   95   97 1    
   189   95  216 1    
   190   96  217 1    
   191   96  218 1    
   192   96  219 1    
   193   97   98 2    
   194   97   99 am   BACKBONE|DICT|INTERRES
   195   99  100 1    
   196   99  220 1    
   197  100  101 1    
   198  100  102 1    
   199  100  221 1    
   200  101  222 1    
   201  101  223 1    
   202  101  224 1    
   203  102  103 2    
   204  102  104 am   BACKBONE|DICT|INTERRES
   205  104  105 1    
   206  104  225 1    
   207  105  106 1    
   208  105  107 1    
   209  105  226 1    
   210  106  227 1    
   211  106  228 1    
   212  106  229 1    
   213  107  108 2    
   214  107  109 am   BACKBONE|DICT|INTERRES
   215  109  110 1    
   216  109  230 1    
   217  110  111 1    
   218  110  112 1    
   219  110  231 1    
   220  111  232 1    
   221  111  233 1    
   222  111  234 1    
   223  112  113 2    
   224  112  114 am   BACKBONE|DICT|INTERRES
   225  114  115 1    
   226  114  235 1    
   227  115  116 1    
   228  115  117 1    
   229  115  236 1    
   230  116  237 1    
   231  116  238 1    
   232  116  239 1    
   233  117  118 2    
   234  117  119 am   BACKBONE|DICT|INTERRES
   235  119  120 1    
   236  119  240 1    
   237  120  121 1    
   238  120  124 1    
   239  120  241 1    
   240  121  122 am   BACKBONE|DICT|INTERRES
   241  121  123 2    
   242  122  242 1    
   243  122  243 1    
   244  124  125 1    
   245  124  244 1    
   246  124  245 1    
   247  125  126 1    
   248  126  246 1    
   249  126  247 1    
@<TRIPOS>SUBSTRUCTURE
     1 UNK         1 GROUP             0       ****    0 ROOT    
