@<TRIPOS>MOLECULE
3R540
247   249    1
SMALL
USER_CHARGES


@<TRIPOS>ATOM
      1 CA         -0.6339   -8.0196  -44.2392 C.3       0 UNK        -0.1800 
      2 C           0.0162   -9.2698  -44.8147 C.2       0 UNK         0.5000 
      3 O           1.2235   -9.2790  -45.0456 O.2       0 UNK        -0.5000 
      4 N          -0.7817  -10.3195  -45.0442 N.am      1 UNK        -0.5000 
      5 CA         -0.3475  -11.6133  -45.5938 C.3       1 UNK         0.1400 
      6 C6         -1.5058  -12.3162  -46.3443 C.3       23 UNK        -0.0398 
      7 S7         -2.0181  -11.3641  -47.8143 S.3       23 UNK        -0.2404 
      8 C8         -3.6790  -12.0362  -48.1290 C.3       23 UNK        -0.0205 
      9 C9         -3.6222  -13.4784  -48.6074 C.ar      23 UNK        -0.0193 
     10 C10        -3.2129  -13.7675  -49.9129 C.ar      23 UNK        -0.1150 
     11 C11        -3.1491  -15.0902  -50.3579 C.ar      23 UNK        -0.0193 
     12 C12        -3.4977  -16.1253  -49.4872 C.ar      23 UNK        -0.1150 
     13 C13        -3.9260  -15.8493  -48.1865 C.ar      23 UNK        -0.0193 
     14 C14        -3.9827  -14.5224  -47.7501 C.ar      23 UNK        -0.1150 
     15 C15        -4.2816  -16.9862  -47.2418 C.3       23 UNK        -0.0205 
     16 S16        -5.6671  -18.0006  -47.8358 S.3       23 UNK        -0.2404 
     17 C17        -5.7276  -19.2470  -46.5047 C.3       23 UNK        -0.0398 
     18 CA         -5.0649  -20.5876  -46.9022 C.3       11 UNK         0.1400 
     19 N          -3.6459  -20.4517  -47.2439 N.am      11 UNK        -0.5000 
     20 C          -2.9229  -21.3833  -47.8812 C.2       10 UNK         0.5000 
     21 O          -3.3775  -22.4584  -48.2727 O.2       10 UNK        -0.5000 
     22 CA         -1.4248  -21.0883  -48.0631 C.3       10 UNK         0.1400 
     23 CB         -1.1895  -20.2575  -49.3289 C.3       10 UNK        -0.1800 
     24 N          -0.8423  -20.4078  -46.9047 N.am      10 UNK        -0.5000 
     25 C          -0.7084  -20.9797  -45.6981 C.2       9 UNK         0.5000 
     26 O          -1.0650  -22.1314  -45.4552 O.2       9 UNK        -0.5000 
     27 CA         -0.1081  -20.1350  -44.5599 C.3       9 UNK         0.1400 
     28 CB          1.3864  -20.4458  -44.3948 C.3       9 UNK        -0.1800 
     29 N          -0.2912  -18.6953  -44.7372 N.am      9 UNK        -0.5000 
     30 C          -1.4778  -18.0707  -44.7038 C.2       8 UNK         0.5000 
     31 O          -2.5514  -18.6547  -44.5401 O.2       8 UNK        -0.5000 
     32 CA         -1.4708  -16.5435  -44.9246 C.3       8 UNK         0.1400 
     33 CB         -1.3865  -15.8217  -43.5738 C.3       8 UNK        -0.1800 
     34 N          -0.4057  -16.0584  -45.8086 N.am      8 UNK        -0.5000 
     35 C          -0.1697  -16.4959  -47.0554 C.2       7 UNK         0.5000 
     36 O          -0.8413  -17.3626  -47.6144 O.2       7 UNK        -0.5000 
     37 CA          1.0678  -15.9312  -47.7769 C.3       7 UNK         0.1400 
     38 CB          0.7156  -14.6557  -48.5579 C.3       7 UNK        -0.1800 
     39 N           2.2247  -15.6581  -46.9189 N.am      7 UNK        -0.5000 
     40 C           2.7939  -16.4820  -46.0301 C.2       6 UNK         0.5000 
     41 O           2.3408  -17.5915  -45.7476 O.2       6 UNK        -0.5000 
     42 CA          4.0835  -16.0132  -45.3218 C.3       6 UNK         0.1400 
     43 CB          5.3157  -16.7088  -45.9296 C.3       6 UNK        -0.1800 
     44 N           4.3106  -14.5631  -45.2304 N.am      6 UNK        -0.5000 
     45 C           4.5027  -13.6617  -46.2068 C.2       5 UNK         0.5000 
     46 O           4.4009  -13.9171  -47.4065 O.2       5 UNK        -0.5000 
     47 CA          4.8756  -12.2274  -45.7811 C.3       5 UNK         0.1400 
     48 CB          3.6513  -11.3073  -45.8449 C.3       5 UNK        -0.1800 
     49 N           5.4616  -12.1576  -44.4413 N.am      5 UNK        -0.5000 
     50 C           6.6981  -12.5803  -44.1405 C.2       4 UNK         0.5000 
     51 O           7.4988  -12.9897  -44.9822 O.2       4 UNK        -0.5000 
     52 CA          7.1171  -12.5626  -42.6565 C.3       4 UNK         0.1400 
     53 CB          8.0132  -11.3482  -42.3675 C.3       4 UNK        -0.1800 
     54 N           6.0076  -12.5674  -41.6982 N.am      4 UNK        -0.5000 
     55 C           5.0806  -13.5265  -41.5689 C.2       3 UNK         0.5000 
     56 O           5.0099  -14.5109  -42.3068 O.2       3 UNK        -0.5000 
     57 CA          4.0506  -13.3704  -40.4308 C.3       3 UNK         0.1400 
     58 CB          4.2426  -12.1057  -39.5618 C.3       3 UNK        -0.1800 
     59 N           2.6727  -13.4471  -40.9238 N.am      3 UNK        -0.5000 
     60 C           2.0913  -12.6427  -41.8247 C.2       2 UNK         0.5000 
     61 O           2.6701  -11.7174  -42.4000 O.2       2 UNK        -0.5000 
     62 CA          0.5947  -12.9094  -42.0755 C.3       2 UNK         0.1400 
     63 CB         -0.2442  -12.5053  -40.8514 C.3       2 UNK        -0.1800 
     64 N           0.0815  -12.1851  -43.2355 N.am      2 UNK        -0.5000 
     65 C           0.2490  -12.5446  -44.5139 C.2       1 UNK         0.5000 
     66 O           0.8263  -13.5775  -44.8581 O.2       1 UNK        -0.5000 
     67 C          -5.2580  -21.6323  -45.7874 C.2       11 UNK         0.5000 
     68 O          -6.1598  -22.4645  -45.8879 O.2       11 UNK        -0.5000 
     69 N          -4.3780  -21.6052  -44.7737 N.am      12 UNK        -0.5000 
     70 CA         -4.3446  -22.5737  -43.6724 C.3       12 UNK         0.1400 
     71 CB         -3.3229  -22.1154  -42.6212 C.3       12 UNK        -0.1800 
     72 C          -4.0371  -24.0077  -44.1482 C.2       12 UNK         0.5000 
     73 O          -4.5896  -24.9647  -43.6061 O.2       12 UNK        -0.5000 
     74 N          -3.2042  -24.1192  -45.1903 N.am      13 UNK        -0.5000 
     75 CA         -2.8751  -25.3540  -45.9001 C.3       13 UNK         0.1400 
     76 CB         -1.4951  -25.1842  -46.5572 C.3       13 UNK        -0.1800 
     77 C          -3.9377  -25.7786  -46.9384 C.2       13 UNK         0.5000 
     78 O          -3.6737  -26.7065  -47.7022 O.2       13 UNK        -0.5000 
     79 N          -5.1010  -25.1088  -46.9718 N.am      14 UNK        -0.5000 
     80 CA         -6.2443  -25.3614  -47.8562 C.3       14 UNK         0.1400 
     81 CB         -6.8822  -26.7333  -47.5516 C.3       14 UNK        -0.1800 
     82 C          -5.8758  -25.1829  -49.3412 C.2       14 UNK         0.5000 
     83 O          -5.9728  -26.1259  -50.1295 O.2       14 UNK        -0.5000 
     84 N          -5.4094  -23.9712  -49.6738 N.am      15 UNK        -0.5000 
     85 CA         -4.8838  -23.5550  -50.9779 C.3       15 UNK         0.1400 
     86 CB         -5.9911  -23.5663  -52.0538 C.3       15 UNK        -0.1800 
     87 C          -3.6385  -24.3732  -51.3663 C.2       15 UNK         0.5000 
     88 O          -3.5483  -24.8713  -52.4899 O.2       15 UNK        -0.5000 
     89 N          -2.7210  -24.5239  -50.3987 N.am      16 UNK        -0.5000 
     90 CA         -1.4732  -25.2904  -50.4870 C.3       16 UNK         0.1400 
     91 CB         -0.4624  -24.5440  -51.3825 C.3       16 UNK        -0.1800 
     92 C          -1.7098  -26.7560  -50.9181 C.2       16 UNK         0.5000 
     93 O          -1.0631  -27.2415  -51.8466 O.2       16 UNK        -0.5000 
     94 N          -2.6672  -27.4130  -50.2465 N.am      17 UNK        -0.5000 
     95 CA         -3.2116  -28.7422  -50.5372 C.3       17 UNK         0.1400 
     96 CB         -2.1457  -29.8382  -50.3264 C.3       17 UNK        -0.1800 
     97 C          -3.8957  -28.8034  -51.9198 C.2       17 UNK         0.5000 
     98 O          -3.6345  -29.7189  -52.7029 O.2       17 UNK        -0.5000 
     99 N          -4.7641  -27.8145  -52.1818 N.am      18 UNK        -0.5000 
    100 CA        -5.5484  -27.6105  -53.4050 C.3       18 UNK         0.1400 
    101 CB        -6.6381  -28.6954  -53.5310 C.3       18 UNK        -0.1800 
    102 C         -4.6886  -27.4638  -54.6810 C.2       18 UNK         0.5000 
    103 O         -5.0632  -27.9715  -55.7403 O.2       18 UNK        -0.5000 
    104 N         -3.5513  -26.7707  -54.5564 N.am      19 UNK        -0.5000 
    105 CA        -2.6149  -26.4955  -55.6427 C.3       19 UNK         0.1400 
    106 CB        -1.1749  -26.6363  -55.1263 C.3       19 UNK        -0.1800 
    107 C         -2.8469  -25.0950  -56.2292 C.2       19 UNK         0.5000 
    108 O         -2.9680  -24.9648  -57.4481 O.2       19 UNK        -0.5000 
    109 N         -2.9138  -24.0779  -55.3610 N.am      20 UNK        -0.5000 
    110 CA        -3.0838  -22.6692  -55.7089 C.3       20 UNK         0.1400 
    111 CB        -1.8360  -22.1211  -56.4298 C.3       20 UNK        -0.1800 
    112 C         -3.3226  -21.8815  -54.4180 C.2       20 UNK         0.5000 
    113 O         -2.6614  -22.1562  -53.4154 O.2       20 UNK        -0.5000 
    114 N         -4.2240  -20.8919  -54.4681 N.am      21 UNK        -0.5000 
    115 CA        -4.6813  -20.0917  -53.3233 C.3       21 UNK         0.1400 
    116 CB        -5.7101  -19.0610  -53.8120 C.3       21 UNK        -0.1800 
    117 C         -3.5695  -19.3930  -52.5155 C.2       21 UNK         0.5000 
    118 O         -3.7412  -19.1990  -51.3137 O.2       21 UNK        -0.5000 
    119 N         -2.4604  -19.0555  -53.1839 N.am      22 UNK        -0.5000 
    120 CA        -1.2425  -18.4829  -52.5907 C.3       22 UNK         0.1400 
    121 C         -0.0192  -19.4461  -52.6580 C.2       22 UNK         0.5000 
    122 N         -0.1965  -20.7323  -52.9395 N.am      22 UNK        -0.7600 
    123 O          1.1139  -19.0300  -52.4343 O.2       22 UNK        -0.5000 
    124 C124       -0.9508  -17.0650  -53.1700 C.3       23 UNK        -0.0398 
    125 S125       -0.9430  -15.7946  -51.8628 S.3       23 UNK        -0.2404 
    126 C126       -2.7191  -15.4095  -51.7791 C.3       23 UNK        -0.0205 
    127 H127       -0.1834   -7.7713  -43.2781 H         1 UNK         0.0600 
    128 H128       -0.4865   -7.1762  -44.9138 H         1 UNK         0.0600 
    129 H129       -1.7057   -8.1511  -44.0889 H         1 UNK         0.0600 
    130 H130       -1.7706  -10.2357  -44.8561 H         1 UNK         0.3000 
    131 H131        0.4547  -11.4345  -46.3133 H         1 UNK         0.0600 
    132 H132       -1.2212  -13.3149  -46.6766 H         1 UNK         0.0800 
    133 H133       -2.3630  -12.4520  -45.6826 H         1 UNK         0.0800 
    134 H134       -4.2888  -11.9454  -47.2287 H         1 UNK         0.0800 
    135 H135       -4.1674  -11.4254  -48.8896 H         1 UNK         0.0800 
    136 H136       -2.9366  -12.9618  -50.5787 H         1 UNK         0.1150 
    137 H137       -3.4358  -17.1513  -49.8198 H         1 UNK         0.1150 
    138 H138       -4.2996  -14.3013  -46.7407 H         1 UNK         0.1150 
    139 H139       -3.4057  -17.6212  -47.1207 H         1 UNK         0.0800 
    140 H140       -4.5361  -16.5993  -46.2542 H         1 UNK         0.0800 
    141 H141       -6.7804  -19.4067  -46.2642 H         1 UNK         0.0800 
    142 H142       -5.2724  -18.8422  -45.5986 H         1 UNK         0.0800 
    143 H143       -5.5819  -20.9619  -47.7888 H         1 UNK         0.0600 
    144 H144       -3.1812  -19.6114  -46.9339 H         1 UNK         0.3000 
    145 H145       -0.9103  -22.0435  -48.1875 H         1 UNK         0.0600 
    146 H146       -1.7031  -19.2967  -49.2791 H         1 UNK         0.0600 
    147 H147       -0.1285  -20.0649  -49.4878 H         1 UNK         0.0600 
    148 H148       -1.5626  -20.7823  -50.2096 H         1 UNK         0.0600 
    149 H149       -0.5743  -19.4379  -47.0284 H         1 UNK         0.3000 
    150 H150       -0.6156  -20.4208  -43.6366 H         1 UNK         0.0600 
    151 H151        1.5420  -21.5022  -44.1722 H         1 UNK         0.0600 
    152 H152        1.8230  -19.8727  -43.5766 H         1 UNK         0.0600 
    153 H153        1.9469  -20.2173  -45.3020 H         1 UNK         0.0600 
    154 H154        0.5437  -18.1569  -44.9474 H         1 UNK         0.3000 
    155 H155       -2.4180  -16.2684  -45.3832 H         1 UNK         0.0600 
    156 H156       -2.1550  -16.1804  -42.8876 H         1 UNK         0.0600 
    157 H157       -1.5387  -14.7495  -43.6893 H         1 UNK         0.0600 
    158 H158       -0.4193  -15.9835  -43.0975 H         1 UNK         0.0600 
    159 H159        0.2037  -15.3352  -45.4358 H         1 UNK         0.3000 
    160 H160        1.3782  -16.6900  -48.4977 H         1 UNK         0.0600 
    161 H161        1.4720  -14.4399  -49.3124 H         1 UNK         0.0600 
    162 H162        0.6488  -13.7880  -47.9029 H         1 UNK         0.0600 
    163 H163       -0.2399  -14.7540  -49.0753 H         1 UNK         0.0600 
    164 H164        2.7253  -14.7966  -47.1078 H         1 UNK         0.3000 
    165 H165        3.9946  -16.3531  -44.2889 H         1 UNK         0.0600 
    166 H166        5.4707  -16.4223  -46.9703 H         1 UNK         0.0600 
    167 H167        6.2207  -16.4611  -45.3746 H         1 UNK         0.0600 
    168 H168        5.2053  -17.7937  -45.9031 H         1 UNK         0.0600 
    169 H169        4.4186  -14.2334  -44.2774 H         1 UNK         0.3000 
    170 H170        5.6104  -11.8572  -46.4993 H         1 UNK         0.0600 
    171 H171        2.9043  -11.5896  -45.1049 H         1 UNK         0.0600 
    172 H172        3.9270  -10.2693  -45.6584 H         1 UNK         0.0600 
    173 H173        3.1753  -11.3464  -46.8256 H         1 UNK         0.0600 
    174 H174        4.8570  -11.8425  -43.6937 H         1 UNK         0.3000 
    175 H175        7.7026  -13.4672  -42.4805 H         1 UNK         0.0600 
    176 H176        7.4713  -10.4102  -42.4956 H         1 UNK         0.0600 
    177 H177        8.4019  -11.3766  -41.3493 H         1 UNK         0.0600 
    178 H178        8.8719  -11.3255  -43.0399 H         1 UNK         0.0600 
    179 H179        5.9678  -11.7842  -41.0622 H         1 UNK         0.3000 
    180 H180        4.1921  -14.2358  -39.7819 H         1 UNK         0.0600 
    181 H181        4.1313  -11.1866  -40.1382 H         1 UNK         0.0600 
    182 H182        5.2277  -12.0920  -39.0938 H         1 UNK         0.0600 
    183 H183        3.5098  -12.0759  -38.7553 H         1 UNK         0.0600 
    184 H184        2.1213  -14.1956  -40.5286 H         1 UNK         0.3000 
    185 H185        0.4711  -13.9796  -42.2445 H         1 UNK         0.0600 
    186 H186       -1.3022  -12.7121  -41.0141 H         1 UNK         0.0600 
    187 H187        0.0566  -13.0590  -39.9613 H         1 UNK         0.0600 
    188 H188       -0.1407  -11.4429  -40.6267 H         1 UNK         0.0600 
    189 H189       -0.3577  -11.2960  -43.0508 H         1 UNK         0.3000 
    190 H190       -3.6644  -20.8888  -44.7685 H         1 UNK         0.3000 
    191 H191       -5.3326  -22.5828  -43.2074 H         1 UNK         0.0600 
    192 H192       -2.3081  -22.1141  -43.0186 H         1 UNK         0.0600 
    193 H193       -3.5454  -21.1097  -42.2641 H         1 UNK         0.0600 
    194 H194       -3.3330  -22.7784  -41.7552 H         1 UNK         0.0600 
    195 H195       -2.7345  -23.2821  -45.5190 H         1 UNK         0.3000 
    196 H196       -2.8023  -26.1656  -45.1735 H         1 UNK         0.0600 
    197 H197       -0.7339  -24.9455  -45.8141 H         1 UNK         0.0600 
    198 H198       -1.5012  -24.3818  -47.2948 H         1 UNK         0.0600 
    199 H199       -1.1767  -26.0984  -47.0595 H         1 UNK         0.0600 
    200 H200       -5.2187  -24.3301  -46.3351 H         1 UNK         0.3000 
    201 H201       -6.9886  -24.5975  -47.6265 H         1 UNK         0.0600 
    202 H202       -7.7882  -26.8789  -48.1409 H         1 UNK         0.0600 
    203 H203       -7.1616  -26.8124  -46.5010 H         1 UNK         0.0600 
    204 H204       -6.2090  -27.5595  -47.7823 H         1 UNK         0.0600 
    205 H205       -5.2475  -23.3091  -48.9249 H         1 UNK         0.3000 
    206 H206       -4.5434  -22.5244  -50.8661 H         1 UNK         0.0600 
    207 H207       -6.8149  -22.9102  -51.7737 H         1 UNK         0.0600 
    208 H208       -6.3989  -24.5634  -52.2130 H         1 UNK         0.0600 
    209 H209       -5.6115  -23.2178  -53.0139 H         1 UNK         0.0600 
    210 H210       -2.9036  -24.0594  -49.5159 H         1 UNK         0.3000 
    211 H211       -1.0537  -25.3317  -49.4823 H         1 UNK         0.0600 
    212 H212       -0.2761  -23.5375  -51.0076 H         1 UNK         0.0600 
    213 H213        0.4961  -25.0632  -51.4118 H         1 UNK         0.0600 
    214 H214       -0.8197  -24.4526  -52.4084 H         1 UNK         0.0600 
    215 H215       -3.1128  -26.9437  -49.4608 H         1 UNK         0.3000 
    216 H216       -4.0001  -28.9095  -49.8017 H         1 UNK         0.0600 
    217 H217       -2.5871  -30.8314  -50.4165 H         1 UNK         0.0600 
    218 H218       -1.3412  -29.7723  -51.0593 H         1 UNK         0.0600 
    219 H219       -1.7021  -29.7694  -49.3332 H         1 UNK         0.0600 
    220 H220       -4.9315  -27.1250  -51.4536 H         1 UNK         0.3000 
    221 H221       -6.0556  -26.6541  -53.2784 H         1 UNK         0.0600 
    222 H222       -6.2083  -29.6821  -53.7058 H         1 UNK         0.0600 
    223 H223       -7.2455  -28.7488  -52.6275 H         1 UNK         0.0600 
    224 H224       -7.3124  -28.4797  -54.3606 H         1 UNK         0.0600 
    225 H225       -3.3685  -26.3099  -53.6679 H         1 UNK         0.3000 
    226 H226       -2.7486  -27.2237  -56.4455 H         1 UNK         0.0600 
    227 H227       -0.9916  -27.6414  -54.7459 H         1 UNK         0.0600 
    228 H228       -0.4536  -26.4512  -55.9231 H         1 UNK         0.0600 
    229 H229       -0.9629  -25.9333  -54.3206 H         1 UNK         0.0600 
    230 H230       -2.8617  -24.2610  -54.3620 H         1 UNK         0.3000 
    231 H231       -3.9571  -22.5707  -56.3567 H         1 UNK         0.0600 
    232 H232       -1.9366  -21.0536  -56.6296 H         1 UNK         0.0600 
    233 H233       -1.6760  -22.6105  -57.3901 H         1 UNK         0.0600 
    234 H234       -0.9352  -22.2591  -55.8302 H         1 UNK         0.0600 
    235 H235       -4.6943  -20.7125  -55.3438 H         1 UNK         0.3000 
    236 H236       -5.1882  -20.7715  -52.6370 H         1 UNK         0.0600 
    237 H237       -6.5675  -19.5476  -54.2774 H         1 UNK         0.0600 
    238 H238       -6.0897  -18.4629  -52.9822 H         1 UNK         0.0600 
    239 H239       -5.2757  -18.3741  -54.5395 H         1 UNK         0.0600 
    240 H240       -2.4058  -19.2860  -54.1650 H         1 UNK         0.3000 
    241 H241       -1.4064  -18.3837  -51.5172 H         1 UNK         0.0600 
    242 H242       -1.1234  -21.1300  -53.0674 H         1 UNK         0.3800 
    243 H243        0.6077  -21.3369  -52.9741 H         1 UNK         0.3800 
    244 H244        0.0090  -17.0187  -53.6873 H         1 UNK         0.0800 
    245 H245       -1.6857  -16.7812  -53.9250 H         1 UNK         0.0800 
    246 H246       -3.3060  -16.2545  -52.1428 H         1 UNK         0.0800 
    247 H247       -2.9393  -14.5744  -52.4457 H         1 UNK         0.0800 
@<TRIPOS>BOND
     1    1    2 1    
     2    1  127 1    
     3    1  128 1    
     4    1  129 1    
     5    2    3 2    
     6    2    4 am   BACKBONE|DICT|INTERRES
     7    4    5 1    
     8    4  130 1    
     9    5    6 1    
    10    5   65 1    
    11    5  131 1    
    12    6    7 1    
    13    6  132 1    
    14    6  133 1    
    15    7    8 1    
    16    8    9 1    
    17    8  134 1    
    18    8  135 1    
    19    9   10 ar   
    20    9   14 ar   
    21   10   11 ar   
    22   10  136 1    
    23   11   12 ar   
    24   11  126 1    
    25   12   13 ar   
    26   12  137 1    
    27   13   14 ar   
    28   13   15 1    
    29   14  138 1    
    30   15   16 1    
    31   15  139 1    
    32   15  140 1    
    33   16   17 1    
    34   17   18 1    
    35   17  141 1    
    36   17  142 1    
    37   18   19 1    
    38   18   67 1    
    39   18  143 1    
    40   19   20 am   BACKBONE|DICT|INTERRES
    41   19  144 1    
    42   20   21 2    
    43   20   22 1    
    44   22   23 1    
    45   22   24 1    
    46   22  145 1    
    47   23  146 1    
    48   23  147 1    
    49   23  148 1    
    50   24   25 am   BACKBONE|DICT|INTERRES
    51   24  149 1    
    52   25   26 2    
    53   25   27 1    
    54   27   28 1    
    55   27   29 1    
    56   27  150 1    
    57   28  151 1    
    58   28  152 1    
    59   28  153 1    
    60   29   30 am   BACKBONE|DICT|INTERRES
    61   29  154 1    
    62   30   31 2    
    63   30   32 1    
    64   32   33 1    
    65   32   34 1    
    66   32  155 1    
    67   33  156 1    
    68   33  157 1    
    69   33  158 1    
    70   34   35 am   BACKBONE|DICT|INTERRES
    71   34  159 1    
    72   35   36 2    
    73   35   37 1    
    74   37   38 1    
    75   37   39 1    
    76   37  160 1    
    77   38  161 1    
    78   38  162 1    
    79   38  163 1    
    80   39   40 am   BACKBONE|DICT|INTERRES
    81   39  164 1    
    82   40   41 2    
    83   40   42 1    
    84   42   43 1    
    85   42   44 1    
    86   42  165 1    
    87   43  166 1    
    88   43  167 1    
    89   43  168 1    
    90   44   45 am   BACKBONE|DICT|INTERRES
    91   44  169 1    
    92   45   46 2    
    93   45   47 1    
    94   47   48 1    
    95   47   49 1    
    96   47  170 1    
    97   48  171 1    
    98   48  172 1    
    99   48  173 1    
   100   49   50 am   BACKBONE|DICT|INTERRES
   101   49  174 1    
   102   50   51 2    
   103   50   52 1    
   104   52   53 1    
   105   52   54 1    
   106   52  175 1    
   107   53  176 1    
   108   53  177 1    
   109   53  178 1    
   110   54   55 am   BACKBONE|DICT|INTERRES
   111   54  179 1    
   112   55   56 2    
   113   55   57 1    
   114   57   58 1    
   115   57   59 1    
   116   57  180 1    
   117   58  181 1    
   118   58  182 1    
   119   58  183 1    
   120   59   60 am   BACKBONE|DICT|INTERRES
   121   59  184 1    
   122   60   61 2    
   123   60   62 1    
   124   62   63 1    
   125   62   64 1    
   126   62  185 1    
   127   63  186 1    
   128   63  187 1    
   129   63  188 1    
   130   64   65 am   BACKBONE|DICT|INTERRES
   131   64  189 1    
   132   65   66 2    
   133   67   68 2    
   134   67   69 am   BACKBONE|DICT|INTERRES
   135   69   70 1    
   136   69  190 1    
   137   70   71 1    
   138   70   72 1    
   139   70  191 1    
   140   71  192 1    
   141   71  193 1    
   142   71  194 1    
   143   72   73 2    
   144   72   74 am   BACKBONE|DICT|INTERRES
   145   74   75 1    
   146   74  195 1    
   147   75   76 1    
   148   75   77 1    
   149   75  196 1    
   150   76  197 1    
   151   76  198 1    
   152   76  199 1    
   153   77   78 2    
   154   77   79 am   BACKBONE|DICT|INTERRES
   155   79   80 1    
   156   79  200 1    
   157   80   81 1    
   158   80   82 1    
   159   80  201 1    
   160   81  202 1    
   161   81  203 1    
   162   81  204 1    
   163   82   83 2    
   164   82   84 am   BACKBONE|DICT|INTERRES
   165   84   85 1    
   166   84  205 1    
   167   85   86 1    
   168   85   87 1    
   169   85  206 1    
   170   86  207 1    
   171   86  208 1    
   172   86  209 1    
   173   87   88 2    
   174   87   89 am   BACKBONE|DICT|INTERRES
   175   89   90 1    
   176   89  210 1    
   177   90   91 1    
   178   90   92 1    
   179   90  211 1    
   180   91  212 1    
   181   91  213 1    
   182   91  214 1    
   183   92   93 2    
   184   92   94 am   BACKBONE|DICT|INTERRES
   185   94   95 1    
   186   94  215 1    
   187   95   96 1    
   188   95   97 1    
   189   95  216 1    
   190   96  217 1    
   191   96  218 1    
   192   96  219 1    
   193   97   98 2    
   194   97   99 am   BACKBONE|DICT|INTERRES
   195   99  100 1    
   196   99  220 1    
   197  100  101 1    
   198  100  102 1    
   199  100  221 1    
   200  101  222 1    
   201  101  223 1    
   202  101  224 1    
   203  102  103 2    
   204  102  104 am   BACKBONE|DICT|INTERRES
   205  104  105 1    
   206  104  225 1    
   207  105  106 1    
   208  105  107 1    
   209  105  226 1    
   210  106  227 1    
   211  106  228 1    
   212  106  229 1    
   213  107  108 2    
   214  107  109 am   BACKBONE|DICT|INTERRES
   215  109  110 1    
   216  109  230 1    
   217  110  111 1    
   218  110  112 1    
   219  110  231 1    
   220  111  232 1    
   221  111  233 1    
   222  111  234 1    
   223  112  113 2    
   224  112  114 am   BACKBONE|DICT|INTERRES
   225  114  115 1    
   226  114  235 1    
   227  115  116 1    
   228  115  117 1    
   229  115  236 1    
   230  116  237 1    
   231  116  238 1    
   232  116  239 1    
   233  117  118 2    
   234  117  119 am   BACKBONE|DICT|INTERRES
   235  119  120 1    
   236  119  240 1    
   237  120  121 1    
   238  120  124 1    
   239  120  241 1    
   240  121  122 am   BACKBONE|DICT|INTERRES
   241  121  123 2    
   242  122  242 1    
   243  122  243 1    
   244  124  125 1    
   245  124  244 1    
   246  124  245 1    
   247  125  126 1    
   248  126  246 1    
   249  126  247 1    
@<TRIPOS>SUBSTRUCTURE
     1 UNK         1 GROUP             0       ****    0 ROOT    
