@<TRIPOS>MOLECULE
3R540
247   249    1
SMALL
USER_CHARGES


@<TRIPOS>ATOM
      1 CA         -0.7829  -12.0824  -44.0481 C.3       0 UNK        -0.1800 
      2 C          -0.5479  -11.9365  -45.5450 C.2       0 UNK         0.5000 
      3 O          -1.2431  -11.1644  -46.2051 O.2       0 UNK        -0.5000 
      4 N           0.4416  -12.6636  -46.0718 N.am      1 UNK        -0.5000 
      5 CA          0.8885  -12.6069  -47.4641 C.3       1 UNK         0.1400 
      6 C6         -0.1197  -13.1856  -48.4959 C.3       23 UNK        -0.0398 
      7 S7         -0.5367  -14.9587  -48.2998 S.3       23 UNK        -0.2404 
      8 C8         -0.0267  -15.5900  -49.9295 C.3       23 UNK        -0.0205 
      9 C9         -0.3612  -17.0636  -50.1023 C.ar      23 UNK        -0.0193 
     10 C10        -1.6059  -17.4512  -50.6083 C.ar      23 UNK        -0.1150 
     11 C11        -1.9018  -18.8034  -50.8061 C.ar      23 UNK        -0.0193 
     12 C12        -0.9537  -19.7702  -50.4657 C.ar      23 UNK        -0.1150 
     13 C13         0.2984  -19.3991  -49.9679 C.ar      23 UNK        -0.0193 
     14 C14         0.5907  -18.0403  -49.7985 C.ar      23 UNK        -0.1150 
     15 C15         1.3305  -20.4831  -49.6701 C.3       23 UNK        -0.0205 
     16 S16         2.3562  -20.1822  -48.1917 S.3       23 UNK        -0.2404 
     17 C17         1.1121  -19.9115  -46.8878 C.3       23 UNK        -0.0398 
     18 CA          0.4437  -21.2216  -46.3920 C.3       11 UNK         0.1400 
     19 N           0.4355  -21.3216  -44.9309 N.am      11 UNK        -0.5000 
     20 C           0.0529  -22.3982  -44.2320 C.2       10 UNK         0.5000 
     21 O          -0.3005  -23.4578  -44.7505 O.2       10 UNK        -0.5000 
     22 CA          0.0127  -22.2451  -42.6998 C.3       10 UNK         0.1400 
     23 CB          1.4017  -22.4703  -42.0842 C.3       10 UNK        -0.1800 
     24 N          -0.5011  -20.9362  -42.2905 N.am      10 UNK        -0.5000 
     25 C          -1.7749  -20.5479  -42.4475 C.2       9 UNK         0.5000 
     26 O          -2.6589  -21.2762  -42.8984 O.2       9 UNK        -0.5000 
     27 CA         -2.1055  -19.0861  -42.0901 C.3       9 UNK         0.1400 
     28 CB         -2.2789  -18.9179  -40.5734 C.3       9 UNK        -0.1800 
     29 N          -1.0982  -18.1423  -42.5776 N.am      9 UNK        -0.5000 
     30 C          -0.7985  -17.9571  -43.8707 C.2       8 UNK         0.5000 
     31 O          -1.3786  -18.5234  -44.7929 O.2       8 UNK        -0.5000 
     32 CA          0.3801  -17.0291  -44.1991 C.3       8 UNK         0.1400 
     33 CB         -0.0853  -15.5713  -44.2748 C.3       8 UNK        -0.1800 
     34 N           1.4910  -17.1447  -43.2541 N.am      8 UNK        -0.5000 
     35 C           2.1928  -18.2633  -43.0215 C.2       7 UNK         0.5000 
     36 O           1.9791  -19.3333  -43.5875 O.2       7 UNK        -0.5000 
     37 CA          3.2757  -18.1918  -41.9341 C.3       7 UNK         0.1400 
     38 CB          4.5422  -17.4972  -42.4510 C.3       7 UNK        -0.1800 
     39 N           2.7895  -17.5021  -40.7430 N.am      7 UNK        -0.5000 
     40 C           1.8773  -18.0041  -39.8998 C.2       6 UNK         0.5000 
     41 O           1.4012  -19.1359  -39.9963 O.2       6 UNK        -0.5000 
     42 CA          1.3905  -17.0593  -38.7862 C.3       6 UNK         0.1400 
     43 CB          2.3383  -17.1092  -37.5785 C.3       6 UNK        -0.1800 
     44 N           1.2611  -15.6737  -39.2458 N.am      6 UNK        -0.5000 
     45 C           0.3540  -15.2615  -40.1425 C.2       5 UNK         0.5000 
     46 O          -0.4782  -16.0042  -40.6622 O.2       5 UNK        -0.5000 
     47 CA          0.4122  -13.7805  -40.5571 C.3       5 UNK         0.1400 
     48 CB         -0.3539  -12.9054  -39.5546 C.3       5 UNK        -0.1800 
     49 N           1.7777  -13.2680  -40.7096 N.am      5 UNK        -0.5000 
     50 C           2.6510  -13.6923  -41.6319 C.2       4 UNK         0.5000 
     51 O           2.4155  -14.6009  -42.4302 O.2       4 UNK        -0.5000 
     52 CA          4.0241  -13.0119  -41.6448 C.3       4 UNK         0.1400 
     53 CB          4.9757  -13.6899  -40.6451 C.3       4 UNK        -0.1800 
     54 N           4.5910  -13.0951  -42.9882 N.am      4 UNK        -0.5000 
     55 C           5.3508  -12.1627  -43.5707 C.2       3 UNK         0.5000 
     56 O           5.6739  -11.1141  -43.0105 O.2       3 UNK        -0.5000 
     57 CA          5.8303  -12.4030  -45.0195 C.3       3 UNK         0.1400 
     58 CB          7.2809  -12.9231  -45.0377 C.3       3 UNK        -0.1800 
     59 N           4.9574  -13.2351  -45.8623 N.am      3 UNK        -0.5000 
     60 C           4.6873  -14.5440  -45.7752 C.2       2 UNK         0.5000 
     61 O           5.1166  -15.2658  -44.8766 O.2       2 UNK        -0.5000 
     62 CA          3.7533  -15.1254  -46.8602 C.3       2 UNK         0.1400 
     63 CB          3.4493  -16.6184  -46.6390 C.3       2 UNK        -0.1800 
     64 N           2.4851  -14.3964  -46.9420 N.am      2 UNK        -0.5000 
     65 C           2.2933  -13.2248  -47.5666 C.2       1 UNK         0.5000 
     66 O           3.1919  -12.6089  -48.1412 O.2       1 UNK        -0.5000 
     67 C          -0.9718  -21.3927  -46.9818 C.2       11 UNK         0.5000 
     68 O          -1.1478  -22.1637  -47.9221 O.2       11 UNK        -0.5000 
     69 N          -1.9638  -20.7169  -46.3884 N.am      12 UNK        -0.5000 
     70 CA         -3.3746  -20.8011  -46.7622 C.3       12 UNK         0.1400 
     71 CB         -4.1531  -19.6714  -46.0732 C.3       12 UNK        -0.1800 
     72 C          -4.0098  -22.1681  -46.4504 C.2       12 UNK         0.5000 
     73 O          -4.9226  -22.5782  -47.1663 O.2       12 UNK        -0.5000 
     74 N          -3.5134  -22.8595  -45.4134 N.am      13 UNK        -0.5000 
     75 CA         -3.9079  -24.2290  -45.0769 C.3       13 UNK         0.1400 
     76 CB         -3.4298  -24.5832  -43.6606 C.3       13 UNK        -0.1800 
     77 C          -3.3976  -25.2512  -46.1108 C.2       13 UNK         0.5000 
     78 O          -4.1300  -26.1812  -46.4510 O.2       13 UNK        -0.5000 
     79 N          -2.1727  -25.0447  -46.6190 N.am      14 UNK        -0.5000 
     80 CA         -1.6204  -25.7808  -47.7609 C.3       14 UNK         0.1400 
     81 CB         -0.1046  -25.5409  -47.8410 C.3       14 UNK        -0.1800 
     82 C          -2.3130  -25.3924  -49.0839 C.2       14 UNK         0.5000 
     83 O          -2.5451  -26.2544  -49.9308 O.2       14 UNK        -0.5000 
     84 N          -2.6429  -24.0999  -49.2086 N.am      15 UNK        -0.5000 
     85 CA         -3.4272  -23.4302  -50.2490 C.3       15 UNK         0.1400 
     86 CB         -4.8182  -24.0768  -50.4047 C.3       15 UNK        -0.1800 
     87 C          -2.7071  -23.2627  -51.5995 C.2       15 UNK         0.5000 
     88 O          -3.3265  -22.7658  -52.5390 O.2       15 UNK        -0.5000 
     89 N          -1.4219  -23.6387  -51.6814 N.am      16 UNK        -0.5000 
     90 CA         -0.5515  -23.5662  -52.8612 C.3       16 UNK         0.1400 
     91 CB         -0.1686  -22.0989  -53.1598 C.3       16 UNK        -0.1800 
     92 C          -1.1542  -24.3127  -54.0723 C.2       16 UNK         0.5000 
     93 O          -1.1625  -25.5440  -54.0757 O.2       16 UNK        -0.5000 
     94 N          -1.6698  -23.5641  -55.0571 N.am      17 UNK        -0.5000 
     95 CA         -2.3547  -24.0756  -56.2487 C.3       17 UNK         0.1400 
     96 CB         -2.1693  -23.0680  -57.3960 C.3       17 UNK        -0.1800 
     97 C          -3.8515  -24.3828  -56.0127 C.2       17 UNK         0.5000 
     98 O          -4.5739  -24.6277  -56.9800 O.2       17 UNK        -0.5000 
     99 N          -4.2970  -24.3465  -54.7491 N.am      18 UNK        -0.5000 
    100 CA        -5.6691  -24.5159  -54.2743 C.3       18 UNK         0.1400 
    101 CB        -6.2395  -25.9051  -54.6409 C.3       18 UNK        -0.1800 
    102 C         -6.5301  -23.3185  -54.7092 C.2       18 UNK         0.5000 
    103 O         -6.1114  -22.1784  -54.4970 O.2       18 UNK        -0.5000 
    104 N         -7.6953  -23.5750  -55.3183 N.am      19 UNK        -0.5000 
    105 CA        -8.6627  -22.5683  -55.7685 C.3       19 UNK         0.1400 
    106 CB        -9.8804  -23.2828  -56.3734 C.3       19 UNK        -0.1800 
    107 C         -8.0977  -21.5332  -56.7633 C.2       19 UNK         0.5000 
    108 O         -8.5979  -20.4095  -56.8138 O.2       19 UNK        -0.5000 
    109 N         -7.0494  -21.9119  -57.5069 N.am      20 UNK        -0.5000 
    110 CA        -6.3278  -21.0411  -58.4340 C.3       20 UNK         0.1400 
    111 CB        -5.4699  -21.9129  -59.3634 C.3       20 UNK        -0.1800 
    112 C         -5.4600  -19.9695  -57.7399 C.2       20 UNK         0.5000 
    113 O         -5.1124  -18.9827  -58.3903 O.2       20 UNK        -0.5000 
    114 N         -5.1194  -20.1711  -56.4585 N.am      21 UNK        -0.5000 
    115 CA        -4.3023  -19.2533  -55.6635 C.3       21 UNK         0.1400 
    116 CB        -3.0531  -19.9910  -55.1500 C.3       21 UNK        -0.1800 
    117 C         -5.1024  -18.6668  -54.4918 C.2       21 UNK         0.5000 
    118 O         -5.1536  -17.4460  -54.3407 O.2       21 UNK        -0.5000 
    119 N         -5.6866  -19.5472  -53.6729 N.am      22 UNK        -0.5000 
    120 CA        -6.3881  -19.2259  -52.4187 C.3       22 UNK         0.1400 
    121 C         -7.9395  -19.2444  -52.5606 C.2       22 UNK         0.5000 
    122 N         -8.5031  -19.4052  -53.7513 N.am      22 UNK        -0.7600 
    123 O         -8.6534  -19.0802  -51.5750 O.2       22 UNK        -0.5000 
    124 C124       -5.8784  -20.1401  -51.2622 C.3       23 UNK        -0.0398 
    125 S125       -4.5627  -19.3786  -50.2461 S.3       23 UNK        -0.2404 
    126 C126       -3.2140  -19.2182  -51.4509 C.3       23 UNK        -0.0205 
    127 H127       -1.6331  -12.7386  -43.8619 H         1 UNK         0.0600 
    128 H128        0.0921  -12.4979  -43.5487 H         1 UNK         0.0600 
    129 H129       -0.9939  -11.1112  -43.6003 H         1 UNK         0.0600 
    130 H130        1.0112  -13.2307  -45.4617 H         1 UNK         0.3000 
    131 H131        1.0140  -11.5486  -47.7043 H         1 UNK         0.0600 
    132 H132        0.2573  -13.0074  -49.5042 H         1 UNK         0.0800 
    133 H133       -1.0542  -12.6262  -48.4457 H         1 UNK         0.0800 
    134 H134        1.0454  -15.4315  -50.0573 H         1 UNK         0.0800 
    135 H135       -0.5192  -15.0114  -50.7126 H         1 UNK         0.0800 
    136 H136       -2.3375  -16.6990  -50.8684 H         1 UNK         0.1150 
    137 H137       -1.1830  -20.8156  -50.6142 H         1 UNK         0.1150 
    138 H138        1.5617  -17.7395  -49.4323 H         1 UNK         0.1150 
    139 H139        0.8448  -21.4535  -49.5604 H         1 UNK         0.0800 
    140 H140        1.9910  -20.5718  -50.5332 H         1 UNK         0.0800 
    141 H141        0.3857  -19.1600  -47.2024 H         1 UNK         0.0800 
    142 H142        1.6612  -19.4348  -46.0785 H         1 UNK         0.0800 
    143 H143        1.0341  -22.0717  -46.7408 H         1 UNK         0.0600 
    144 H144        0.7777  -20.5136  -44.4172 H         1 UNK         0.3000 
    145 H145       -0.6584  -23.0117  -42.3067 H         1 UNK         0.0600 
    146 H146        1.3641  -22.4115  -40.9962 H         1 UNK         0.0600 
    147 H147        1.7869  -23.4570  -42.3443 H         1 UNK         0.0600 
    148 H148        2.1258  -21.7337  -42.4327 H         1 UNK         0.0600 
    149 H149        0.1708  -20.2726  -41.9280 H         1 UNK         0.3000 
    150 H150       -3.0539  -18.8354  -42.5699 H         1 UNK         0.0600 
    151 H151       -3.0368  -19.6014  -40.1885 H         1 UNK         0.0600 
    152 H152       -2.5969  -17.9055  -40.3238 H         1 UNK         0.0600 
    153 H153       -1.3515  -19.1182  -40.0363 H         1 UNK         0.0600 
    154 H154       -0.6224  -17.5777  -41.8808 H         1 UNK         0.3000 
    155 H155        0.7531  -17.3132  -45.1840 H         1 UNK         0.0600 
    156 H156       -0.5248  -15.2402  -43.3342 H         1 UNK         0.0600 
    157 H157       -0.8374  -15.4398  -45.0540 H         1 UNK         0.0600 
    158 H158        0.7485  -14.9115  -44.5047 H         1 UNK         0.0600 
    159 H159        1.7656  -16.2886  -42.7781 H         1 UNK         0.3000 
    160 H160        3.5396  -19.2155  -41.6593 H         1 UNK         0.0600 
    161 H161        5.3496  -17.5555  -41.7212 H         1 UNK         0.0600 
    162 H162        4.3629  -16.4444  -42.6650 H         1 UNK         0.0600 
    163 H163        4.8988  -17.9621  -43.3711 H         1 UNK         0.0600 
    164 H164        3.0963  -16.5506  -40.6108 H         1 UNK         0.3000 
    165 H165        0.4060  -17.4054  -38.4636 H         1 UNK         0.0600 
    166 H166        1.9616  -16.5001  -36.7566 H         1 UNK         0.0600 
    167 H167        2.4406  -18.1291  -37.2054 H         1 UNK         0.0600 
    168 H168        3.3366  -16.7507  -37.8328 H         1 UNK         0.0600 
    169 H169        1.9085  -14.9995  -38.8653 H         1 UNK         0.3000 
    170 H170       -0.0872  -13.6963  -41.5230 H         1 UNK         0.0600 
    171 H171       -1.3799  -13.2563  -39.4344 H         1 UNK         0.0600 
    172 H172        0.1140  -12.9146  -38.5694 H         1 UNK         0.0600 
    173 H173       -0.4044  -11.8704  -39.8935 H         1 UNK         0.0600 
    174 H174        2.0500  -12.5250  -40.0820 H         1 UNK         0.3000 
    175 H175        3.8853  -11.9658  -41.3635 H         1 UNK         0.0600 
    176 H176        5.1443  -14.7375  -40.8974 H         1 UNK         0.0600 
    177 H177        5.9454  -13.1922  -40.6271 H         1 UNK         0.0600 
    178 H178        4.5748  -13.6542  -39.6315 H         1 UNK         0.0600 
    179 H179        4.3721  -13.9414  -43.5045 H         1 UNK         0.3000 
    180 H180        5.8348  -11.4228  -45.4989 H         1 UNK         0.0600 
    181 H181        7.3731  -13.8917  -44.5456 H         1 UNK         0.0600 
    182 H182        7.9477  -12.2328  -44.5195 H         1 UNK         0.0600 
    183 H183        7.6508  -13.0270  -46.0577 H         1 UNK         0.0600 
    184 H184        4.5136  -12.7437  -46.6321 H         1 UNK         0.3000 
    185 H185        4.2727  -15.0335  -47.8164 H         1 UNK         0.0600 
    186 H186        2.7667  -17.0036  -47.3963 H         1 UNK         0.0600 
    187 H187        4.3613  -17.2141  -46.6922 H         1 UNK         0.0600 
    188 H188        3.0040  -16.7962  -45.6613 H         1 UNK         0.0600 
    189 H189        1.6860  -14.8580  -46.5349 H         1 UNK         0.3000 
    190 H190       -1.7337  -20.0479  -45.6551 H         1 UNK         0.3000 
    191 H191       -3.4385  -20.6505  -47.8408 H         1 UNK         0.0600 
    192 H192       -4.0919  -19.7471  -44.9868 H         1 UNK         0.0600 
    193 H193       -5.2079  -19.6980  -46.3491 H         1 UNK         0.0600 
    194 H194       -3.7661  -18.6945  -46.3640 H         1 UNK         0.0600 
    195 H195       -2.8066  -22.4281  -44.8311 H         1 UNK         0.3000 
    196 H196       -4.9990  -24.2735  -45.0790 H         1 UNK         0.0600 
    197 H197       -2.3434  -24.5807  -43.5836 H         1 UNK         0.0600 
    198 H198       -3.7740  -25.5773  -43.3731 H         1 UNK         0.0600 
    199 H199       -3.8195  -23.8792  -42.9252 H         1 UNK         0.0600 
    200 H200       -1.6114  -24.2892  -46.2423 H         1 UNK         0.3000 
    201 H201       -1.7867  -26.8475  -47.5962 H         1 UNK         0.0600 
    202 H202        0.1345  -24.4893  -47.9993 H         1 UNK         0.0600 
    203 H203        0.3362  -26.1053  -48.6636 H         1 UNK         0.0600 
    204 H204        0.3921  -25.8596  -46.9244 H         1 UNK         0.0600 
    205 H205       -2.2724  -23.4662  -48.5032 H         1 UNK         0.3000 
    206 H206       -3.5841  -22.4167  -49.8773 H         1 UNK         0.0600 
    207 H207       -5.3081  -24.1943  -49.4381 H         1 UNK         0.0600 
    208 H208       -5.4702  -23.4574  -51.0203 H         1 UNK         0.0600 
    209 H209       -4.7592  -25.0594  -50.8732 H         1 UNK         0.0600 
    210 H210       -1.0158  -24.0636  -50.8608 H         1 UNK         0.3000 
    211 H211        0.3663  -24.0972  -52.6048 H         1 UNK         0.0600 
    212 H212       -1.0399  -21.4613  -53.3112 H         1 UNK         0.0600 
    213 H213        0.4572  -22.0269  -54.0503 H         1 UNK         0.0600 
    214 H214        0.4066  -21.6767  -52.3368 H         1 UNK         0.0600 
    215 H215       -1.6561  -22.5612  -54.9450 H         1 UNK         0.3000 
    216 H216       -1.8805  -25.0122  -56.5488 H         1 UNK         0.0600 
    217 H217       -2.5037  -23.4926  -58.3432 H         1 UNK         0.0600 
    218 H218       -1.1219  -22.7927  -57.5205 H         1 UNK         0.0600 
    219 H219       -2.7424  -22.1566  -57.2289 H         1 UNK         0.0600 
    220 H220       -3.6569  -23.9981  -54.0429 H         1 UNK         0.3000 
    221 H221       -5.6183  -24.4653  -53.1877 H         1 UNK         0.0600 
    222 H222       -6.3856  -26.0284  -55.7142 H         1 UNK         0.0600 
    223 H223       -5.5698  -26.6979  -54.3074 H         1 UNK         0.0600 
    224 H224       -7.2000  -26.0757  -54.1534 H         1 UNK         0.0600 
    225 H225       -7.9504  -24.5397  -55.4723 H         1 UNK         0.3000 
    226 H226       -8.9941  -22.0201  -54.8848 H         1 UNK         0.0600 
    227 H227      -10.3524  -23.9440  -55.6464 H         1 UNK         0.0600 
    228 H228      -10.6361  -22.5645  -56.6946 H         1 UNK         0.0600 
    229 H229       -9.6045  -23.8802  -57.2432 H         1 UNK         0.0600 
    230 H230       -6.6892  -22.8490  -57.3905 H         1 UNK         0.3000 
    231 H231       -7.0617  -20.5146  -59.0478 H         1 UNK         0.0600 
    232 H232       -6.0871  -22.6079  -59.9329 H         1 UNK         0.0600 
    233 H233       -4.7394  -22.4963  -58.8038 H         1 UNK         0.0600 
    234 H234       -4.9223  -21.3018  -60.0821 H         1 UNK         0.0600 
    235 H235       -5.4820  -20.9866  -55.9764 H         1 UNK         0.3000 
    236 H236       -3.9602  -18.4114  -56.2687 H         1 UNK         0.0600 
    237 H237       -2.4804  -19.3653  -54.4642 H         1 UNK         0.0600 
    238 H238       -3.3131  -20.9089  -54.6213 H         1 UNK         0.0600 
    239 H239       -2.3877  -20.2494  -55.9724 H         1 UNK         0.0600 
    240 H240       -5.6598  -20.5376  -53.9087 H         1 UNK         0.3000 
    241 H241       -6.1699  -18.1918  -52.1467 H         1 UNK         0.0600 
    242 H242       -7.9403  -19.5051  -54.5815 H         1 UNK         0.3800 
    243 H243       -9.5076  -19.3911  -53.8272 H         1 UNK         0.3800 
    244 H244       -6.6773  -20.3981  -50.5653 H         1 UNK         0.0800 
    245 H245       -5.5213  -21.0960  -51.6484 H         1 UNK         0.0800 
    246 H246       -3.0899  -20.1573  -51.9906 H         1 UNK         0.0800 
    247 H247       -3.4884  -18.4683  -52.1911 H         1 UNK         0.0800 
@<TRIPOS>BOND
     1    1    2 1    
     2    1  127 1    
     3    1  128 1    
     4    1  129 1    
     5    2    3 2    
     6    2    4 am   BACKBONE|DICT|INTERRES
     7    4    5 1    
     8    4  130 1    
     9    5    6 1    
    10    5   65 1    
    11    5  131 1    
    12    6    7 1    
    13    6  132 1    
    14    6  133 1    
    15    7    8 1    
    16    8    9 1    
    17    8  134 1    
    18    8  135 1    
    19    9   10 ar   
    20    9   14 ar   
    21   10   11 ar   
    22   10  136 1    
    23   11   12 ar   
    24   11  126 1    
    25   12   13 ar   
    26   12  137 1    
    27   13   14 ar   
    28   13   15 1    
    29   14  138 1    
    30   15   16 1    
    31   15  139 1    
    32   15  140 1    
    33   16   17 1    
    34   17   18 1    
    35   17  141 1    
    36   17  142 1    
    37   18   19 1    
    38   18   67 1    
    39   18  143 1    
    40   19   20 am   BACKBONE|DICT|INTERRES
    41   19  144 1    
    42   20   21 2    
    43   20   22 1    
    44   22   23 1    
    45   22   24 1    
    46   22  145 1    
    47   23  146 1    
    48   23  147 1    
    49   23  148 1    
    50   24   25 am   BACKBONE|DICT|INTERRES
    51   24  149 1    
    52   25   26 2    
    53   25   27 1    
    54   27   28 1    
    55   27   29 1    
    56   27  150 1    
    57   28  151 1    
    58   28  152 1    
    59   28  153 1    
    60   29   30 am   BACKBONE|DICT|INTERRES
    61   29  154 1    
    62   30   31 2    
    63   30   32 1    
    64   32   33 1    
    65   32   34 1    
    66   32  155 1    
    67   33  156 1    
    68   33  157 1    
    69   33  158 1    
    70   34   35 am   BACKBONE|DICT|INTERRES
    71   34  159 1    
    72   35   36 2    
    73   35   37 1    
    74   37   38 1    
    75   37   39 1    
    76   37  160 1    
    77   38  161 1    
    78   38  162 1    
    79   38  163 1    
    80   39   40 am   BACKBONE|DICT|INTERRES
    81   39  164 1    
    82   40   41 2    
    83   40   42 1    
    84   42   43 1    
    85   42   44 1    
    86   42  165 1    
    87   43  166 1    
    88   43  167 1    
    89   43  168 1    
    90   44   45 am   BACKBONE|DICT|INTERRES
    91   44  169 1    
    92   45   46 2    
    93   45   47 1    
    94   47   48 1    
    95   47   49 1    
    96   47  170 1    
    97   48  171 1    
    98   48  172 1    
    99   48  173 1    
   100   49   50 am   BACKBONE|DICT|INTERRES
   101   49  174 1    
   102   50   51 2    
   103   50   52 1    
   104   52   53 1    
   105   52   54 1    
   106   52  175 1    
   107   53  176 1    
   108   53  177 1    
   109   53  178 1    
   110   54   55 am   BACKBONE|DICT|INTERRES
   111   54  179 1    
   112   55   56 2    
   113   55   57 1    
   114   57   58 1    
   115   57   59 1    
   116   57  180 1    
   117   58  181 1    
   118   58  182 1    
   119   58  183 1    
   120   59   60 am   BACKBONE|DICT|INTERRES
   121   59  184 1    
   122   60   61 2    
   123   60   62 1    
   124   62   63 1    
   125   62   64 1    
   126   62  185 1    
   127   63  186 1    
   128   63  187 1    
   129   63  188 1    
   130   64   65 am   BACKBONE|DICT|INTERRES
   131   64  189 1    
   132   65   66 2    
   133   67   68 2    
   134   67   69 am   BACKBONE|DICT|INTERRES
   135   69   70 1    
   136   69  190 1    
   137   70   71 1    
   138   70   72 1    
   139   70  191 1    
   140   71  192 1    
   141   71  193 1    
   142   71  194 1    
   143   72   73 2    
   144   72   74 am   BACKBONE|DICT|INTERRES
   145   74   75 1    
   146   74  195 1    
   147   75   76 1    
   148   75   77 1    
   149   75  196 1    
   150   76  197 1    
   151   76  198 1    
   152   76  199 1    
   153   77   78 2    
   154   77   79 am   BACKBONE|DICT|INTERRES
   155   79   80 1    
   156   79  200 1    
   157   80   81 1    
   158   80   82 1    
   159   80  201 1    
   160   81  202 1    
   161   81  203 1    
   162   81  204 1    
   163   82   83 2    
   164   82   84 am   BACKBONE|DICT|INTERRES
   165   84   85 1    
   166   84  205 1    
   167   85   86 1    
   168   85   87 1    
   169   85  206 1    
   170   86  207 1    
   171   86  208 1    
   172   86  209 1    
   173   87   88 2    
   174   87   89 am   BACKBONE|DICT|INTERRES
   175   89   90 1    
   176   89  210 1    
   177   90   91 1    
   178   90   92 1    
   179   90  211 1    
   180   91  212 1    
   181   91  213 1    
   182   91  214 1    
   183   92   93 2    
   184   92   94 am   BACKBONE|DICT|INTERRES
   185   94   95 1    
   186   94  215 1    
   187   95   96 1    
   188   95   97 1    
   189   95  216 1    
   190   96  217 1    
   191   96  218 1    
   192   96  219 1    
   193   97   98 2    
   194   97   99 am   BACKBONE|DICT|INTERRES
   195   99  100 1    
   196   99  220 1    
   197  100  101 1    
   198  100  102 1    
   199  100  221 1    
   200  101  222 1    
   201  101  223 1    
   202  101  224 1    
   203  102  103 2    
   204  102  104 am   BACKBONE|DICT|INTERRES
   205  104  105 1    
   206  104  225 1    
   207  105  106 1    
   208  105  107 1    
   209  105  226 1    
   210  106  227 1    
   211  106  228 1    
   212  106  229 1    
   213  107  108 2    
   214  107  109 am   BACKBONE|DICT|INTERRES
   215  109  110 1    
   216  109  230 1    
   217  110  111 1    
   218  110  112 1    
   219  110  231 1    
   220  111  232 1    
   221  111  233 1    
   222  111  234 1    
   223  112  113 2    
   224  112  114 am   BACKBONE|DICT|INTERRES
   225  114  115 1    
   226  114  235 1    
   227  115  116 1    
   228  115  117 1    
   229  115  236 1    
   230  116  237 1    
   231  116  238 1    
   232  116  239 1    
   233  117  118 2    
   234  117  119 am   BACKBONE|DICT|INTERRES
   235  119  120 1    
   236  119  240 1    
   237  120  121 1    
   238  120  124 1    
   239  120  241 1    
   240  121  122 am   BACKBONE|DICT|INTERRES
   241  121  123 2    
   242  122  242 1    
   243  122  243 1    
   244  124  125 1    
   245  124  244 1    
   246  124  245 1    
   247  125  126 1    
   248  126  246 1    
   249  126  247 1    
@<TRIPOS>SUBSTRUCTURE
     1 UNK         1 GROUP             0       ****    0 ROOT    
