@<TRIPOS>MOLECULE
3R540
247   249    1
SMALL
USER_CHARGES


@<TRIPOS>ATOM
      1 CA         -3.8098  -10.9638  -44.0473 C.3       0 UNK        -0.1800 
      2 C          -2.7629  -11.9464  -44.5490 C.2       0 UNK         0.5000 
      3 O          -1.7546  -11.5287  -45.1163 O.2       0 UNK        -0.5000 
      4 N          -2.9852  -13.2482  -44.3285 N.am      1 UNK        -0.5000 
      5 CA         -2.1181  -14.3528  -44.7617 C.3       1 UNK         0.1400 
      6 C6         -2.7023  -15.7252  -44.3565 C.3       23 UNK        -0.0398 
      7 S7         -4.2412  -16.1105  -45.2561 S.3       23 UNK        -0.2404 
      8 C8         -3.7648  -17.6118  -46.1695 C.3       23 UNK        -0.0205 
      9 C9         -3.0965  -17.3114  -47.5055 C.ar      23 UNK        -0.0193 
     10 C10        -3.7776  -17.5626  -48.7011 C.ar      23 UNK        -0.1150 
     11 C11        -3.1579  -17.3410  -49.9352 C.ar      23 UNK        -0.0193 
     12 C12        -1.8583  -16.8312  -49.9667 C.ar      23 UNK        -0.1150 
     13 C13        -1.1524  -16.6117  -48.7828 C.ar      23 UNK        -0.0193 
     14 C14        -1.7804  -16.8422  -47.5556 C.ar      23 UNK        -0.1150 
     15 C15         0.3029  -16.1720  -48.8378 C.3       23 UNK        -0.0205 
     16 S16         1.4082  -17.5620  -49.2576 S.3       23 UNK        -0.2404 
     17 C17         1.2607  -18.5991  -47.7604 C.3       23 UNK        -0.0398 
     18 CA          0.9188  -20.0919  -47.9992 C.3       11 UNK         0.1400 
     19 N           1.0284  -20.8472  -46.7449 N.am      11 UNK        -0.5000 
     20 C           1.0860  -22.1840  -46.6488 C.2       10 UNK         0.5000 
     21 O           1.1083  -22.9336  -47.6249 O.2       10 UNK        -0.5000 
     22 CA          1.0476  -22.7902  -45.2319 C.3       10 UNK         0.1400 
     23 CB          2.4528  -23.1839  -44.7554 C.3       10 UNK        -0.1800 
     24 N           0.4218  -21.9038  -44.2459 N.am      10 UNK        -0.5000 
     25 C          -0.8970  -21.6623  -44.1980 C.2       9 UNK         0.5000 
     26 O          -1.7026  -22.1644  -44.9800 O.2       9 UNK        -0.5000 
     27 CA         -1.4059  -20.6705  -43.1338 C.3       9 UNK         0.1400 
     28 CB         -1.8048  -21.4158  -41.8517 C.3       9 UNK        -0.1800 
     29 N          -0.4487  -19.6157  -42.7971 N.am      9 UNK        -0.5000 
     30 C           0.0197  -18.7034  -43.6581 C.2       8 UNK         0.5000 
     31 O          -0.3109  -18.6616  -44.8417 O.2       8 UNK        -0.5000 
     32 CA          1.0399  -17.6778  -43.1270 C.3       8 UNK         0.1400 
     33 CB          1.0689  -17.5591  -41.5885 C.3       8 UNK        -0.1800 
     34 N           2.3929  -17.9082  -43.6366 N.am      8 UNK        -0.5000 
     35 C           3.1063  -19.0457  -43.5845 C.2       7 UNK         0.5000 
     36 O           2.6628  -20.1144  -43.1614 O.2       7 UNK        -0.5000 
     37 CA          4.5697  -18.9891  -44.0750 C.3       7 UNK         0.1400 
     38 CB          4.6999  -19.5882  -45.4839 C.3       7 UNK        -0.1800 
     39 N           5.1313  -17.6385  -44.0969 N.am      7 UNK        -0.5000 
     40 C           5.3855  -16.8755  -43.0245 C.2       6 UNK         0.5000 
     41 O           5.2887  -17.2733  -41.8634 O.2       6 UNK        -0.5000 
     42 CA          5.7875  -15.4096  -43.2985 C.3       6 UNK         0.1400 
     43 CB          7.3022  -15.2251  -43.1223 C.3       6 UNK        -0.1800 
     44 N           5.3993  -14.9210  -44.6286 N.am      6 UNK        -0.5000 
     45 C           4.1375  -14.8015  -45.0615 C.2       5 UNK         0.5000 
     46 O           3.1549  -15.1164  -44.3902 O.2       5 UNK        -0.5000 
     47 CA          3.9521  -14.3502  -46.5130 C.3       5 UNK         0.1400 
     48 CB          3.8863  -15.5764  -47.4388 C.3       5 UNK        -0.1800 
     49 N           2.7294  -13.5620  -46.6295 N.am      5 UNK        -0.5000 
     50 C           2.4882  -12.6812  -47.6090 C.2       4 UNK         0.5000 
     51 O           3.2393  -12.5057  -48.5695 O.2       4 UNK        -0.5000 
     52 CA          1.2212  -11.8147  -47.4840 C.3       4 UNK         0.1400 
     53 CB         -0.0167  -12.5591  -48.0084 C.3       4 UNK        -0.1800 
     54 N           0.9773  -11.3560  -46.1172 N.am      4 UNK        -0.5000 
     55 C           1.7675  -10.5160  -45.4320 C.2       3 UNK         0.5000 
     56 O           2.7816   -9.9939  -45.8964 O.2       3 UNK        -0.5000 
     57 CA          1.3666  -10.2218  -43.9760 C.3       3 UNK         0.1400 
     58 CB          0.3651   -9.0587  -43.9030 C.3       3 UNK        -0.1800 
     59 N           0.7939  -11.4066  -43.3380 N.am      3 UNK        -0.5000 
     60 C           1.5233  -12.3880  -42.7888 C.2       2 UNK         0.5000 
     61 O           2.7460  -12.3321  -42.6544 O.2       2 UNK        -0.5000 
     62 CA          0.7674  -13.6413  -42.3043 C.3       2 UNK         0.1400 
     63 CB          0.5424  -13.5855  -40.7861 C.3       2 UNK        -0.1800 
     64 N          -0.5233  -13.8409  -42.9679 N.am      2 UNK        -0.5000 
     65 C          -0.6719  -14.2237  -44.2441 C.2       1 UNK         0.5000 
     66 O           0.2648  -14.4440  -45.0097 O.2       1 UNK        -0.5000 
     67 C          -0.4523  -20.3134  -48.6860 C.2       11 UNK         0.5000 
     68 O          -0.5517  -20.1550  -49.8982 O.2       11 UNK        -0.5000 
     69 N          -1.4700  -20.7523  -47.9305 N.am      12 UNK        -0.5000 
     70 CA         -2.7856  -21.1150  -48.4593 C.3       12 UNK         0.1400 
     71 CB         -3.7912  -21.1288  -47.2963 C.3       12 UNK        -0.1800 
     72 C          -2.8062  -22.4828  -49.1727 C.2       12 UNK         0.5000 
     73 O          -3.8068  -22.8006  -49.8178 O.2       12 UNK        -0.5000 
     74 N          -1.7527  -23.2979  -48.9971 N.am      13 UNK        -0.5000 
     75 CA         -1.6937  -24.7251  -49.3295 C.3       13 UNK         0.1400 
     76 CB         -1.7118  -24.9493  -50.8601 C.3       13 UNK        -0.1800 
     77 C          -2.7945  -25.4871  -48.5610 C.2       13 UNK         0.5000 
     78 O          -2.8383  -25.3980  -47.3321 O.2       13 UNK        -0.5000 
     79 N          -3.6936  -26.1735  -49.2768 N.am      14 UNK        -0.5000 
     80 CA         -4.8979  -26.7938  -48.7275 C.3       14 UNK         0.1400 
     81 CB         -5.3578  -27.9235  -49.6653 C.3       14 UNK        -0.1800 
     82 C          -5.9953  -25.7357  -48.4921 C.2       14 UNK         0.5000 
     83 O          -6.9848  -25.6987  -49.2254 O.2       14 UNK        -0.5000 
     84 N          -5.7710  -24.8689  -47.4939 N.am      15 UNK        -0.5000 
     85 CA         -6.6999  -23.8753  -46.9356 C.3       15 UNK         0.1400 
     86 CB         -7.7733  -24.5953  -46.0941 C.3       15 UNK        -0.1800 
     87 C          -7.3203  -22.9047  -47.9672 C.2       15 UNK         0.5000 
     88 O          -8.4664  -22.4850  -47.8014 O.2       15 UNK        -0.5000 
     89 N          -6.5596  -22.5848  -49.0242 N.am      16 UNK        -0.5000 
     90 CA         -6.9282  -21.7577  -50.1781 C.3       16 UNK         0.1400 
     91 CB         -7.2403  -20.3067  -49.7572 C.3       16 UNK        -0.1800 
     92 C          -8.0238  -22.3723  -51.0770 C.2       16 UNK         0.5000 
     93 O          -8.5313  -21.6800  -51.9603 O.2       16 UNK        -0.5000 
     94 N          -8.3469  -23.6604  -50.8822 N.am      17 UNK        -0.5000 
     95 CA         -9.2206  -24.4271  -51.7702 C.3       17 UNK         0.1400 
     96 CB         -9.8193  -25.6252  -51.0167 C.3       17 UNK        -0.1800 
     97 C          -8.4411  -24.8829  -53.0140 C.2       17 UNK         0.5000 
     98 O          -8.9318  -24.7270  -54.1326 O.2       17 UNK        -0.5000 
     99 N          -7.2213  -25.3962  -52.7939 N.am      18 UNK        -0.5000 
    100 CA        -6.2572  -25.6913  -53.8545 C.3       18 UNK         0.1400 
    101 CB        -5.2341  -26.7262  -53.3609 C.3       18 UNK        -0.1800 
    102 C         -5.5446  -24.4125  -54.3252 C.2       18 UNK         0.5000 
    103 O         -5.4055  -24.2047  -55.5301 O.2       18 UNK        -0.5000 
    104 N         -5.1088  -23.5892  -53.3552 N.am      19 UNK        -0.5000 
    105 CA        -4.4240  -22.2983  -53.5216 C.3       19 UNK         0.1400 
    106 CB        -5.3839  -21.2596  -54.1390 C.3       19 UNK        -0.1800 
    107 C         -3.0799  -22.3852  -54.2816 C.2       19 UNK         0.5000 
    108 O         -2.6296  -21.3930  -54.8548 O.2       19 UNK        -0.5000 
    109 N         -2.4551  -23.5710  -54.2749 N.am      20 UNK        -0.5000 
    110 CA        -1.2586  -23.8954  -55.0551 C.3       20 UNK         0.1400 
    111 CB        -1.0288  -25.4133  -54.9908 C.3       20 UNK        -0.1800 
    112 C          0.0095  -23.1418  -54.6124 C.2       20 UNK         0.5000 
    113 O          0.8967  -22.9136  -55.4353 O.2       20 UNK        -0.5000 
    114 N          0.0741  -22.7818  -53.3257 N.am      21 UNK        -0.5000 
    115 CA         1.2072  -22.0920  -52.7107 C.3       21 UNK         0.1400 
    116 CB         1.4029  -22.6445  -51.2883 C.3       21 UNK        -0.1800 
    117 C          1.0446  -20.5601  -52.6893 C.2       21 UNK         0.5000 
    118 O          2.0045  -19.8764  -52.3304 O.2       21 UNK        -0.5000 
    119 N         -0.1429  -20.0479  -53.0485 N.am      22 UNK        -0.5000 
    120 CA        -0.4880  -18.6203  -52.9834 C.3       22 UNK         0.1400 
    121 C          0.3855  -17.7534  -53.9318 C.2       22 UNK         0.5000 
    122 N          1.0106  -16.6998  -53.4255 N.am      22 UNK        -0.7600 
    123 O          0.4638  -18.0040  -55.1320 O.2       22 UNK        -0.5000 
    124 C124       -1.9924  -18.3642  -53.2673 C.3       23 UNK        -0.0398 
    125 S125       -3.1312  -19.1301  -52.0573 S.3       23 UNK        -0.2404 
    126 C126       -3.8787  -17.6830  -51.2308 C.3       23 UNK        -0.0205 
    127 H127       -3.3595  -10.2649  -43.3426 H         1 UNK         0.0600 
    128 H128       -4.6348  -11.4703  -43.5460 H         1 UNK         0.0600 
    129 H129       -4.2165  -10.3931  -44.8819 H         1 UNK         0.0600 
    130 H130       -3.8418  -13.5268  -43.8713 H         1 UNK         0.3000 
    131 H131       -2.0654  -14.3095  -45.8515 H         1 UNK         0.0600 
    132 H132       -1.9791  -16.5227  -44.5245 H         1 UNK         0.0800 
    133 H133       -2.9174  -15.7496  -43.2870 H         1 UNK         0.0800 
    134 H134       -4.6691  -18.2004  -46.3303 H         1 UNK         0.0800 
    135 H135       -3.1085  -18.2340  -45.5594 H         1 UNK         0.0800 
    136 H136       -4.7840  -17.9554  -48.6709 H         1 UNK         0.1150 
    137 H137       -1.3771  -16.6495  -50.9151 H         1 UNK         0.1150 
    138 H138       -1.2304  -16.6813  -46.6409 H         1 UNK         0.1150 
    139 H139        0.6132  -15.7361  -47.8865 H         1 UNK         0.0800 
    140 H140        0.4190  -15.3878  -49.5866 H         1 UNK         0.0800 
    141 H141        0.5361  -18.1528  -47.0870 H         1 UNK         0.0800 
    142 H142        2.2139  -18.5293  -47.2395 H         1 UNK         0.0800 
    143 H143        1.6725  -20.4916  -48.6813 H         1 UNK         0.0600 
    144 H144        0.9400  -20.3086  -45.8932 H         1 UNK         0.3000 
    145 H145        0.4530  -23.7044  -45.2925 H         1 UNK         0.0600 
    146 H146        2.4099  -23.7117  -43.8026 H         1 UNK         0.0600 
    147 H147        2.9380  -23.8472  -45.4724 H         1 UNK         0.0600 
    148 H148        3.0952  -22.3155  -44.6246 H         1 UNK         0.0600 
    149 H149        1.0415  -21.4142  -43.6089 H         1 UNK         0.3000 
    150 H150       -2.2979  -20.1888  -43.5399 H         1 UNK         0.0600 
    151 H151       -0.9451  -21.8936  -41.3804 H         1 UNK         0.0600 
    152 H152       -2.5378  -22.1951  -42.0648 H         1 UNK         0.0600 
    153 H153       -2.2544  -20.7391  -41.1250 H         1 UNK         0.0600 
    154 H154       -0.1005  -19.6056  -41.8497 H         1 UNK         0.3000 
    155 H155        0.7294  -16.7130  -43.5253 H         1 UNK         0.0600 
    156 H156        1.4334  -18.4692  -41.1109 H         1 UNK         0.0600 
    157 H157        0.0773  -17.3420  -41.1898 H         1 UNK         0.0600 
    158 H158        1.7233  -16.7447  -41.2774 H         1 UNK         0.0600 
    159 H159        2.8404  -17.0781  -44.0118 H         1 UNK         0.3000 
    160 H160        5.1631  -19.5948  -43.3874 H         1 UNK         0.0600 
    161 H161        4.2219  -18.9598  -46.2342 H         1 UNK         0.0600 
    162 H162        4.2448  -20.5758  -45.5443 H         1 UNK         0.0600 
    163 H163        5.7470  -19.6999  -45.7650 H         1 UNK         0.0600 
    164 H164        5.2632  -17.2224  -45.0061 H         1 UNK         0.3000 
    165 H165        5.2773  -14.7916  -42.5569 H         1 UNK         0.0600 
    166 H166        7.5874  -14.1782  -43.2276 H         1 UNK         0.0600 
    167 H167        7.8657  -15.8036  -43.8550 H         1 UNK         0.0600 
    168 H168        7.6230  -15.5490  -42.1314 H         1 UNK         0.0600 
    169 H169        6.1558  -14.6650  -45.2468 H         1 UNK         0.3000 
    170 H170        4.8039  -13.7269  -46.7935 H         1 UNK         0.0600 
    171 H171        4.8092  -16.1552  -47.3935 H         1 UNK         0.0600 
    172 H172        3.0694  -16.2377  -47.1519 H         1 UNK         0.0600 
    173 H173        3.7355  -15.2893  -48.4793 H         1 UNK         0.0600 
    174 H174        2.0561  -13.6901  -45.8783 H         1 UNK         0.3000 
    175 H175        1.3661  -10.9290  -48.1060 H         1 UNK         0.0600 
    176 H176       -0.2325  -13.4508  -47.4214 H         1 UNK         0.0600 
    177 H177       -0.9004  -11.9216  -47.9808 H         1 UNK         0.0600 
    178 H178        0.1262  -12.8729  -49.0428 H         1 UNK         0.0600 
    179 H179        0.1208  -11.6790  -45.6789 H         1 UNK         0.3000 
    180 H180        2.2657   -9.9198  -43.4345 H         1 UNK         0.0600 
    181 H181       -0.5529   -9.2741  -44.4495 H         1 UNK         0.0600 
    182 H182        0.7935   -8.1517  -44.3312 H         1 UNK         0.0600 
    183 H183        0.0960   -8.8349  -42.8707 H         1 UNK         0.0600 
    184 H184       -0.2014  -11.5423  -43.4495 H         1 UNK         0.3000 
    185 H185        1.3991  -14.5047  -42.5187 H         1 UNK         0.0600 
    186 H186        0.0795  -14.5030  -40.4221 H         1 UNK         0.0600 
    187 H187        1.4883  -13.4686  -40.2556 H         1 UNK         0.0600 
    188 H188       -0.0982  -12.7490  -40.5044 H         1 UNK         0.0600 
    189 H189       -1.3494  -13.6547  -42.4178 H         1 UNK         0.3000 
    190 H190       -1.3238  -20.9027  -46.9415 H         1 UNK         0.3000 
    191 H191       -3.0930  -20.3524  -49.1772 H         1 UNK         0.0600 
    192 H192       -4.8081  -20.9915  -47.6614 H         1 UNK         0.0600 
    193 H193       -3.5947  -20.3319  -46.5818 H         1 UNK         0.0600 
    194 H194       -3.7613  -22.0702  -46.7441 H         1 UNK         0.0600 
    195 H195       -0.9798  -22.9557  -48.4405 H         1 UNK         0.3000 
    196 H196       -0.7403  -25.0944  -48.9491 H         1 UNK         0.0600 
    197 H197       -2.6210  -24.5745  -51.3297 H         1 UNK         0.0600 
    198 H198       -0.8673  -24.4508  -51.3295 H         1 UNK         0.0600 
    199 H199       -1.6210  -26.0084  -51.1045 H         1 UNK         0.0600 
    200 H200       -3.6047  -26.1760  -50.2809 H         1 UNK         0.3000 
    201 H201       -4.6610  -27.2467  -47.7623 H         1 UNK         0.0600 
    202 H202       -5.6493  -27.5468  -50.6442 H         1 UNK         0.0600 
    203 H203       -6.2207  -28.4445  -49.2488 H         1 UNK         0.0600 
    204 H204       -4.5706  -28.6635  -49.8098 H         1 UNK         0.0600 
    205 H205       -4.8737  -24.9416  -47.0260 H         1 UNK         0.3000 
    206 H206       -6.1111  -23.2546  -46.2591 H         1 UNK         0.0600 
    207 H207       -7.3186  -25.2489  -45.3498 H         1 UNK         0.0600 
    208 H208       -8.3984  -23.8822  -45.5554 H         1 UNK         0.0600 
    209 H209       -8.4298  -25.2035  -46.7175 H         1 UNK         0.0600 
    210 H210       -5.6244  -22.9767  -49.0807 H         1 UNK         0.3000 
    211 H211       -6.0368  -21.7165  -50.8041 H         1 UNK         0.0600 
    212 H212       -7.3523  -19.6625  -50.6300 H         1 UNK         0.0600 
    213 H213       -6.4353  -19.8891  -49.1534 H         1 UNK         0.0600 
    214 H214       -8.1640  -20.2384  -49.1827 H         1 UNK         0.0600 
    215 H215       -7.8898  -24.1798  -50.1389 H         1 UNK         0.3000 
    216 H216      -10.0461  -23.7905  -52.0959 H         1 UNK         0.0600 
    217 H217       -9.0570  -26.3443  -50.7166 H         1 UNK         0.0600 
    218 H218      -10.5374  -26.1556  -51.6431 H         1 UNK         0.0600 
    219 H219      -10.3462  -25.3022  -50.1187 H         1 UNK         0.0600 
    220 H220       -6.9179  -25.5180  -51.8384 H         1 UNK         0.3000 
    221 H221       -6.7849  -26.1211  -54.7089 H         1 UNK         0.0600 
    222 H222       -5.7244  -27.6575  -53.0772 H         1 UNK         0.0600 
    223 H223       -4.6685  -26.3645  -52.5021 H         1 UNK         0.0600 
    224 H224       -4.5162  -26.9674  -54.1461 H         1 UNK         0.0600 
    225 H225       -5.2656  -23.8686  -52.3987 H         1 UNK         0.3000 
    226 H226       -4.1723  -21.9587  -52.5164 H         1 UNK         0.0600 
    227 H227       -5.6555  -21.5177  -55.1625 H         1 UNK         0.0600 
    228 H228       -6.3025  -21.1783  -53.5592 H         1 UNK         0.0600 
    229 H229       -4.9330  -20.2675  -54.1651 H         1 UNK         0.0600 
    230 H230       -2.8970  -24.3362  -53.7898 H         1 UNK         0.3000 
    231 H231       -1.4539  -23.6231  -56.0944 H         1 UNK         0.0600 
    232 H232       -0.8535  -25.7512  -53.9688 H         1 UNK         0.0600 
    233 H233       -0.1616  -25.7029  -55.5856 H         1 UNK         0.0600 
    234 H234       -1.8867  -25.9596  -55.3832 H         1 UNK         0.0600 
    235 H235       -0.7112  -22.9888  -52.7277 H         1 UNK         0.3000 
    236 H236        2.1180  -22.3058  -53.2738 H         1 UNK         0.0600 
    237 H237        1.6208  -23.7120  -51.3061 H         1 UNK         0.0600 
    238 H238        2.2358  -22.1536  -50.7844 H         1 UNK         0.0600 
    239 H239        0.5169  -22.4953  -50.6724 H         1 UNK         0.0600 
    240 H240       -0.8702  -20.6664  -53.3760 H         1 UNK         0.3000 
    241 H241       -0.2817  -18.3089  -51.9592 H         1 UNK         0.0600 
    242 H242        1.5685  -16.1228  -54.0350 H         1 UNK         0.3800 
    243 H243        0.9875  -16.4994  -52.4384 H         1 UNK         0.3800 
    244 H244       -2.2544  -18.7415  -54.2569 H         1 UNK         0.0800 
    245 H245       -2.1883  -17.2919  -53.3035 H         1 UNK         0.0800 
    246 H246       -4.9246  -17.9167  -51.0263 H         1 UNK         0.0800 
    247 H247       -3.8917  -16.8155  -51.8911 H         1 UNK         0.0800 
@<TRIPOS>BOND
     1    1    2 1    
     2    1  127 1    
     3    1  128 1    
     4    1  129 1    
     5    2    3 2    
     6    2    4 am   BACKBONE|DICT|INTERRES
     7    4    5 1    
     8    4  130 1    
     9    5    6 1    
    10    5   65 1    
    11    5  131 1    
    12    6    7 1    
    13    6  132 1    
    14    6  133 1    
    15    7    8 1    
    16    8    9 1    
    17    8  134 1    
    18    8  135 1    
    19    9   10 ar   
    20    9   14 ar   
    21   10   11 ar   
    22   10  136 1    
    23   11   12 ar   
    24   11  126 1    
    25   12   13 ar   
    26   12  137 1    
    27   13   14 ar   
    28   13   15 1    
    29   14  138 1    
    30   15   16 1    
    31   15  139 1    
    32   15  140 1    
    33   16   17 1    
    34   17   18 1    
    35   17  141 1    
    36   17  142 1    
    37   18   19 1    
    38   18   67 1    
    39   18  143 1    
    40   19   20 am   BACKBONE|DICT|INTERRES
    41   19  144 1    
    42   20   21 2    
    43   20   22 1    
    44   22   23 1    
    45   22   24 1    
    46   22  145 1    
    47   23  146 1    
    48   23  147 1    
    49   23  148 1    
    50   24   25 am   BACKBONE|DICT|INTERRES
    51   24  149 1    
    52   25   26 2    
    53   25   27 1    
    54   27   28 1    
    55   27   29 1    
    56   27  150 1    
    57   28  151 1    
    58   28  152 1    
    59   28  153 1    
    60   29   30 am   BACKBONE|DICT|INTERRES
    61   29  154 1    
    62   30   31 2    
    63   30   32 1    
    64   32   33 1    
    65   32   34 1    
    66   32  155 1    
    67   33  156 1    
    68   33  157 1    
    69   33  158 1    
    70   34   35 am   BACKBONE|DICT|INTERRES
    71   34  159 1    
    72   35   36 2    
    73   35   37 1    
    74   37   38 1    
    75   37   39 1    
    76   37  160 1    
    77   38  161 1    
    78   38  162 1    
    79   38  163 1    
    80   39   40 am   BACKBONE|DICT|INTERRES
    81   39  164 1    
    82   40   41 2    
    83   40   42 1    
    84   42   43 1    
    85   42   44 1    
    86   42  165 1    
    87   43  166 1    
    88   43  167 1    
    89   43  168 1    
    90   44   45 am   BACKBONE|DICT|INTERRES
    91   44  169 1    
    92   45   46 2    
    93   45   47 1    
    94   47   48 1    
    95   47   49 1    
    96   47  170 1    
    97   48  171 1    
    98   48  172 1    
    99   48  173 1    
   100   49   50 am   BACKBONE|DICT|INTERRES
   101   49  174 1    
   102   50   51 2    
   103   50   52 1    
   104   52   53 1    
   105   52   54 1    
   106   52  175 1    
   107   53  176 1    
   108   53  177 1    
   109   53  178 1    
   110   54   55 am   BACKBONE|DICT|INTERRES
   111   54  179 1    
   112   55   56 2    
   113   55   57 1    
   114   57   58 1    
   115   57   59 1    
   116   57  180 1    
   117   58  181 1    
   118   58  182 1    
   119   58  183 1    
   120   59   60 am   BACKBONE|DICT|INTERRES
   121   59  184 1    
   122   60   61 2    
   123   60   62 1    
   124   62   63 1    
   125   62   64 1    
   126   62  185 1    
   127   63  186 1    
   128   63  187 1    
   129   63  188 1    
   130   64   65 am   BACKBONE|DICT|INTERRES
   131   64  189 1    
   132   65   66 2    
   133   67   68 2    
   134   67   69 am   BACKBONE|DICT|INTERRES
   135   69   70 1    
   136   69  190 1    
   137   70   71 1    
   138   70   72 1    
   139   70  191 1    
   140   71  192 1    
   141   71  193 1    
   142   71  194 1    
   143   72   73 2    
   144   72   74 am   BACKBONE|DICT|INTERRES
   145   74   75 1    
   146   74  195 1    
   147   75   76 1    
   148   75   77 1    
   149   75  196 1    
   150   76  197 1    
   151   76  198 1    
   152   76  199 1    
   153   77   78 2    
   154   77   79 am   BACKBONE|DICT|INTERRES
   155   79   80 1    
   156   79  200 1    
   157   80   81 1    
   158   80   82 1    
   159   80  201 1    
   160   81  202 1    
   161   81  203 1    
   162   81  204 1    
   163   82   83 2    
   164   82   84 am   BACKBONE|DICT|INTERRES
   165   84   85 1    
   166   84  205 1    
   167   85   86 1    
   168   85   87 1    
   169   85  206 1    
   170   86  207 1    
   171   86  208 1    
   172   86  209 1    
   173   87   88 2    
   174   87   89 am   BACKBONE|DICT|INTERRES
   175   89   90 1    
   176   89  210 1    
   177   90   91 1    
   178   90   92 1    
   179   90  211 1    
   180   91  212 1    
   181   91  213 1    
   182   91  214 1    
   183   92   93 2    
   184   92   94 am   BACKBONE|DICT|INTERRES
   185   94   95 1    
   186   94  215 1    
   187   95   96 1    
   188   95   97 1    
   189   95  216 1    
   190   96  217 1    
   191   96  218 1    
   192   96  219 1    
   193   97   98 2    
   194   97   99 am   BACKBONE|DICT|INTERRES
   195   99  100 1    
   196   99  220 1    
   197  100  101 1    
   198  100  102 1    
   199  100  221 1    
   200  101  222 1    
   201  101  223 1    
   202  101  224 1    
   203  102  103 2    
   204  102  104 am   BACKBONE|DICT|INTERRES
   205  104  105 1    
   206  104  225 1    
   207  105  106 1    
   208  105  107 1    
   209  105  226 1    
   210  106  227 1    
   211  106  228 1    
   212  106  229 1    
   213  107  108 2    
   214  107  109 am   BACKBONE|DICT|INTERRES
   215  109  110 1    
   216  109  230 1    
   217  110  111 1    
   218  110  112 1    
   219  110  231 1    
   220  111  232 1    
   221  111  233 1    
   222  111  234 1    
   223  112  113 2    
   224  112  114 am   BACKBONE|DICT|INTERRES
   225  114  115 1    
   226  114  235 1    
   227  115  116 1    
   228  115  117 1    
   229  115  236 1    
   230  116  237 1    
   231  116  238 1    
   232  116  239 1    
   233  117  118 2    
   234  117  119 am   BACKBONE|DICT|INTERRES
   235  119  120 1    
   236  119  240 1    
   237  120  121 1    
   238  120  124 1    
   239  120  241 1    
   240  121  122 am   BACKBONE|DICT|INTERRES
   241  121  123 2    
   242  122  242 1    
   243  122  243 1    
   244  124  125 1    
   245  124  244 1    
   246  124  245 1    
   247  125  126 1    
   248  126  246 1    
   249  126  247 1    
@<TRIPOS>SUBSTRUCTURE
     1 UNK         1 GROUP             0       ****    0 ROOT    
