@<TRIPOS>MOLECULE
3R540
247   249    1
SMALL
USER_CHARGES


@<TRIPOS>ATOM
      1 CA          2.3726  -14.2825  -53.6716 C.3       0 UNK        -0.1800 
      2 C           2.5036  -14.8950  -52.2847 C.2       0 UNK         0.5000 
      3 O           3.5404  -15.4776  -51.9685 O.2       0 UNK        -0.5000 
      4 N           1.4583  -14.7624  -51.4574 N.am      1 UNK        -0.5000 
      5 CA          1.3825  -15.3177  -50.0981 C.3       1 UNK         0.1400 
      6 C6         -0.0774  -15.4146  -49.5895 C.3       23 UNK        -0.0398 
      7 S7         -1.0951  -16.4983  -50.6522 S.3       23 UNK        -0.2404 
      8 C8         -1.1266  -18.0456  -49.6937 C.3       23 UNK        -0.0205 
      9 C9         -2.3766  -18.1559  -48.8356 C.ar      23 UNK        -0.0193 
     10 C10        -3.4982  -18.8311  -49.3259 C.ar      23 UNK        -0.1150 
     11 C11        -4.6405  -18.9851  -48.5359 C.ar      23 UNK        -0.0193 
     12 C12        -4.6561  -18.4438  -47.2474 C.ar      23 UNK        -0.1150 
     13 C13        -3.5469  -17.7561  -46.7480 C.ar      23 UNK        -0.0193 
     14 C14        -2.4078  -17.6150  -47.5467 C.ar      23 UNK        -0.1150 
     15 C15        -3.5876  -17.1746  -45.3433 C.3       23 UNK        -0.0205 
     16 S16        -3.6188  -18.4722  -44.0668 S.3       23 UNK        -0.2404 
     17 C17        -1.9169  -19.1338  -44.1444 C.3       23 UNK        -0.0398 
     18 CA         -1.6648  -20.3011  -45.1336 C.3       11 UNK         0.1400 
     19 N          -0.3132  -20.8367  -44.9671 N.am      11 UNK        -0.5000 
     20 C           0.2942  -21.6959  -45.7954 C.2       10 UNK         0.5000 
     21 O          -0.1931  -22.1003  -46.8487 O.2       10 UNK        -0.5000 
     22 CA          1.6629  -22.2306  -45.3477 C.3       10 UNK         0.1400 
     23 CB          2.7848  -21.2577  -45.7400 C.3       10 UNK        -0.1800 
     24 N           1.7004  -22.4826  -43.9069 N.am      10 UNK        -0.5000 
     25 C           1.0301  -23.4711  -43.2980 C.2       9 UNK         0.5000 
     26 O           0.3369  -24.2958  -43.8945 O.2       9 UNK        -0.5000 
     27 CA          1.1202  -23.5202  -41.7614 C.3       9 UNK         0.1400 
     28 CB          2.4194  -24.2071  -41.3149 C.3       9 UNK        -0.1800 
     29 N           1.0326  -22.1948  -41.1438 N.am      9 UNK        -0.5000 
     30 C          -0.0667  -21.4287  -41.1619 C.2       8 UNK         0.5000 
     31 O          -1.1218  -21.7614  -41.6996 O.2       8 UNK        -0.5000 
     32 CA          0.0368  -20.0384  -40.5090 C.3       8 UNK         0.1400 
     33 CB         -0.1846  -20.1363  -38.9926 C.3       8 UNK        -0.1800 
     34 N           1.2885  -19.3214  -40.7685 N.am      8 UNK        -0.5000 
     35 C           1.8226  -19.0764  -41.9731 C.2       7 UNK         0.5000 
     36 O           1.3978  -19.5626  -43.0223 O.2       7 UNK        -0.5000 
     37 CA          2.9828  -18.0666  -41.9922 C.3       7 UNK         0.1400 
     38 CB          3.6580  -17.9554  -43.3710 C.3       7 UNK        -0.1800 
     39 N           2.4331  -16.7650  -41.6269 N.am      7 UNK        -0.5000 
     40 C           2.5102  -16.1977  -40.4155 C.2       6 UNK         0.5000 
     41 O           3.1888  -16.6529  -39.4945 O.2       6 UNK        -0.5000 
     42 CA          1.6506  -14.9397  -40.1684 C.3       6 UNK         0.1400 
     43 CB          2.4920  -13.6623  -40.2972 C.3       6 UNK        -0.1800 
     44 N           0.4929  -14.8570  -41.0632 N.am      6 UNK        -0.5000 
     45 C          -0.5798  -15.6590  -40.9735 C.2       5 UNK         0.5000 
     46 O          -0.7427  -16.4723  -40.0635 O.2       5 UNK        -0.5000 
     47 CA         -1.6390  -15.5711  -42.0915 C.3       5 UNK         0.1400 
     48 CB         -2.8630  -14.7735  -41.6182 C.3       5 UNK        -0.1800 
     49 N          -1.1623  -15.0011  -43.3548 N.am      5 UNK        -0.5000 
     50 C          -0.1785  -15.5026  -44.1133 C.2       4 UNK         0.5000 
     51 O           0.4884  -16.4851  -43.7962 O.2       4 UNK        -0.5000 
     52 CA          0.1386  -14.7903  -45.4410 C.3       4 UNK         0.1400 
     53 CB         -0.8694  -13.6893  -45.8349 C.3       4 UNK        -0.1800 
     54 N           1.5006  -14.2593  -45.4634 N.am      4 UNK        -0.5000 
     55 C           2.0708  -13.4350  -44.5707 C.2       3 UNK         0.5000 
     56 O           1.5125  -13.0323  -43.5486 O.2       3 UNK        -0.5000 
     57 CA          3.5101  -12.9722  -44.8760 C.3       3 UNK         0.1400 
     58 CB          4.5239  -13.8523  -44.1279 C.3       3 UNK        -0.1800 
     59 N           3.8401  -12.9946  -46.3028 N.am      3 UNK        -0.5000 
     60 C           3.2731  -12.2352  -47.2509 C.2       2 UNK         0.5000 
     61 O           2.4385  -11.3591  -47.0217 O.2       2 UNK        -0.5000 
     62 CA          3.6927  -12.5148  -48.7085 C.3       2 UNK         0.1400 
     63 CB          5.1121  -13.1109  -48.8381 C.3       2 UNK        -0.1800 
     64 N           2.7268  -13.3560  -49.4248 N.am      2 UNK        -0.5000 
     65 C           2.2839  -14.5779  -49.0841 C.2       1 UNK         0.5000 
     66 O           2.5715  -15.1435  -48.0281 O.2       1 UNK        -0.5000 
     67 C          -2.7273  -21.4202  -45.0735 C.2       11 UNK         0.5000 
     68 O          -3.5693  -21.4993  -45.9675 O.2       11 UNK        -0.5000 
     69 N          -2.6362  -22.3012  -44.0657 N.am      12 UNK        -0.5000 
     70 CA         -3.5213  -23.4564  -43.8886 C.3       12 UNK         0.1400 
     71 CB         -3.2050  -24.1447  -42.5523 C.3       12 UNK        -0.1800 
     72 C          -3.4464  -24.4668  -45.0494 C.2       12 UNK         0.5000 
     73 O          -4.4752  -25.0149  -45.4467 O.2       12 UNK        -0.5000 
     74 N          -2.2376  -24.6726  -45.5874 N.am      13 UNK        -0.5000 
     75 CA         -1.9846  -25.5048  -46.7639 C.3       13 UNK         0.1400 
     76 CB         -0.5016  -25.9079  -46.7602 C.3       13 UNK        -0.1800 
     77 C          -2.3426  -24.8136  -48.0966 C.2       13 UNK         0.5000 
     78 O          -2.4470  -25.5001  -49.1135 O.2       13 UNK        -0.5000 
     79 N          -2.4748  -23.4774  -48.0769 N.am      14 UNK        -0.5000 
     80 CA         -2.5797  -22.5612  -49.2201 C.3       14 UNK         0.1400 
     81 CB         -3.9172  -22.7573  -49.9626 C.3       14 UNK        -0.1800 
     82 C          -1.3585  -22.6579  -50.1617 C.2       14 UNK         0.5000 
     83 O          -1.5009  -22.5156  -51.3761 O.2       14 UNK        -0.5000 
     84 N          -0.1802  -22.9264  -49.5824 N.am      15 UNK        -0.5000 
     85 CA          1.0222  -23.4239  -50.2562 C.3       15 UNK         0.1400 
     86 CB          2.1122  -23.6798  -49.2039 C.3       15 UNK        -0.1800 
     87 C           1.5626  -22.5265  -51.3824 C.2       15 UNK         0.5000 
     88 O           2.0390  -23.0423  -52.3940 O.2       15 UNK        -0.5000 
     89 N           1.4719  -21.2056  -51.1906 N.am      16 UNK        -0.5000 
     90 CA          1.9285  -20.2069  -52.1578 C.3       16 UNK         0.1400 
     91 CB          2.2706  -18.9145  -51.4042 C.3       16 UNK        -0.1800 
     92 C           0.9042  -19.9238  -53.2745 C.2       16 UNK         0.5000 
     93 O           1.2829  -19.3463  -54.2943 O.2       16 UNK        -0.5000 
     94 N          -0.3629  -20.3064  -53.0653 N.am      17 UNK        -0.5000 
     95 CA         -1.4679  -20.0390  -53.9857 C.3       17 UNK         0.1400 
     96 CB         -2.6640  -19.5061  -53.1848 C.3       17 UNK        -0.1800 
     97 C          -1.8862  -21.2884  -54.7745 C.2       17 UNK         0.5000 
     98 O          -2.2870  -21.1582  -55.9322 O.2       17 UNK        -0.5000 
     99 N          -1.8299  -22.4631  -54.1305 N.am      18 UNK        -0.5000 
    100 CA        -2.2712  -23.7883  -54.5810 C.3       18 UNK         0.1400 
    101 CB        -1.4839  -24.2623  -55.8184 C.3       18 UNK        -0.1800 
    102 C         -3.7956  -23.8795  -54.7943 C.2       18 UNK         0.5000 
    103 O         -4.4627  -24.6540  -54.1078 O.2       18 UNK        -0.5000 
    104 N         -4.3131  -23.0740  -55.7259 N.am      19 UNK        -0.5000 
    105 CA        -5.7313  -22.9245  -56.0478 C.3       19 UNK         0.1400 
    106 CB        -6.1016  -23.9081  -57.1723 C.3       19 UNK        -0.1800 
    107 C         -6.0964  -21.4735  -56.4245 C.2       19 UNK         0.5000 
    108 O         -7.2686  -21.2036  -56.6888 O.2       19 UNK        -0.5000 
    109 N         -5.1132  -20.5587  -56.4542 N.am      20 UNK        -0.5000 
    110 CA        -5.2875  -19.1563  -56.8469 C.3       20 UNK         0.1400 
    111 CB        -3.9117  -18.5712  -57.2054 C.3       20 UNK        -0.1800 
    112 C         -5.9796  -18.2796  -55.7826 C.2       20 UNK         0.5000 
    113 O         -6.3657  -17.1524  -56.0958 O.2       20 UNK        -0.5000 
    114 N         -6.1160  -18.7901  -54.5543 N.am      21 UNK        -0.5000 
    115 CA        -6.7585  -18.1265  -53.4267 C.3       21 UNK         0.1400 
    116 CB        -5.6929  -17.4250  -52.5659 C.3       21 UNK        -0.1800 
    117 C         -7.5203  -19.1703  -52.6018 C.2       21 UNK         0.5000 
    118 O         -7.1786  -20.3554  -52.6440 O.2       21 UNK        -0.5000 
    119 N         -8.5170  -18.6927  -51.8483 N.am      22 UNK        -0.5000 
    120 CA        -9.3440  -19.4584  -50.8958 C.3       22 UNK         0.1400 
    121 C        -10.3354  -20.4729  -51.5458 C.2       22 UNK         0.5000 
    122 N        -10.5867  -20.4138  -52.8477 N.am      22 UNK        -0.7600 
    123 O        -10.9155  -21.3079  -50.8567 O.2       22 UNK        -0.5000 
    124 C124       -8.5261  -20.0952  -49.7350 C.3       23 UNK        -0.0398 
    125 S125       -7.4137  -18.9090  -48.8989 S.3       23 UNK        -0.2404 
    126 C126       -5.8257  -19.7864  -49.0580 C.3       23 UNK        -0.0205 
    127 H127        3.1556  -13.5410  -53.8302 H         1 UNK         0.0600 
    128 H128        1.4078  -13.7939  -53.8100 H         1 UNK         0.0600 
    129 H129        2.4740  -15.0558  -54.4331 H         1 UNK         0.0600 
    130 H130        0.6261  -14.2911  -51.7831 H         1 UNK         0.3000 
    131 H131        1.7774  -16.3335  -50.1409 H         1 UNK         0.0600 
    132 H132       -0.5397  -14.4265  -49.5611 H         1 UNK         0.0800 
    133 H133       -0.1084  -15.7907  -48.5672 H         1 UNK         0.0800 
    134 H134       -0.2332  -18.1322  -49.0735 H         1 UNK         0.0800 
    135 H135       -1.0872  -18.8830  -50.3917 H         1 UNK         0.0800 
    136 H136       -3.4730  -19.2558  -50.3184 H         1 UNK         0.1150 
    137 H137       -5.5294  -18.5716  -46.6234 H         1 UNK         0.1150 
    138 H138       -1.5421  -17.0980  -47.1609 H         1 UNK         0.1150 
    139 H139       -2.7446  -16.5074  -45.1713 H         1 UNK         0.0800 
    140 H140       -4.4846  -16.5623  -45.2410 H         1 UNK         0.0800 
    141 H141       -1.6621  -19.4520  -43.1340 H         1 UNK         0.0800 
    142 H142       -1.2328  -18.3188  -44.3735 H         1 UNK         0.0800 
    143 H143       -1.7105  -19.8913  -46.1432 H         1 UNK         0.0600 
    144 H144        0.2068  -20.5153  -44.1542 H         1 UNK         0.3000 
    145 H145        1.8380  -23.1763  -45.8651 H         1 UNK         0.0600 
    146 H146        3.7624  -21.6465  -45.4552 H         1 UNK         0.0600 
    147 H147        2.6600  -20.2829  -45.2684 H         1 UNK         0.0600 
    148 H148        2.8003  -21.0963  -46.8184 H         1 UNK         0.0600 
    149 H149        2.1788  -21.7975  -43.3396 H         1 UNK         0.3000 
    150 H150        0.2798  -24.1173  -41.4006 H         1 UNK         0.0600 
    151 H151        2.5021  -25.2044  -41.7492 H         1 UNK         0.0600 
    152 H152        2.4519  -24.3222  -40.2314 H         1 UNK         0.0600 
    153 H153        3.3011  -23.6420  -41.6196 H         1 UNK         0.0600 
    154 H154        1.8622  -21.8401  -40.6914 H         1 UNK         0.3000 
    155 H155       -0.7669  -19.4263  -40.9218 H         1 UNK         0.0600 
    156 H156       -1.1197  -20.6503  -38.7658 H         1 UNK         0.0600 
    157 H157       -0.2427  -19.1461  -38.5396 H         1 UNK         0.0600 
    158 H158        0.6204  -20.6847  -38.5019 H         1 UNK         0.0600 
    159 H159        1.7030  -18.8598  -39.9713 H         1 UNK         0.3000 
    160 H160        3.7333  -18.3947  -41.2703 H         1 UNK         0.0600 
    161 H161        4.4749  -17.2344  -43.3496 H         1 UNK         0.0600 
    162 H162        4.0781  -18.9140  -43.6770 H         1 UNK         0.0600 
    163 H163        2.9559  -17.6407  -44.1443 H         1 UNK         0.0600 
    164 H164        1.7818  -16.3804  -42.3049 H         1 UNK         0.3000 
    165 H165        1.2837  -14.9941  -39.1412 H         1 UNK         0.0600 
    166 H166        1.9032  -12.7765  -40.0586 H         1 UNK         0.0600 
    167 H167        3.3412  -13.6829  -39.6131 H         1 UNK         0.0600 
    168 H168        2.8858  -13.5398  -41.3044 H         1 UNK         0.0600 
    169 H169        0.5674  -14.2211  -41.8486 H         1 UNK         0.3000 
    170 H170       -1.9607  -16.5935  -42.2976 H         1 UNK         0.0600 
    171 H171       -2.6131  -13.7286  -41.4304 H         1 UNK         0.0600 
    172 H172       -3.6626  -14.8022  -42.3588 H         1 UNK         0.0600 
    173 H173       -3.2661  -15.1868  -40.6926 H         1 UNK         0.0600 
    174 H174       -1.6267  -14.1617  -43.6692 H         1 UNK         0.3000 
    175 H175        0.1026  -15.5638  -46.2077 H         1 UNK         0.0600 
    176 H176       -0.8694  -12.8591  -45.1275 H         1 UNK         0.0600 
    177 H177       -0.6285  -13.2804  -46.8164 H         1 UNK         0.0600 
    178 H178       -1.8849  -14.0830  -45.8951 H         1 UNK         0.0600 
    179 H179        2.0609  -14.5516  -46.2596 H         1 UNK         0.3000 
    180 H180        3.6107  -11.9449  -44.5203 H         1 UNK         0.0600 
    181 H181        5.5445  -13.5061  -44.2922 H         1 UNK         0.0600 
    182 H182        4.4659  -14.8929  -44.4498 H         1 UNK         0.0600 
    183 H183        4.3478  -13.8330  -43.0531 H         1 UNK         0.0600 
    184 H184        4.4888  -13.7089  -46.5999 H         1 UNK         0.3000 
    185 H185        3.6985  -11.5482  -49.2147 H         1 UNK         0.0600 
    186 H186        5.4184  -13.1539  -49.8835 H         1 UNK         0.0600 
    187 H187        5.8462  -12.4976  -48.3137 H         1 UNK         0.0600 
    188 H188        5.1769  -14.1235  -48.4390 H         1 UNK         0.0600 
    189 H189        2.3994  -12.9812  -50.3038 H         1 UNK         0.3000 
    190 H190       -1.9413  -22.1520  -43.3378 H         1 UNK         0.3000 
    191 H191       -4.5461  -23.0821  -43.8442 H         1 UNK         0.0600 
    192 H192       -3.3576  -23.4652  -41.7137 H         1 UNK         0.0600 
    193 H193       -2.1729  -24.4952  -42.5154 H         1 UNK         0.0600 
    194 H194       -3.8525  -25.0078  -42.3927 H         1 UNK         0.0600 
    195 H195       -1.4316  -24.2300  -45.1606 H         1 UNK         0.3000 
    196 H196       -2.5859  -26.4135  -46.6916 H         1 UNK         0.0600 
    197 H197       -0.2512  -26.4783  -45.8655 H         1 UNK         0.0600 
    198 H198        0.1490  -25.0335  -46.7894 H         1 UNK         0.0600 
    199 H199       -0.2581  -26.5303  -47.6221 H         1 UNK         0.0600 
    200 H200       -2.3703  -23.0168  -47.1815 H         1 UNK         0.3000 
    201 H201       -2.5702  -21.5540  -48.8020 H         1 UNK         0.0600 
    202 H202       -4.7591  -22.7286  -49.2717 H         1 UNK         0.0600 
    203 H203       -3.9514  -23.7107  -50.4907 H         1 UNK         0.0600 
    204 H204       -4.0729  -21.9711  -50.7021 H         1 UNK         0.0600 
    205 H205       -0.1532  -22.9028  -48.5663 H         1 UNK         0.3000 
    206 H206        0.7586  -24.3817  -50.7093 H         1 UNK         0.0600 
    207 H207        2.3716  -22.7678  -48.6655 H         1 UNK         0.0600 
    208 H208        1.7897  -24.4207  -48.4729 H         1 UNK         0.0600 
    209 H209        3.0240  -24.0595  -49.6668 H         1 UNK         0.0600 
    210 H210        1.0691  -20.8697  -50.3285 H         1 UNK         0.3000 
    211 H211        2.8423  -20.5656  -52.6366 H         1 UNK         0.0600 
    212 H212        1.3934  -18.4993  -50.9122 H         1 UNK         0.0600 
    213 H213        2.6546  -18.1545  -52.0857 H         1 UNK         0.0600 
    214 H214        3.0349  -19.0857  -50.6460 H         1 UNK         0.0600 
    215 H215       -0.5792  -20.8522  -52.2405 H         1 UNK         0.3000 
    216 H216       -1.1859  -19.2715  -54.7095 H         1 UNK         0.0600 
    217 H217       -3.4932  -19.2636  -53.8478 H         1 UNK         0.0600 
    218 H218       -2.4044  -18.5942  -52.6473 H         1 UNK         0.0600 
    219 H219       -3.0243  -20.2367  -52.4598 H         1 UNK         0.0600 
    220 H220       -1.5661  -22.4397  -53.1467 H         1 UNK         0.3000 
    221 H221       -2.0286  -24.4690  -53.7632 H         1 UNK         0.0600 
    222 H222       -1.6581  -23.6307  -56.6895 H         1 UNK         0.0600 
    223 H223       -0.4120  -24.2680  -55.6203 H         1 UNK         0.0600 
    224 H224       -1.7692  -25.2786  -56.0924 H         1 UNK         0.0600 
    225 H225       -3.6636  -22.4654  -56.2131 H         1 UNK         0.3000 
    226 H226       -6.3267  -23.1654  -55.1647 H         1 UNK         0.0600 
    227 H227       -5.9069  -24.9386  -56.8747 H         1 UNK         0.0600 
    228 H228       -7.1606  -23.8397  -57.4240 H         1 UNK         0.0600 
    229 H229       -5.5325  -23.7082  -58.0808 H         1 UNK         0.0600 
    230 H230       -4.1635  -20.8289  -56.2253 H         1 UNK         0.3000 
    231 H231       -5.9099  -19.1273  -57.7437 H         1 UNK         0.0600 
    232 H232       -4.0050  -17.5515  -57.5810 H         1 UNK         0.0600 
    233 H233       -3.4219  -19.1586  -57.9823 H         1 UNK         0.0600 
    234 H234       -3.2492  -18.5412  -56.3399 H         1 UNK         0.0600 
    235 H235       -5.8541  -19.7520  -54.3856 H         1 UNK         0.3000 
    236 H236       -7.4763  -17.3879  -53.7899 H         1 UNK         0.0600 
    237 H237       -4.9986  -18.1396  -52.1237 H         1 UNK         0.0600 
    238 H238       -5.1132  -16.7127  -53.1531 H         1 UNK         0.0600 
    239 H239       -6.1534  -16.8728  -51.7458 H         1 UNK         0.0600 
    240 H240       -8.7187  -17.7038  -51.8862 H         1 UNK         0.3000 
    241 H241       -9.9956  -18.7128  -50.4391 H         1 UNK         0.0600 
    242 H242      -10.1266  -19.7315  -53.4285 H         1 UNK         0.3800 
    243 H243      -11.2371  -21.0656  -53.2580 H         1 UNK         0.3800 
    244 H244       -7.9530  -20.9473  -50.1034 H         1 UNK         0.0800 
    245 H245       -9.1991  -20.4965  -48.9757 H         1 UNK         0.0800 
    246 H246       -5.6745  -20.0493  -50.1062 H         1 UNK         0.0800 
    247 H247       -5.8815  -20.7229  -48.5020 H         1 UNK         0.0800 
@<TRIPOS>BOND
     1    1    2 1    
     2    1  127 1    
     3    1  128 1    
     4    1  129 1    
     5    2    3 2    
     6    2    4 am   BACKBONE|DICT|INTERRES
     7    4    5 1    
     8    4  130 1    
     9    5    6 1    
    10    5   65 1    
    11    5  131 1    
    12    6    7 1    
    13    6  132 1    
    14    6  133 1    
    15    7    8 1    
    16    8    9 1    
    17    8  134 1    
    18    8  135 1    
    19    9   10 ar   
    20    9   14 ar   
    21   10   11 ar   
    22   10  136 1    
    23   11   12 ar   
    24   11  126 1    
    25   12   13 ar   
    26   12  137 1    
    27   13   14 ar   
    28   13   15 1    
    29   14  138 1    
    30   15   16 1    
    31   15  139 1    
    32   15  140 1    
    33   16   17 1    
    34   17   18 1    
    35   17  141 1    
    36   17  142 1    
    37   18   19 1    
    38   18   67 1    
    39   18  143 1    
    40   19   20 am   BACKBONE|DICT|INTERRES
    41   19  144 1    
    42   20   21 2    
    43   20   22 1    
    44   22   23 1    
    45   22   24 1    
    46   22  145 1    
    47   23  146 1    
    48   23  147 1    
    49   23  148 1    
    50   24   25 am   BACKBONE|DICT|INTERRES
    51   24  149 1    
    52   25   26 2    
    53   25   27 1    
    54   27   28 1    
    55   27   29 1    
    56   27  150 1    
    57   28  151 1    
    58   28  152 1    
    59   28  153 1    
    60   29   30 am   BACKBONE|DICT|INTERRES
    61   29  154 1    
    62   30   31 2    
    63   30   32 1    
    64   32   33 1    
    65   32   34 1    
    66   32  155 1    
    67   33  156 1    
    68   33  157 1    
    69   33  158 1    
    70   34   35 am   BACKBONE|DICT|INTERRES
    71   34  159 1    
    72   35   36 2    
    73   35   37 1    
    74   37   38 1    
    75   37   39 1    
    76   37  160 1    
    77   38  161 1    
    78   38  162 1    
    79   38  163 1    
    80   39   40 am   BACKBONE|DICT|INTERRES
    81   39  164 1    
    82   40   41 2    
    83   40   42 1    
    84   42   43 1    
    85   42   44 1    
    86   42  165 1    
    87   43  166 1    
    88   43  167 1    
    89   43  168 1    
    90   44   45 am   BACKBONE|DICT|INTERRES
    91   44  169 1    
    92   45   46 2    
    93   45   47 1    
    94   47   48 1    
    95   47   49 1    
    96   47  170 1    
    97   48  171 1    
    98   48  172 1    
    99   48  173 1    
   100   49   50 am   BACKBONE|DICT|INTERRES
   101   49  174 1    
   102   50   51 2    
   103   50   52 1    
   104   52   53 1    
   105   52   54 1    
   106   52  175 1    
   107   53  176 1    
   108   53  177 1    
   109   53  178 1    
   110   54   55 am   BACKBONE|DICT|INTERRES
   111   54  179 1    
   112   55   56 2    
   113   55   57 1    
   114   57   58 1    
   115   57   59 1    
   116   57  180 1    
   117   58  181 1    
   118   58  182 1    
   119   58  183 1    
   120   59   60 am   BACKBONE|DICT|INTERRES
   121   59  184 1    
   122   60   61 2    
   123   60   62 1    
   124   62   63 1    
   125   62   64 1    
   126   62  185 1    
   127   63  186 1    
   128   63  187 1    
   129   63  188 1    
   130   64   65 am   BACKBONE|DICT|INTERRES
   131   64  189 1    
   132   65   66 2    
   133   67   68 2    
   134   67   69 am   BACKBONE|DICT|INTERRES
   135   69   70 1    
   136   69  190 1    
   137   70   71 1    
   138   70   72 1    
   139   70  191 1    
   140   71  192 1    
   141   71  193 1    
   142   71  194 1    
   143   72   73 2    
   144   72   74 am   BACKBONE|DICT|INTERRES
   145   74   75 1    
   146   74  195 1    
   147   75   76 1    
   148   75   77 1    
   149   75  196 1    
   150   76  197 1    
   151   76  198 1    
   152   76  199 1    
   153   77   78 2    
   154   77   79 am   BACKBONE|DICT|INTERRES
   155   79   80 1    
   156   79  200 1    
   157   80   81 1    
   158   80   82 1    
   159   80  201 1    
   160   81  202 1    
   161   81  203 1    
   162   81  204 1    
   163   82   83 2    
   164   82   84 am   BACKBONE|DICT|INTERRES
   165   84   85 1    
   166   84  205 1    
   167   85   86 1    
   168   85   87 1    
   169   85  206 1    
   170   86  207 1    
   171   86  208 1    
   172   86  209 1    
   173   87   88 2    
   174   87   89 am   BACKBONE|DICT|INTERRES
   175   89   90 1    
   176   89  210 1    
   177   90   91 1    
   178   90   92 1    
   179   90  211 1    
   180   91  212 1    
   181   91  213 1    
   182   91  214 1    
   183   92   93 2    
   184   92   94 am   BACKBONE|DICT|INTERRES
   185   94   95 1    
   186   94  215 1    
   187   95   96 1    
   188   95   97 1    
   189   95  216 1    
   190   96  217 1    
   191   96  218 1    
   192   96  219 1    
   193   97   98 2    
   194   97   99 am   BACKBONE|DICT|INTERRES
   195   99  100 1    
   196   99  220 1    
   197  100  101 1    
   198  100  102 1    
   199  100  221 1    
   200  101  222 1    
   201  101  223 1    
   202  101  224 1    
   203  102  103 2    
   204  102  104 am   BACKBONE|DICT|INTERRES
   205  104  105 1    
   206  104  225 1    
   207  105  106 1    
   208  105  107 1    
   209  105  226 1    
   210  106  227 1    
   211  106  228 1    
   212  106  229 1    
   213  107  108 2    
   214  107  109 am   BACKBONE|DICT|INTERRES
   215  109  110 1    
   216  109  230 1    
   217  110  111 1    
   218  110  112 1    
   219  110  231 1    
   220  111  232 1    
   221  111  233 1    
   222  111  234 1    
   223  112  113 2    
   224  112  114 am   BACKBONE|DICT|INTERRES
   225  114  115 1    
   226  114  235 1    
   227  115  116 1    
   228  115  117 1    
   229  115  236 1    
   230  116  237 1    
   231  116  238 1    
   232  116  239 1    
   233  117  118 2    
   234  117  119 am   BACKBONE|DICT|INTERRES
   235  119  120 1    
   236  119  240 1    
   237  120  121 1    
   238  120  124 1    
   239  120  241 1    
   240  121  122 am   BACKBONE|DICT|INTERRES
   241  121  123 2    
   242  122  242 1    
   243  122  243 1    
   244  124  125 1    
   245  124  244 1    
   246  124  245 1    
   247  125  126 1    
   248  126  246 1    
   249  126  247 1    
@<TRIPOS>SUBSTRUCTURE
     1 UNK         1 GROUP             0       ****    0 ROOT    
