@<TRIPOS>MOLECULE
3R540
247   249    1
SMALL
USER_CHARGES


@<TRIPOS>ATOM
      1 CA          1.4259   -9.8984  -50.0667 C.3       0 UNK        -0.1800 
      2 C           0.8303  -11.0703  -49.3000 C.2       0 UNK         0.5000 
      3 O          -0.3919  -11.1695  -49.1899 O.2       0 UNK        -0.5000 
      4 N           1.6899  -11.9436  -48.7570 N.am      1 UNK        -0.5000 
      5 CA          1.3936  -13.1728  -47.9999 C.3       1 UNK         0.1400 
      6 C6          0.5199  -14.2067  -48.7578 C.3       23 UNK        -0.0398 
      7 S7          1.2219  -14.6891  -50.3734 S.3       23 UNK        -0.2404 
      8 C8          1.7601  -16.4034  -50.0452 C.3       23 UNK        -0.0205 
      9 C9          0.6649  -17.4740  -50.0709 C.ar      23 UNK        -0.0193 
     10 C10        -0.7020  -17.1796  -49.9801 C.ar      23 UNK        -0.1150 
     11 C11        -1.6658  -18.1946  -50.0037 C.ar      23 UNK        -0.0193 
     12 C12        -1.2434  -19.5256  -50.0805 C.ar      23 UNK        -0.1150 
     13 C13         0.1172  -19.8440  -50.1518 C.ar      23 UNK        -0.0193 
     14 C14         1.0583  -18.8110  -50.1651 C.ar      23 UNK        -0.1150 
     15 C15         0.5574  -21.3047  -50.2217 C.3       23 UNK        -0.0205 
     16 S16         1.9550  -21.7359  -49.1227 S.3       23 UNK        -0.2404 
     17 C17         1.3643  -21.1929  -47.4827 C.3       23 UNK        -0.0398 
     18 CA          0.7251  -22.3219  -46.6419 C.3       11 UNK         0.1400 
     19 N           0.6074  -21.9391  -45.2362 N.am      11 UNK        -0.5000 
     20 C           0.3977  -22.7967  -44.2292 C.2       10 UNK         0.5000 
     21 O           0.3795  -24.0205  -44.3627 O.2       10 UNK        -0.5000 
     22 CA          0.1315  -22.1786  -42.8443 C.3       10 UNK         0.1400 
     23 CB          1.4508  -21.9588  -42.0926 C.3       10 UNK        -0.1800 
     24 N          -0.6057  -20.9143  -42.9130 N.am      10 UNK        -0.5000 
     25 C          -1.8732  -20.8051  -43.3296 C.2       9 UNK         0.5000 
     26 O          -2.5476  -21.7581  -43.7196 O.2       9 UNK        -0.5000 
     27 CA         -2.4884  -19.3947  -43.3405 C.3       9 UNK         0.1400 
     28 CB         -2.9192  -18.9826  -41.9244 C.3       9 UNK        -0.1800 
     29 N          -1.6420  -18.3430  -43.9119 N.am      9 UNK        -0.5000 
     30 C          -1.0548  -18.3568  -45.1168 C.2       8 UNK         0.5000 
     31 O          -1.0137  -19.3451  -45.8479 O.2       8 UNK        -0.5000 
     32 CA         -0.4555  -17.0254  -45.6037 C.3       8 UNK         0.1400 
     33 CB         -1.2812  -15.8070  -45.1487 C.3       8 UNK        -0.1800 
     34 N           0.9301  -16.8670  -45.1689 N.am      8 UNK        -0.5000 
     35 C           1.9874  -17.3874  -45.8064 C.2       7 UNK         0.5000 
     36 O           1.9090  -18.0451  -46.8412 O.2       7 UNK        -0.5000 
     37 CA          3.3717  -17.1414  -45.1872 C.3       7 UNK         0.1400 
     38 CB          3.8707  -15.7168  -45.4736 C.3       7 UNK        -0.1800 
     39 N           3.3585  -17.3738  -43.7458 N.am      7 UNK        -0.5000 
     40 C           3.6218  -18.5541  -43.1678 C.2       6 UNK         0.5000 
     41 O           3.9391  -19.5666  -43.7920 O.2       6 UNK        -0.5000 
     42 CA          3.5213  -18.6187  -41.6299 C.3       6 UNK         0.1400 
     43 CB          4.8968  -18.3678  -40.9935 C.3       6 UNK        -0.1800 
     44 N           2.5623  -17.6635  -41.0764 N.am      6 UNK        -0.5000 
     45 C           1.2351  -17.7229  -41.2521 C.2       5 UNK         0.5000 
     46 O           0.6651  -18.6437  -41.8339 O.2       5 UNK        -0.5000 
     47 CA          0.4127  -16.5283  -40.7309 C.3       5 UNK         0.1400 
     48 CB         -0.1380  -16.8245  -39.3287 C.3       5 UNK        -0.1800 
     49 N           1.1774  -15.2764  -40.7006 N.am      5 UNK        -0.5000 
     50 C           1.6478  -14.6531  -41.7888 C.2       4 UNK         0.5000 
     51 O           1.4587  -15.0563  -42.9378 O.2       4 UNK        -0.5000 
     52 CA          2.5502  -13.4394  -41.5470 C.3       4 UNK         0.1400 
     53 CB          4.0317  -13.8520  -41.6073 C.3       4 UNK        -0.1800 
     54 N           2.2821  -12.4121  -42.5481 N.am      4 UNK        -0.5000 
     55 C           2.4309  -11.0970  -42.3331 C.2       3 UNK         0.5000 
     56 O           2.8536  -10.6277  -41.2750 O.2       3 UNK        -0.5000 
     57 CA          2.0482  -10.1266  -43.4703 C.3       3 UNK         0.1400 
     58 CB          3.3034   -9.6756  -44.2334 C.3       3 UNK        -0.1800 
     59 N           1.0914  -10.6745  -44.4297 N.am      3 UNK        -0.5000 
     60 C          -0.1696  -11.0378  -44.1634 C.2       2 UNK         0.5000 
     61 O          -0.7033  -10.8807  -43.0645 O.2       2 UNK        -0.5000 
     62 CA         -0.9741  -11.6917  -45.3075 C.3       2 UNK         0.1400 
     63 CB         -2.1492  -10.7937  -45.7253 C.3       2 UNK        -0.1800 
     64 N          -0.2021  -12.0292  -46.5095 N.am      2 UNK        -0.5000 
     65 C           0.8095  -12.9018  -46.5980 C.2       1 UNK         0.5000 
     66 O           1.2942  -13.4709  -45.6230 O.2       1 UNK        -0.5000 
     67 C          -0.6563  -22.7184  -47.1898 C.2       11 UNK         0.5000 
     68 O          -0.7984  -23.7851  -47.7882 O.2       11 UNK        -0.5000 
     69 N          -1.6551  -21.8566  -46.9565 N.am      12 UNK        -0.5000 
     70 CA         -3.0198  -22.0054  -47.4480 C.3       12 UNK         0.1400 
     71 CB         -3.8335  -20.7509  -47.1034 C.3       12 UNK        -0.1800 
     72 C          -3.7268  -23.2747  -46.9499 C.2       12 UNK         0.5000 
     73 O          -4.4267  -23.9112  -47.7367 O.2       12 UNK        -0.5000 
     74 N          -3.5022  -23.6423  -45.6828 N.am      13 UNK        -0.5000 
     75 CA         -4.0192  -24.8683  -45.0746 C.3       13 UNK         0.1400 
     76 CB         -3.7450  -24.8338  -43.5635 C.3       13 UNK        -0.1800 
     77 C          -3.4357  -26.1525  -45.6957 C.2       13 UNK         0.5000 
     78 O          -4.1338  -27.1653  -45.7541 O.2       13 UNK        -0.5000 
     79 N          -2.1751  -26.0913  -46.1439 N.am      14 UNK        -0.5000 
     80 CA         -1.4617  -27.2119  -46.7515 C.3       14 UNK         0.1400 
     81 CB          0.0453  -27.0452  -46.4985 C.3       14 UNK        -0.1800 
     82 C          -1.7490  -27.3325  -48.2575 C.2       14 UNK         0.5000 
     83 O          -2.0005  -28.4359  -48.7427 O.2       14 UNK        -0.5000 
     84 N          -1.6906  -26.2007  -48.9703 N.am      15 UNK        -0.5000 
     85 CA         -1.7323  -26.1326  -50.4327 C.3       15 UNK         0.1400 
     86 CB         -0.7291  -25.0604  -50.8889 C.3       15 UNK        -0.1800 
     87 C          -3.1352  -25.8460  -51.0033 C.2       15 UNK         0.5000 
     88 O          -3.2483  -25.6154  -52.2085 O.2       15 UNK        -0.5000 
     89 N          -4.1677  -25.8180  -50.1466 N.am      16 UNK        -0.5000 
     90 CA         -5.5685  -25.5005  -50.4622 C.3       16 UNK         0.1400 
     91 CB         -6.1945  -26.5996  -51.3459 C.3       16 UNK        -0.1800 
     92 C          -5.7048  -24.0890  -51.0687 C.2       16 UNK         0.5000 
     93 O          -6.2187  -23.9238  -52.1769 O.2       16 UNK        -0.5000 
     94 N          -5.1567  -23.1042  -50.3427 N.am      17 UNK        -0.5000 
     95 CA         -5.0018  -21.6980  -50.7337 C.3       17 UNK         0.1400 
     96 CB         -6.3681  -20.9846  -50.7621 C.3       17 UNK        -0.1800 
     97 C          -4.1867  -21.5298  -52.0331 C.2       17 UNK         0.5000 
     98 O          -4.5170  -20.6812  -52.8577 O.2       17 UNK        -0.5000 
     99 N          -3.1528  -22.3700  -52.1990 N.am      18 UNK        -0.5000 
    100 CA        -2.3125  -22.5157  -53.3954 C.3       18 UNK         0.1400 
    101 CB        -1.4312  -21.2677  -53.6056 C.3       18 UNK        -0.1800 
    102 C         -3.1552  -22.8700  -54.6368 C.2       18 UNK         0.5000 
    103 O         -3.1022  -22.1640  -55.6441 O.2       18 UNK        -0.5000 
    104 N         -3.9785  -23.9208  -54.5046 N.am      19 UNK        -0.5000 
    105 CA        -5.0091  -24.3523  -55.4587 C.3       19 UNK         0.1400 
    106 CB        -4.3594  -24.9748  -56.7115 C.3       19 UNK        -0.1800 
    107 C         -6.0111  -23.2220  -55.7919 C.2       19 UNK         0.5000 
    108 O         -6.3552  -23.0118  -56.9562 O.2       19 UNK        -0.5000 
    109 N         -6.4199  -22.4931  -54.7443 N.am      20 UNK        -0.5000 
    110 CA        -7.2885  -21.3115  -54.7307 C.3       20 UNK         0.1400 
    111 CB        -8.6965  -21.6616  -55.2551 C.3       20 UNK        -0.1800 
    112 C         -6.7128  -20.0452  -55.4075 C.2       20 UNK         0.5000 
    113 O         -7.4387  -19.0547  -55.5142 O.2       20 UNK        -0.5000 
    114 N         -5.4434  -20.0602  -55.8404 N.am      21 UNK        -0.5000 
    115 CA        -4.7916  -18.9150  -56.4826 C.3       21 UNK         0.1400 
    116 CB        -3.6782  -19.4166  -57.4146 C.3       21 UNK        -0.1800 
    117 C         -4.2240  -17.9002  -55.4717 C.2       21 UNK         0.5000 
    118 O         -4.1868  -16.7072  -55.7770 O.2       21 UNK        -0.5000 
    119 N         -3.7968  -18.3871  -54.2989 N.am      22 UNK        -0.5000 
    120 CA        -3.1304  -17.6460  -53.2161 C.3       22 UNK         0.1400 
    121 C         -1.8488  -16.8766  -53.6755 C.2       22 UNK         0.5000 
    122 N         -1.5027  -15.7552  -53.0587 N.am      22 UNK        -0.7600 
    123 O         -1.1289  -17.3198  -54.5681 O.2       22 UNK        -0.5000 
    124 C124       -4.1636  -16.8194  -52.3978 C.3       23 UNK        -0.0398 
    125 S125       -3.6709  -16.3197  -50.7065 S.3       23 UNK        -0.2404 
    126 C126       -3.1593  -17.8778  -49.8941 C.3       23 UNK        -0.0205 
    127 H127        1.0729   -9.9080  -51.0979 H         1 UNK         0.0600 
    128 H128        1.1209   -8.9571  -49.6094 H         1 UNK         0.0600 
    129 H129        2.5155   -9.9332  -50.0802 H         1 UNK         0.0600 
    130 H130        2.6772  -11.7689  -48.8834 H         1 UNK         0.3000 
    131 H131        2.3647  -13.6416  -47.8316 H         1 UNK         0.0600 
    132 H132        0.3890  -15.1024  -48.1476 H         1 UNK         0.0800 
    133 H133       -0.4839  -13.8159  -48.9309 H         1 UNK         0.0800 
    134 H134        2.5081  -16.6558  -50.7982 H         1 UNK         0.0800 
    135 H135        2.2724  -16.4423  -49.0830 H         1 UNK         0.0800 
    136 H136       -1.0284  -16.1562  -49.8925 H         1 UNK         0.1150 
    137 H137       -1.9760  -20.3187  -50.0770 H         1 UNK         0.1150 
    138 H138        2.1103  -19.0515  -50.2249 H         1 UNK         0.1150 
    139 H139       -0.2807  -21.9617  -49.9929 H         1 UNK         0.0800 
    140 H140        0.8535  -21.5311  -51.2461 H         1 UNK         0.0800 
    141 H141        0.6926  -20.3402  -47.5834 H         1 UNK         0.0800 
    142 H142        2.2386  -20.8067  -46.9568 H         1 UNK         0.0800 
    143 H143        1.3737  -23.1990  -46.6976 H         1 UNK         0.0600 
    144 H144        0.5371  -20.9488  -45.0445 H         1 UNK         0.3000 
    145 H145       -0.4726  -22.8875  -42.2741 H         1 UNK         0.0600 
    146 H146        1.2794  -21.5288  -41.1055 H         1 UNK         0.0600 
    147 H147        1.9820  -22.9010  -41.9523 H         1 UNK         0.0600 
    148 H148        2.1109  -21.2894  -42.6431 H         1 UNK         0.0600 
    149 H149       -0.1232  -20.0750  -42.5931 H         1 UNK         0.3000 
    150 H150       -3.3864  -19.4432  -43.9586 H         1 UNK         0.0600 
    151 H151       -3.5762  -19.7327  -41.4820 H         1 UNK         0.0600 
    152 H152       -3.4664  -18.0399  -41.9354 H         1 UNK         0.0600 
    153 H153       -2.0621  -18.8659  -41.2607 H         1 UNK         0.0600 
    154 H154       -1.5878  -17.4898  -43.3783 H         1 UNK         0.3000 
    155 H155       -0.4894  -17.0483  -46.6955 H         1 UNK         0.0600 
    156 H156       -1.1371  -15.5795  -44.0919 H         1 UNK         0.0600 
    157 H157       -2.3476  -15.9635  -45.3175 H         1 UNK         0.0600 
    158 H158       -1.0032  -14.9227  -45.7167 H         1 UNK         0.0600 
    159 H159        1.0894  -16.2872  -44.3492 H         1 UNK         0.3000 
    160 H160        4.0711  -17.8318  -45.6640 H         1 UNK         0.0600 
    161 H161        3.2868  -14.9682  -44.9399 H         1 UNK         0.0600 
    162 H162        3.8116  -15.4855  -46.5378 H         1 UNK         0.0600 
    163 H163        4.9113  -15.5995  -45.1713 H         1 UNK         0.0600 
    164 H164        3.0409  -16.6058  -43.1711 H         1 UNK         0.3000 
    165 H165        3.1979  -19.6237  -41.3545 H         1 UNK         0.0600 
    166 H166        5.2680  -17.3668  -41.2174 H         1 UNK         0.0600 
    167 H167        4.8564  -18.4774  -39.9096 H         1 UNK         0.0600 
    168 H168        5.6339  -19.0817  -41.3636 H         1 UNK         0.0600 
    169 H169        2.9434  -16.8801  -40.5680 H         1 UNK         0.3000 
    170 H170       -0.4324  -16.3924  -41.4089 H         1 UNK         0.0600 
    171 H171       -0.7275  -17.7424  -39.3259 H         1 UNK         0.0600 
    172 H172        0.6628  -16.9470  -38.5984 H         1 UNK         0.0600 
    173 H173       -0.7891  -16.0214  -38.9829 H         1 UNK         0.0600 
    174 H174        1.3793  -14.8950  -39.7871 H         1 UNK         0.3000 
    175 H175        2.3286  -13.0460  -40.5524 H         1 UNK         0.0600 
    176 H176        4.2549  -14.6290  -40.8754 H         1 UNK         0.0600 
    177 H177        4.3011  -14.2381  -42.5913 H         1 UNK         0.0600 
    178 H178        4.6857  -13.0072  -41.3907 H         1 UNK         0.0600 
    179 H179        1.9072  -12.7475  -43.4297 H         1 UNK         0.3000 
    180 H180        1.5917   -9.2481  -43.0099 H         1 UNK         0.0600 
    181 H181        4.0337   -9.2296  -43.5568 H         1 UNK         0.0600 
    182 H182        3.0605   -8.9256  -44.9865 H         1 UNK         0.0600 
    183 H183        3.7899  -10.5128  -44.7359 H         1 UNK         0.0600 
    184 H184        1.4408  -10.8605  -45.3577 H         1 UNK         0.3000 
    185 H185       -1.3822  -12.6219  -44.9085 H         1 UNK         0.0600 
    186 H186       -2.7799  -11.2881  -46.4645 H         1 UNK         0.0600 
    187 H187       -2.7832  -10.5494  -44.8720 H         1 UNK         0.0600 
    188 H188       -1.8005   -9.8544  -46.1565 H         1 UNK         0.0600 
    189 H189       -0.5051  -11.5961  -47.3788 H         1 UNK         0.3000 
    190 H190       -1.4443  -20.9893  -46.4648 H         1 UNK         0.3000 
    191 H191       -2.9427  -22.0850  -48.5319 H         1 UNK         0.0600 
    192 H192       -3.3697  -19.8557  -47.5163 H         1 UNK         0.0600 
    193 H193       -3.9177  -20.6146  -46.0253 H         1 UNK         0.0600 
    194 H194       -4.8453  -20.8130  -47.5059 H         1 UNK         0.0600 
    195 H195       -2.9646  -23.0243  -45.0794 H         1 UNK         0.3000 
    196 H196       -5.1004  -24.8897  -45.2261 H         1 UNK         0.0600 
    197 H197       -4.1217  -25.7332  -43.0747 H         1 UNK         0.0600 
    198 H198       -4.2342  -23.9799  -43.0943 H         1 UNK         0.0600 
    199 H199       -2.6770  -24.7646  -43.3515 H         1 UNK         0.0600 
    200 H200       -1.6798  -25.2114  -46.0902 H         1 UNK         0.3000 
    201 H201       -1.7776  -28.1417  -46.2733 H         1 UNK         0.0600 
    202 H202        0.2639  -27.0216  -45.4307 H         1 UNK         0.0600 
    203 H203        0.4320  -26.1239  -46.9360 H         1 UNK         0.0600 
    204 H204        0.6080  -27.8748  -46.9282 H         1 UNK         0.0600 
    205 H205       -1.4567  -25.3334  -48.4896 H         1 UNK         0.3000 
    206 H206       -1.4082  -27.0874  -50.8516 H         1 UNK         0.0600 
    207 H207       -0.5987  -25.0798  -51.9710 H         1 UNK         0.0600 
    208 H208       -1.0594  -24.0609  -50.6089 H         1 UNK         0.0600 
    209 H209        0.2538  -25.2223  -50.4456 H         1 UNK         0.0600 
    210 H210       -3.9614  -25.9580  -49.1669 H         1 UNK         0.3000 
    211 H211       -6.1096  -25.4877  -49.5149 H         1 UNK         0.0600 
    212 H212       -5.7256  -26.6514  -52.3290 H         1 UNK         0.0600 
    213 H213       -7.2575  -26.4131  -51.5024 H         1 UNK         0.0600 
    214 H214       -6.1017  -27.5799  -50.8787 H         1 UNK         0.0600 
    215 H215       -4.7997  -23.3638  -49.4252 H         1 UNK         0.3000 
    216 H216       -4.4131  -21.2091  -49.9610 H         1 UNK         0.0600 
    217 H217       -7.0543  -21.4464  -51.4700 H         1 UNK         0.0600 
    218 H218       -6.2639  -19.9341  -51.0370 H         1 UNK         0.0600 
    219 H219       -6.8406  -21.0140  -49.7804 H         1 UNK         0.0600 
    220 H220       -3.0128  -23.0718  -51.4885 H         1 UNK         0.3000 
    221 H221       -1.6499  -23.3621  -53.2169 H         1 UNK         0.0600 
    222 H222       -2.0146  -20.4017  -53.9115 H         1 UNK         0.0600 
    223 H223       -0.8963  -20.9989  -52.6980 H         1 UNK         0.0600 
    224 H224       -0.6879  -21.4452  -54.3832 H         1 UNK         0.0600 
    225 H225       -3.9360  -24.4496  -53.6371 H         1 UNK         0.3000 
    226 H226       -5.5830  -25.1332  -54.9577 H         1 UNK         0.0600 
    227 H227       -3.6755  -25.7793  -56.4412 H         1 UNK         0.0600 
    228 H228       -5.1151  -25.4002  -57.3727 H         1 UNK         0.0600 
    229 H229       -3.7990  -24.2371  -57.2867 H         1 UNK         0.0600 
    230 H230       -6.0990  -22.7941  -53.8286 H         1 UNK         0.3000 
    231 H231       -7.3965  -21.0450  -53.6804 H         1 UNK         0.0600 
    232 H232       -9.1016  -22.5347  -54.7437 H         1 UNK         0.0600 
    233 H233       -8.6909  -21.8703  -56.3251 H         1 UNK         0.0600 
    234 H234       -9.3934  -20.8395  -55.0887 H         1 UNK         0.0600 
    235 H235       -4.8806  -20.8921  -55.7051 H         1 UNK         0.3000 
    236 H236       -5.5247  -18.3934  -57.1018 H         1 UNK         0.0600 
    237 H237       -3.2655  -18.5950  -58.0011 H         1 UNK         0.0600 
    238 H238       -2.8538  -19.8603  -56.8559 H         1 UNK         0.0600 
    239 H239       -4.0520  -20.1634  -58.1153 H         1 UNK         0.0600 
    240 H240       -3.9501  -19.3722  -54.1025 H         1 UNK         0.3000 
    241 H241       -2.7499  -18.4325  -52.5673 H         1 UNK         0.0600 
    242 H242       -2.0490  -15.4057  -52.2862 H         1 UNK         0.3800 
    243 H243       -0.6605  -15.2774  -53.3363 H         1 UNK         0.3800 
    244 H244       -4.4499  -15.9252  -52.9537 H         1 UNK         0.0800 
    245 H245       -5.0818  -17.3988  -52.2881 H         1 UNK         0.0800 
    246 H246       -3.4031  -17.7971  -48.8344 H         1 UNK         0.0800 
    247 H247       -3.7618  -18.6985  -50.2857 H         1 UNK         0.0800 
@<TRIPOS>BOND
     1    1    2 1    
     2    1  127 1    
     3    1  128 1    
     4    1  129 1    
     5    2    3 2    
     6    2    4 am   BACKBONE|DICT|INTERRES
     7    4    5 1    
     8    4  130 1    
     9    5    6 1    
    10    5   65 1    
    11    5  131 1    
    12    6    7 1    
    13    6  132 1    
    14    6  133 1    
    15    7    8 1    
    16    8    9 1    
    17    8  134 1    
    18    8  135 1    
    19    9   10 ar   
    20    9   14 ar   
    21   10   11 ar   
    22   10  136 1    
    23   11   12 ar   
    24   11  126 1    
    25   12   13 ar   
    26   12  137 1    
    27   13   14 ar   
    28   13   15 1    
    29   14  138 1    
    30   15   16 1    
    31   15  139 1    
    32   15  140 1    
    33   16   17 1    
    34   17   18 1    
    35   17  141 1    
    36   17  142 1    
    37   18   19 1    
    38   18   67 1    
    39   18  143 1    
    40   19   20 am   BACKBONE|DICT|INTERRES
    41   19  144 1    
    42   20   21 2    
    43   20   22 1    
    44   22   23 1    
    45   22   24 1    
    46   22  145 1    
    47   23  146 1    
    48   23  147 1    
    49   23  148 1    
    50   24   25 am   BACKBONE|DICT|INTERRES
    51   24  149 1    
    52   25   26 2    
    53   25   27 1    
    54   27   28 1    
    55   27   29 1    
    56   27  150 1    
    57   28  151 1    
    58   28  152 1    
    59   28  153 1    
    60   29   30 am   BACKBONE|DICT|INTERRES
    61   29  154 1    
    62   30   31 2    
    63   30   32 1    
    64   32   33 1    
    65   32   34 1    
    66   32  155 1    
    67   33  156 1    
    68   33  157 1    
    69   33  158 1    
    70   34   35 am   BACKBONE|DICT|INTERRES
    71   34  159 1    
    72   35   36 2    
    73   35   37 1    
    74   37   38 1    
    75   37   39 1    
    76   37  160 1    
    77   38  161 1    
    78   38  162 1    
    79   38  163 1    
    80   39   40 am   BACKBONE|DICT|INTERRES
    81   39  164 1    
    82   40   41 2    
    83   40   42 1    
    84   42   43 1    
    85   42   44 1    
    86   42  165 1    
    87   43  166 1    
    88   43  167 1    
    89   43  168 1    
    90   44   45 am   BACKBONE|DICT|INTERRES
    91   44  169 1    
    92   45   46 2    
    93   45   47 1    
    94   47   48 1    
    95   47   49 1    
    96   47  170 1    
    97   48  171 1    
    98   48  172 1    
    99   48  173 1    
   100   49   50 am   BACKBONE|DICT|INTERRES
   101   49  174 1    
   102   50   51 2    
   103   50   52 1    
   104   52   53 1    
   105   52   54 1    
   106   52  175 1    
   107   53  176 1    
   108   53  177 1    
   109   53  178 1    
   110   54   55 am   BACKBONE|DICT|INTERRES
   111   54  179 1    
   112   55   56 2    
   113   55   57 1    
   114   57   58 1    
   115   57   59 1    
   116   57  180 1    
   117   58  181 1    
   118   58  182 1    
   119   58  183 1    
   120   59   60 am   BACKBONE|DICT|INTERRES
   121   59  184 1    
   122   60   61 2    
   123   60   62 1    
   124   62   63 1    
   125   62   64 1    
   126   62  185 1    
   127   63  186 1    
   128   63  187 1    
   129   63  188 1    
   130   64   65 am   BACKBONE|DICT|INTERRES
   131   64  189 1    
   132   65   66 2    
   133   67   68 2    
   134   67   69 am   BACKBONE|DICT|INTERRES
   135   69   70 1    
   136   69  190 1    
   137   70   71 1    
   138   70   72 1    
   139   70  191 1    
   140   71  192 1    
   141   71  193 1    
   142   71  194 1    
   143   72   73 2    
   144   72   74 am   BACKBONE|DICT|INTERRES
   145   74   75 1    
   146   74  195 1    
   147   75   76 1    
   148   75   77 1    
   149   75  196 1    
   150   76  197 1    
   151   76  198 1    
   152   76  199 1    
   153   77   78 2    
   154   77   79 am   BACKBONE|DICT|INTERRES
   155   79   80 1    
   156   79  200 1    
   157   80   81 1    
   158   80   82 1    
   159   80  201 1    
   160   81  202 1    
   161   81  203 1    
   162   81  204 1    
   163   82   83 2    
   164   82   84 am   BACKBONE|DICT|INTERRES
   165   84   85 1    
   166   84  205 1    
   167   85   86 1    
   168   85   87 1    
   169   85  206 1    
   170   86  207 1    
   171   86  208 1    
   172   86  209 1    
   173   87   88 2    
   174   87   89 am   BACKBONE|DICT|INTERRES
   175   89   90 1    
   176   89  210 1    
   177   90   91 1    
   178   90   92 1    
   179   90  211 1    
   180   91  212 1    
   181   91  213 1    
   182   91  214 1    
   183   92   93 2    
   184   92   94 am   BACKBONE|DICT|INTERRES
   185   94   95 1    
   186   94  215 1    
   187   95   96 1    
   188   95   97 1    
   189   95  216 1    
   190   96  217 1    
   191   96  218 1    
   192   96  219 1    
   193   97   98 2    
   194   97   99 am   BACKBONE|DICT|INTERRES
   195   99  100 1    
   196   99  220 1    
   197  100  101 1    
   198  100  102 1    
   199  100  221 1    
   200  101  222 1    
   201  101  223 1    
   202  101  224 1    
   203  102  103 2    
   204  102  104 am   BACKBONE|DICT|INTERRES
   205  104  105 1    
   206  104  225 1    
   207  105  106 1    
   208  105  107 1    
   209  105  226 1    
   210  106  227 1    
   211  106  228 1    
   212  106  229 1    
   213  107  108 2    
   214  107  109 am   BACKBONE|DICT|INTERRES
   215  109  110 1    
   216  109  230 1    
   217  110  111 1    
   218  110  112 1    
   219  110  231 1    
   220  111  232 1    
   221  111  233 1    
   222  111  234 1    
   223  112  113 2    
   224  112  114 am   BACKBONE|DICT|INTERRES
   225  114  115 1    
   226  114  235 1    
   227  115  116 1    
   228  115  117 1    
   229  115  236 1    
   230  116  237 1    
   231  116  238 1    
   232  116  239 1    
   233  117  118 2    
   234  117  119 am   BACKBONE|DICT|INTERRES
   235  119  120 1    
   236  119  240 1    
   237  120  121 1    
   238  120  124 1    
   239  120  241 1    
   240  121  122 am   BACKBONE|DICT|INTERRES
   241  121  123 2    
   242  122  242 1    
   243  122  243 1    
   244  124  125 1    
   245  124  244 1    
   246  124  245 1    
   247  125  126 1    
   248  126  246 1    
   249  126  247 1    
@<TRIPOS>SUBSTRUCTURE
     1 UNK         1 GROUP             0       ****    0 ROOT    
