@<TRIPOS>MOLECULE
3R540
247   249    1
SMALL
USER_CHARGES


@<TRIPOS>ATOM
      1 CA         -4.6889  -15.5723  -42.1745 C.3       0 UNK        -0.1800 
      2 C          -3.4745  -15.0116  -42.8986 C.2       0 UNK         0.5000 
      3 O          -2.8945  -14.0229  -42.4506 O.2       0 UNK        -0.5000 
      4 N          -3.0701  -15.6472  -44.0063 N.am      1 UNK        -0.5000 
      5 CA         -1.9488  -15.2206  -44.8566 C.3       1 UNK         0.1400 
      6 C6         -1.8448  -16.0420  -46.1655 C.3       23 UNK        -0.0398 
      7 S7         -3.4006  -16.0671  -47.1208 S.3       23 UNK        -0.2404 
      8 C8         -3.7973  -17.8455  -47.1467 C.3       23 UNK        -0.0205 
      9 C9         -3.1946  -18.5436  -48.3600 C.ar      23 UNK        -0.0193 
     10 C10        -3.9854  -18.7417  -49.4962 C.ar      23 UNK        -0.1150 
     11 C11        -3.4584  -19.3573  -50.6333 C.ar      23 UNK        -0.0193 
     12 C12        -2.1265  -19.7744  -50.6298 C.ar      23 UNK        -0.1150 
     13 C13        -1.3213  -19.5878  -49.5047 C.ar      23 UNK        -0.0193 
     14 C14        -1.8626  -18.9802  -48.3655 C.ar      23 UNK        -0.1150 
     15 C15         0.1460  -19.9886  -49.5687 C.3       23 UNK        -0.0205 
     16 S16         0.3858  -21.7896  -49.4306 S.3       23 UNK        -0.2404 
     17 C17         1.2150  -21.9801  -47.8103 C.3       23 UNK        -0.0398 
     18 CA          0.4820  -22.9705  -46.8737 C.3       11 UNK         0.1400 
     19 N           1.3115  -23.3857  -45.7442 N.am      11 UNK        -0.5000 
     20 C           1.1596  -24.5453  -45.0883 C.2       10 UNK         0.5000 
     21 O           0.3834  -25.4341  -45.4394 O.2       10 UNK        -0.5000 
     22 CA          1.9989  -24.7396  -43.8101 C.3       10 UNK         0.1400 
     23 CB          3.3322  -25.4264  -44.1418 C.3       10 UNK        -0.1800 
     24 N           2.2696  -23.4903  -43.0958 N.am      10 UNK        -0.5000 
     25 C           1.3353  -22.7098  -42.5343 C.2       9 UNK         0.5000 
     26 O           0.1323  -22.9667  -42.5397 O.2       9 UNK        -0.5000 
     27 CA          1.8238  -21.3869  -41.9165 C.3       9 UNK         0.1400 
     28 CB          2.2190  -21.5883  -40.4468 C.3       9 UNK        -0.1800 
     29 N           2.9413  -20.7709  -42.6418 N.am      9 UNK        -0.5000 
     30 C           2.9084  -20.3978  -43.9276 C.2       8 UNK         0.5000 
     31 O           1.9346  -20.5747  -44.6679 O.2       8 UNK        -0.5000 
     32 CA          4.1954  -19.7775  -44.4977 C.3       8 UNK         0.1400 
     33 CB          5.1071  -20.8802  -45.0575 C.3       8 UNK        -0.1800 
     34 N           3.8551  -18.8539  -45.5757 N.am      8 UNK        -0.5000 
     35 C           3.4677  -17.5883  -45.3872 C.2       7 UNK         0.5000 
     36 O           3.5816  -16.9784  -44.3213 O.2       7 UNK        -0.5000 
     37 CA          2.7782  -16.9254  -46.5852 C.3       7 UNK         0.1400 
     38 CB          1.3751  -17.5259  -46.7691 C.3       7 UNK        -0.1800 
     39 N           2.6492  -15.4902  -46.3636 N.am      7 UNK        -0.5000 
     40 C           2.6072  -14.5559  -47.3205 C.2       6 UNK         0.5000 
     41 O           2.7287  -14.8089  -48.5199 O.2       6 UNK        -0.5000 
     42 CA          2.3711  -13.0973  -46.8821 C.3       6 UNK         0.1400 
     43 CB          0.9971  -12.6086  -47.3711 C.3       6 UNK        -0.1800 
     44 N           2.4151  -12.9419  -45.4295 N.am      6 UNK        -0.5000 
     45 C           3.4621  -12.5059  -44.7202 C.2       5 UNK         0.5000 
     46 O           4.5375  -12.1778  -45.2246 O.2       5 UNK        -0.5000 
     47 CA          3.2678  -12.4408  -43.1894 C.3       5 UNK         0.1400 
     48 CB          4.2433  -11.4685  -42.4943 C.3       5 UNK        -0.1800 
     49 N           1.8808  -12.1680  -42.7938 N.am      5 UNK        -0.5000 
     50 C           1.1508  -11.0675  -43.0373 C.2       4 UNK         0.5000 
     51 O           1.5835  -10.0728  -43.6202 O.2       4 UNK        -0.5000 
     52 CA         -0.3218  -11.0782  -42.5680 C.3       4 UNK         0.1400 
     53 CB         -1.2696  -11.1076  -43.7780 C.3       4 UNK        -0.1800 
     54 N          -0.6483  -12.2076  -41.6946 N.am      4 UNK        -0.5000 
     55 C          -0.2760  -12.3305  -40.4129 C.2       3 UNK         0.5000 
     56 O           0.3024  -11.4481  -39.7787 O.2       3 UNK        -0.5000 
     57 CA         -0.5422  -13.6974  -39.7542 C.3       3 UNK         0.1400 
     58 CB         -1.9402  -13.7444  -39.1185 C.3       3 UNK        -0.1800 
     59 N          -0.3937  -14.7983  -40.7118 N.am      3 UNK        -0.5000 
     60 C           0.7843  -15.2149  -41.1997 C.2       2 UNK         0.5000 
     61 O           1.8679  -14.7587  -40.8371 O.2       2 UNK        -0.5000 
     62 CA          0.7545  -16.2745  -42.3148 C.3       2 UNK         0.1400 
     63 CB          0.8541  -17.6920  -41.7381 C.3       2 UNK        -0.1800 
     64 N          -0.4305  -16.1727  -43.1673 N.am      2 UNK        -0.5000 
     65 C          -0.5987  -15.2315  -44.1070 C.2       1 UNK         0.5000 
     66 O           0.2479  -14.3782  -44.3684 O.2       1 UNK        -0.5000 
     67 C          -0.8401  -22.3862  -46.3541 C.2       11 UNK         0.5000 
     68 O          -1.9063  -22.8202  -46.7902 O.2       11 UNK        -0.5000 
     69 N          -0.7422  -21.4226  -45.4268 N.am      12 UNK        -0.5000 
     70 CA         -1.8607  -20.6177  -44.9389 C.3       12 UNK         0.1400 
     71 CB         -1.3250  -19.4876  -44.0507 C.3       12 UNK        -0.1800 
     72 C          -2.9638  -21.4037  -44.2119 C.2       12 UNK         0.5000 
     73 O          -4.1280  -21.0148  -44.3026 O.2       12 UNK        -0.5000 
     74 N          -2.5948  -22.4954  -43.5288 N.am      13 UNK        -0.5000 
     75 CA         -3.5267  -23.3823  -42.8286 C.3       13 UNK         0.1400 
     76 CB         -2.7304  -24.3732  -41.9659 C.3       13 UNK        -0.1800 
     77 C          -4.4847  -24.1422  -43.7677 C.2       13 UNK         0.5000 
     78 O          -5.5951  -24.4738  -43.3501 O.2       13 UNK        -0.5000 
     79 N          -4.0412  -24.4081  -45.0032 N.am      14 UNK        -0.5000 
     80 CA         -4.7930  -25.1538  -46.0142 C.3       14 UNK         0.1400 
     81 CB         -3.8972  -26.2909  -46.5319 C.3       14 UNK        -0.1800 
     82 C          -5.2550  -24.2749  -47.1908 C.2       14 UNK         0.5000 
     83 O          -6.1313  -24.7060  -47.9408 O.2       14 UNK        -0.5000 
     84 N          -4.6338  -23.0964  -47.3607 N.am      15 UNK        -0.5000 
     85 CA         -4.6545  -22.2443  -48.5571 C.3       15 UNK         0.1400 
     86 CB         -6.0563  -21.6462  -48.7952 C.3       15 UNK        -0.1800 
     87 C          -4.0877  -23.0089  -49.7733 C.2       15 UNK         0.5000 
     88 O          -4.7033  -23.0367  -50.8400 O.2       15 UNK        -0.5000 
     89 N          -2.9461  -23.6758  -49.5403 N.am      16 UNK        -0.5000 
     90 CA         -2.4375  -24.8265  -50.2951 C.3       16 UNK         0.1400 
     91 CB         -1.1404  -25.3256  -49.6403 C.3       16 UNK        -0.1800 
     92 C          -2.2296  -24.6384  -51.8093 C.2       16 UNK         0.5000 
     93 O          -2.2770  -25.6313  -52.5370 O.2       16 UNK        -0.5000 
     94 N          -2.0085  -23.3982  -52.2688 N.am      17 UNK        -0.5000 
     95 CA         -1.8800  -23.0798  -53.6959 C.3       17 UNK         0.1400 
     96 CB         -1.2971  -21.6711  -53.8687 C.3       17 UNK        -0.1800 
     97 C          -3.2086  -23.2326  -54.4678 C.2       17 UNK         0.5000 
     98 O          -3.1742  -23.5603  -55.6540 O.2       17 UNK        -0.5000 
     99 N          -4.3360  -23.0381  -53.7640 N.am      18 UNK        -0.5000 
    100 CA        -5.7357  -23.2919  -54.1281 C.3       18 UNK         0.1400 
    101 CB        -5.9850  -24.8069  -54.2513 C.3       18 UNK        -0.1800 
    102 C         -6.2855  -22.5446  -55.3608 C.2       18 UNK         0.5000 
    103 O         -7.2969  -21.8510  -55.2446 O.2       18 UNK        -0.5000 
    104 N         -5.6495  -22.7406  -56.5183 N.am      19 UNK        -0.5000 
    105 CA        -6.0577  -22.2342  -57.8260 C.3       19 UNK         0.1400 
    106 CB        -5.7734  -23.3296  -58.8735 C.3       19 UNK        -0.1800 
    107 C         -5.3599  -20.8956  -58.1404 C.2       19 UNK         0.5000 
    108 O         -5.0652  -20.1236  -57.2257 O.2       19 UNK        -0.5000 
    109 N         -5.0861  -20.6413  -59.4291 N.am      20 UNK        -0.5000 
    110 CA        -4.4422  -19.4302  -59.9551 C.3       20 UNK         0.1400 
    111 CB        -4.3657  -19.5297  -61.4859 C.3       20 UNK        -0.1800 
    112 C         -3.0474  -19.1390  -59.3645 C.2       20 UNK         0.5000 
    113 O         -2.6412  -17.9773  -59.3135 O.2       20 UNK        -0.5000 
    114 N         -2.3685  -20.1846  -58.8705 N.am      21 UNK        -0.5000 
    115 CA        -1.1195  -20.1131  -58.1081 C.3       21 UNK         0.1400 
    116 CB        -0.6314  -21.5428  -57.8286 C.3       21 UNK        -0.1800 
    117 C         -1.2302  -19.3071  -56.7945 C.2       21 UNK         0.5000 
    118 O         -0.2107  -18.8242  -56.3010 O.2       21 UNK        -0.5000 
    119 N         -2.4536  -19.1531  -56.2667 N.am      22 UNK        -0.5000 
    120 CA        -2.7862  -18.2358  -55.1669 C.3       22 UNK         0.1400 
    121 C         -2.6929  -16.7237  -55.5529 C.2       22 UNK         0.5000 
    122 N         -2.6535  -16.3534  -56.8289 N.am      22 UNK        -0.7600 
    123 O         -2.6306  -15.8633  -54.6797 O.2       22 UNK        -0.5000 
    124 C124       -4.1704  -18.5959  -54.5602 C.3       23 UNK        -0.0398 
    125 S125       -4.3845  -18.0112  -52.8435 S.3       23 UNK        -0.2404 
    126 C126       -4.3178  -19.5477  -51.8721 C.3       23 UNK        -0.0205 
    127 H127       -4.4261  -15.8326  -41.1492 H         1 UNK         0.0600 
    128 H128       -5.0772  -16.4653  -42.6648 H         1 UNK         0.0600 
    129 H129       -5.4830  -14.8264  -42.1449 H         1 UNK         0.0600 
    130 H130       -3.6048  -16.4328  -44.3468 H         1 UNK         0.3000 
    131 H131       -2.1425  -14.1827  -45.1357 H         1 UNK         0.0600 
    132 H132       -1.5443  -17.0652  -45.9448 H         1 UNK         0.0800 
    133 H133       -1.0688  -15.6273  -46.8118 H         1 UNK         0.0800 
    134 H134       -3.4789  -18.3195  -46.2202 H         1 UNK         0.0800 
    135 H135       -4.8832  -17.9505  -47.1664 H         1 UNK         0.0800 
    136 H136       -5.0115  -18.4017  -49.5038 H         1 UNK         0.1150 
    137 H137       -1.7009  -20.2256  -51.5116 H         1 UNK         0.1150 
    138 H138       -1.2391  -18.8239  -47.4980 H         1 UNK         0.1150 
    139 H139        0.5552  -19.6662  -50.5274 H         1 UNK         0.0800 
    140 H140        0.7248  -19.4566  -48.8185 H         1 UNK         0.0800 
    141 H141        1.3553  -21.0138  -47.3258 H         1 UNK         0.0800 
    142 H142        2.2194  -22.3531  -48.0149 H         1 UNK         0.0800 
    143 H143        0.2427  -23.8593  -47.4602 H         1 UNK         0.0600 
    144 H144        1.9245  -22.6836  -45.3524 H         1 UNK         0.3000 
    145 H145        1.4330  -25.3916  -43.1412 H         1 UNK         0.0600 
    146 H146        3.8995  -25.6452  -43.2370 H         1 UNK         0.0600 
    147 H147        3.1661  -26.3738  -44.6564 H         1 UNK         0.0600 
    148 H148        3.9549  -24.8064  -44.7881 H         1 UNK         0.0600 
    149 H149        3.2332  -23.1951  -43.0450 H         1 UNK         0.3000 
    150 H150        0.9841  -20.6923  -41.9447 H         1 UNK         0.0600 
    151 H151        3.0815  -22.2485  -40.3477 H         1 UNK         0.0600 
    152 H152        1.3993  -22.0307  -39.8790 H         1 UNK         0.0600 
    153 H153        2.4653  -20.6386  -39.9715 H         1 UNK         0.0600 
    154 H154        3.7830  -20.6081  -42.1079 H         1 UNK         0.3000 
    155 H155        4.7246  -19.2446  -43.7047 H         1 UNK         0.0600 
    156 H156        4.6126  -21.4562  -45.8412 H         1 UNK         0.0600 
    157 H157        5.4046  -21.5788  -44.2746 H         1 UNK         0.0600 
    158 H158        6.0202  -20.4587  -45.4783 H         1 UNK         0.0600 
    159 H159        3.6900  -19.2789  -46.4759 H         1 UNK         0.3000 
    160 H160        3.3848  -17.1143  -47.4734 H         1 UNK         0.0600 
    161 H161        0.7514  -17.3148  -45.9023 H         1 UNK         0.0600 
    162 H162        1.4168  -18.6093  -46.8691 H         1 UNK         0.0600 
    163 H163        0.8802  -17.1274  -47.6548 H         1 UNK         0.0600 
    164 H164        2.5961  -15.2100  -45.3933 H         1 UNK         0.3000 
    165 H165        3.1412  -12.4817  -47.3510 H         1 UNK         0.0600 
    166 H166        0.8256  -11.5700  -47.0873 H         1 UNK         0.0600 
    167 H167        0.9236  -12.6647  -48.4579 H         1 UNK         0.0600 
    168 H168        0.1854  -13.2067  -46.9550 H         1 UNK         0.0600 
    169 H169        1.5818  -13.2476  -44.9307 H         1 UNK         0.3000 
    170 H170        3.4906  -13.4431  -42.8207 H         1 UNK         0.0600 
    171 H171        5.2786  -11.7683  -42.6604 H         1 UNK         0.0600 
    172 H172        4.1357  -10.4494  -42.8662 H         1 UNK         0.0600 
    173 H173        4.0809  -11.4522  -41.4165 H         1 UNK         0.0600 
    174 H174        1.4183  -12.9257  -42.3116 H         1 UNK         0.3000 
    175 H175       -0.4977  -10.1524  -42.0166 H         1 UNK         0.0600 
    176 H176       -1.1126  -10.2400  -44.4199 H         1 UNK         0.0600 
    177 H177       -1.1150  -11.9973  -44.3883 H         1 UNK         0.0600 
    178 H178       -2.3134  -11.0946  -43.4634 H         1 UNK         0.0600 
    179 H179       -1.1951  -12.9561  -42.1077 H         1 UNK         0.3000 
    180 H180        0.1933  -13.8327  -38.9581 H         1 UNK         0.0600 
    181 H181       -2.7293  -13.5924  -39.8548 H         1 UNK         0.0600 
    182 H182       -2.0475  -12.9665  -38.3616 H         1 UNK         0.0600 
    183 H183       -2.1185  -14.7013  -38.6279 H         1 UNK         0.0600 
    184 H184       -1.2457  -15.1789  -41.0968 H         1 UNK         0.3000 
    185 H185        1.6360  -16.1036  -42.9331 H         1 UNK         0.0600 
    186 H186        1.7141  -17.7875  -41.0739 H         1 UNK         0.0600 
    187 H187       -0.0361  -17.9664  -41.1711 H         1 UNK         0.0600 
    188 H188        0.9871  -18.4167  -42.5394 H         1 UNK         0.0600 
    189 H189       -1.1822  -16.8213  -42.9894 H         1 UNK         0.3000 
    190 H190        0.1824  -21.1454  -45.1075 H         1 UNK         0.3000 
    191 H191       -2.3244  -20.1755  -45.8186 H         1 UNK         0.0600 
    192 H192       -0.5549  -18.9113  -44.5624 H         1 UNK         0.0600 
    193 H193       -2.1236  -18.7998  -43.7712 H         1 UNK         0.0600 
    194 H194       -0.8940  -19.8814  -43.1307 H         1 UNK         0.0600 
    195 H195       -1.6062  -22.7148  -43.4438 H         1 UNK         0.3000 
    196 H196       -4.1388  -22.7693  -42.1638 H         1 UNK         0.0600 
    197 H197       -3.3952  -25.0561  -41.4354 H         1 UNK         0.0600 
    198 H198       -2.1368  -23.8518  -41.2148 H         1 UNK         0.0600 
    199 H199       -2.0514  -24.9760  -42.5706 H         1 UNK         0.0600 
    200 H200       -3.1179  -24.0879  -45.2651 H         1 UNK         0.3000 
    201 H201       -5.6884  -25.6024  -45.5792 H         1 UNK         0.0600 
    202 H202       -4.4038  -26.8746  -47.3018 H         1 UNK         0.0600 
    203 H203       -3.6296  -26.9769  -45.7282 H         1 UNK         0.0600 
    204 H204       -2.9730  -25.9068  -46.9638 H         1 UNK         0.0600 
    205 H205       -3.8855  -22.8759  -46.7146 H         1 UNK         0.3000 
    206 H206       -3.9668  -21.4216  -48.3597 H         1 UNK         0.0600 
    207 H207       -6.4110  -21.1154  -47.9119 H         1 UNK         0.0600 
    208 H208       -6.0409  -20.9321  -49.6173 H         1 UNK         0.0600 
    209 H209       -6.7915  -22.4104  -49.0470 H         1 UNK         0.0600 
    210 H210       -2.5104  -23.5202  -48.6379 H         1 UNK         0.3000 
    211 H211       -3.1865  -25.6129  -50.1826 H         1 UNK         0.0600 
    212 H212       -0.3321  -24.6041  -49.7514 H         1 UNK         0.0600 
    213 H213       -0.8065  -26.2573  -50.0988 H         1 UNK         0.0600 
    214 H214       -1.2749  -25.5209  -48.5769 H         1 UNK         0.0600 
    215 H215       -1.9724  -22.6376  -51.6065 H         1 UNK         0.3000 
    216 H216       -1.1665  -23.7852  -54.1275 H         1 UNK         0.0600 
    217 H217       -0.9651  -21.5240  -54.8949 H         1 UNK         0.0600 
    218 H218       -0.4294  -21.5131  -53.2277 H         1 UNK         0.0600 
    219 H219       -2.0292  -20.8948  -53.6548 H         1 UNK         0.0600 
    220 H220       -4.2208  -22.8237  -52.7782 H         1 UNK         0.3000 
    221 H221       -6.3183  -22.9412  -53.2746 H         1 UNK         0.0600 
    222 H222       -5.3968  -25.2525  -55.0541 H         1 UNK         0.0600 
    223 H223       -5.7281  -25.3215  -53.3251 H         1 UNK         0.0600 
    224 H224       -7.0351  -25.0159  -54.4591 H         1 UNK         0.0600 
    225 H225       -4.7602  -23.2334  -56.4728 H         1 UNK         0.3000 
    226 H226       -7.1323  -22.0418  -57.8234 H         1 UNK         0.0600 
    227 H227       -6.2333  -24.2745  -58.5829 H         1 UNK         0.0600 
    228 H228       -6.1835  -23.0701  -59.8500 H         1 UNK         0.0600 
    229 H229       -4.7036  -23.5073  -58.9923 H         1 UNK         0.0600 
    230 H230       -5.3532  -21.3322  -60.1154 H         1 UNK         0.3000 
    231 H231       -5.0820  -18.5836  -59.6983 H         1 UNK         0.0600 
    232 H232       -3.7645  -20.3825  -61.8037 H         1 UNK         0.0600 
    233 H233       -3.9160  -18.6329  -61.9145 H         1 UNK         0.0600 
    234 H234       -5.3578  -19.6344  -61.9255 H         1 UNK         0.0600 
    235 H235       -2.7876  -21.0984  -58.9570 H         1 UNK         0.3000 
    236 H236       -0.3774  -19.6121  -58.7328 H         1 UNK         0.0600 
    237 H237       -0.4354  -22.0805  -58.7563 H         1 UNK         0.0600 
    238 H238        0.2973  -21.5366  -57.2563 H         1 UNK         0.0600 
    239 H239       -1.3658  -22.1140  -57.2597 H         1 UNK         0.0600 
    240 H240       -3.2490  -19.5766  -56.7353 H         1 UNK         0.3000 
    241 H241       -2.0338  -18.3989  -54.3928 H         1 UNK         0.0600 
    242 H242       -2.5829  -15.3730  -57.0503 H         1 UNK         0.3800 
    243 H243       -2.6705  -17.0310  -57.5837 H         1 UNK         0.3800 
    244 H244       -4.9757  -18.1855  -55.1719 H         1 UNK         0.0800 
    245 H245       -4.3217  -19.6759  -54.5805 H         1 UNK         0.0800 
    246 H246       -5.3318  -19.8309  -51.5887 H         1 UNK         0.0800 
    247 H247       -3.9316  -20.3739  -52.4670 H         1 UNK         0.0800 
@<TRIPOS>BOND
     1    1    2 1    
     2    1  127 1    
     3    1  128 1    
     4    1  129 1    
     5    2    3 2    
     6    2    4 am   BACKBONE|DICT|INTERRES
     7    4    5 1    
     8    4  130 1    
     9    5    6 1    
    10    5   65 1    
    11    5  131 1    
    12    6    7 1    
    13    6  132 1    
    14    6  133 1    
    15    7    8 1    
    16    8    9 1    
    17    8  134 1    
    18    8  135 1    
    19    9   10 ar   
    20    9   14 ar   
    21   10   11 ar   
    22   10  136 1    
    23   11   12 ar   
    24   11  126 1    
    25   12   13 ar   
    26   12  137 1    
    27   13   14 ar   
    28   13   15 1    
    29   14  138 1    
    30   15   16 1    
    31   15  139 1    
    32   15  140 1    
    33   16   17 1    
    34   17   18 1    
    35   17  141 1    
    36   17  142 1    
    37   18   19 1    
    38   18   67 1    
    39   18  143 1    
    40   19   20 am   BACKBONE|DICT|INTERRES
    41   19  144 1    
    42   20   21 2    
    43   20   22 1    
    44   22   23 1    
    45   22   24 1    
    46   22  145 1    
    47   23  146 1    
    48   23  147 1    
    49   23  148 1    
    50   24   25 am   BACKBONE|DICT|INTERRES
    51   24  149 1    
    52   25   26 2    
    53   25   27 1    
    54   27   28 1    
    55   27   29 1    
    56   27  150 1    
    57   28  151 1    
    58   28  152 1    
    59   28  153 1    
    60   29   30 am   BACKBONE|DICT|INTERRES
    61   29  154 1    
    62   30   31 2    
    63   30   32 1    
    64   32   33 1    
    65   32   34 1    
    66   32  155 1    
    67   33  156 1    
    68   33  157 1    
    69   33  158 1    
    70   34   35 am   BACKBONE|DICT|INTERRES
    71   34  159 1    
    72   35   36 2    
    73   35   37 1    
    74   37   38 1    
    75   37   39 1    
    76   37  160 1    
    77   38  161 1    
    78   38  162 1    
    79   38  163 1    
    80   39   40 am   BACKBONE|DICT|INTERRES
    81   39  164 1    
    82   40   41 2    
    83   40   42 1    
    84   42   43 1    
    85   42   44 1    
    86   42  165 1    
    87   43  166 1    
    88   43  167 1    
    89   43  168 1    
    90   44   45 am   BACKBONE|DICT|INTERRES
    91   44  169 1    
    92   45   46 2    
    93   45   47 1    
    94   47   48 1    
    95   47   49 1    
    96   47  170 1    
    97   48  171 1    
    98   48  172 1    
    99   48  173 1    
   100   49   50 am   BACKBONE|DICT|INTERRES
   101   49  174 1    
   102   50   51 2    
   103   50   52 1    
   104   52   53 1    
   105   52   54 1    
   106   52  175 1    
   107   53  176 1    
   108   53  177 1    
   109   53  178 1    
   110   54   55 am   BACKBONE|DICT|INTERRES
   111   54  179 1    
   112   55   56 2    
   113   55   57 1    
   114   57   58 1    
   115   57   59 1    
   116   57  180 1    
   117   58  181 1    
   118   58  182 1    
   119   58  183 1    
   120   59   60 am   BACKBONE|DICT|INTERRES
   121   59  184 1    
   122   60   61 2    
   123   60   62 1    
   124   62   63 1    
   125   62   64 1    
   126   62  185 1    
   127   63  186 1    
   128   63  187 1    
   129   63  188 1    
   130   64   65 am   BACKBONE|DICT|INTERRES
   131   64  189 1    
   132   65   66 2    
   133   67   68 2    
   134   67   69 am   BACKBONE|DICT|INTERRES
   135   69   70 1    
   136   69  190 1    
   137   70   71 1    
   138   70   72 1    
   139   70  191 1    
   140   71  192 1    
   141   71  193 1    
   142   71  194 1    
   143   72   73 2    
   144   72   74 am   BACKBONE|DICT|INTERRES
   145   74   75 1    
   146   74  195 1    
   147   75   76 1    
   148   75   77 1    
   149   75  196 1    
   150   76  197 1    
   151   76  198 1    
   152   76  199 1    
   153   77   78 2    
   154   77   79 am   BACKBONE|DICT|INTERRES
   155   79   80 1    
   156   79  200 1    
   157   80   81 1    
   158   80   82 1    
   159   80  201 1    
   160   81  202 1    
   161   81  203 1    
   162   81  204 1    
   163   82   83 2    
   164   82   84 am   BACKBONE|DICT|INTERRES
   165   84   85 1    
   166   84  205 1    
   167   85   86 1    
   168   85   87 1    
   169   85  206 1    
   170   86  207 1    
   171   86  208 1    
   172   86  209 1    
   173   87   88 2    
   174   87   89 am   BACKBONE|DICT|INTERRES
   175   89   90 1    
   176   89  210 1    
   177   90   91 1    
   178   90   92 1    
   179   90  211 1    
   180   91  212 1    
   181   91  213 1    
   182   91  214 1    
   183   92   93 2    
   184   92   94 am   BACKBONE|DICT|INTERRES
   185   94   95 1    
   186   94  215 1    
   187   95   96 1    
   188   95   97 1    
   189   95  216 1    
   190   96  217 1    
   191   96  218 1    
   192   96  219 1    
   193   97   98 2    
   194   97   99 am   BACKBONE|DICT|INTERRES
   195   99  100 1    
   196   99  220 1    
   197  100  101 1    
   198  100  102 1    
   199  100  221 1    
   200  101  222 1    
   201  101  223 1    
   202  101  224 1    
   203  102  103 2    
   204  102  104 am   BACKBONE|DICT|INTERRES
   205  104  105 1    
   206  104  225 1    
   207  105  106 1    
   208  105  107 1    
   209  105  226 1    
   210  106  227 1    
   211  106  228 1    
   212  106  229 1    
   213  107  108 2    
   214  107  109 am   BACKBONE|DICT|INTERRES
   215  109  110 1    
   216  109  230 1    
   217  110  111 1    
   218  110  112 1    
   219  110  231 1    
   220  111  232 1    
   221  111  233 1    
   222  111  234 1    
   223  112  113 2    
   224  112  114 am   BACKBONE|DICT|INTERRES
   225  114  115 1    
   226  114  235 1    
   227  115  116 1    
   228  115  117 1    
   229  115  236 1    
   230  116  237 1    
   231  116  238 1    
   232  116  239 1    
   233  117  118 2    
   234  117  119 am   BACKBONE|DICT|INTERRES
   235  119  120 1    
   236  119  240 1    
   237  120  121 1    
   238  120  124 1    
   239  120  241 1    
   240  121  122 am   BACKBONE|DICT|INTERRES
   241  121  123 2    
   242  122  242 1    
   243  122  243 1    
   244  124  125 1    
   245  124  244 1    
   246  124  245 1    
   247  125  126 1    
   248  126  246 1    
   249  126  247 1    
@<TRIPOS>SUBSTRUCTURE
     1 UNK         1 GROUP             0       ****    0 ROOT    
