@<TRIPOS>MOLECULE
3R540
247   249    1
SMALL
USER_CHARGES


@<TRIPOS>ATOM
      1 CA          4.8333  -14.7872  -46.9363 C.3       0 UNK        -0.1800 
      2 C           3.6712  -15.1934  -47.8314 C.2       0 UNK         0.5000 
      3 O           3.8864  -15.5749  -48.9808 O.2       0 UNK        -0.5000 
      4 N           2.4465  -15.1085  -47.3070 N.am      1 UNK        -0.5000 
      5 CA          1.1977  -15.5139  -47.9432 C.3       1 UNK         0.1400 
      6 C6          0.7388  -14.5077  -49.0311 C.3       23 UNK        -0.0398 
      7 S7         -0.6300  -15.1030  -50.0876 S.3       23 UNK        -0.2404 
      8 C8          0.2416  -15.7954  -51.5331 C.3       23 UNK        -0.0205 
      9 C9          0.4546  -17.2929  -51.3791 C.ar      23 UNK        -0.0193 
     10 C10        -0.5022  -18.1918  -51.8595 C.ar      23 UNK        -0.1150 
     11 C11        -0.3448  -19.5728  -51.6762 C.ar      23 UNK        -0.0193 
     12 C12         0.7810  -20.0378  -50.9916 C.ar      23 UNK        -0.1150 
     13 C13         1.7462  -19.1499  -50.5110 C.ar      23 UNK        -0.0193 
     14 C14         1.5926  -17.7811  -50.7358 C.ar      23 UNK        -0.1150 
     15 C15         2.9263  -19.6683  -49.7041 C.3       23 UNK        -0.0205 
     16 S16         2.8358  -19.1862  -47.9456 S.3       23 UNK        -0.2404 
     17 C17         1.1348  -19.6575  -47.4699 C.3       23 UNK        -0.0398 
     18 CA          0.9528  -21.1777  -47.2534 C.3       11 UNK         0.1400 
     19 N           1.8821  -21.7229  -46.2614 N.am      11 UNK        -0.5000 
     20 C           2.1619  -23.0249  -46.1155 C.2       10 UNK         0.5000 
     21 O           1.6891  -23.9092  -46.8278 O.2       10 UNK        -0.5000 
     22 CA          3.1065  -23.4061  -44.9600 C.3       10 UNK         0.1400 
     23 CB          4.5701  -23.3482  -45.4216 C.3       10 UNK        -0.1800 
     24 N           2.9387  -22.5541  -43.7811 N.am      10 UNK        -0.5000 
     25 C           1.8325  -22.5112  -43.0248 C.2       9 UNK         0.5000 
     26 O           0.8430  -23.2134  -43.2240 O.2       9 UNK        -0.5000 
     27 CA          1.8060  -21.4686  -41.8933 C.3       9 UNK         0.1400 
     28 CB          2.4102  -22.0441  -40.6047 C.3       9 UNK        -0.1800 
     29 N           2.4988  -20.2267  -42.2395 N.am      9 UNK        -0.5000 
     30 C           2.1444  -19.4004  -43.2307 C.2       8 UNK         0.5000 
     31 O           1.2042  -19.6261  -43.9979 O.2       8 UNK        -0.5000 
     32 CA          2.9879  -18.1190  -43.3797 C.3       8 UNK         0.1400 
     33 CB          2.4256  -17.1709  -44.4469 C.3       8 UNK        -0.1800 
     34 N           3.0801  -17.3803  -42.1223 N.am      8 UNK        -0.5000 
     35 C           3.9565  -17.6075  -41.1362 C.2       7 UNK         0.5000 
     36 O           4.7684  -18.5334  -41.1489 O.2       7 UNK        -0.5000 
     37 CA          3.8870  -16.6633  -39.9264 C.3       7 UNK         0.1400 
     38 CB          4.4360  -15.2736  -40.2880 C.3       7 UNK        -0.1800 
     39 N           2.5048  -16.5310  -39.4731 N.am      7 UNK        -0.5000 
     40 C           1.9907  -17.1299  -38.3908 C.2       6 UNK         0.5000 
     41 O           2.6541  -17.7882  -37.5885 O.2       6 UNK        -0.5000 
     42 CA          0.4708  -16.9816  -38.1699 C.3       6 UNK         0.1400 
     43 CB          0.1744  -15.7814  -37.2581 C.3       6 UNK        -0.1800 
     44 N          -0.2826  -16.8306  -39.4167 N.am      6 UNK        -0.5000 
     45 C          -0.3772  -17.7680  -40.3699 C.2       5 UNK         0.5000 
     46 O           0.0852  -18.9024  -40.2544 O.2       5 UNK        -0.5000 
     47 CA         -1.0983  -17.3804  -41.6770 C.3       5 UNK         0.1400 
     48 CB         -2.5353  -17.9251  -41.6411 C.3       5 UNK        -0.1800 
     49 N          -1.1359  -15.9434  -41.9945 N.am      5 UNK        -0.5000 
     50 C          -0.0875  -15.1077  -42.0705 C.2       4 UNK         0.5000 
     51 O           1.0679  -15.4453  -41.8059 O.2       4 UNK        -0.5000 
     52 CA         -0.3873  -13.6642  -42.5187 C.3       4 UNK         0.1400 
     53 CB          0.8940  -12.8553  -42.7910 C.3       4 UNK        -0.1800 
     54 N          -1.1909  -13.6930  -43.7366 N.am      4 UNK        -0.5000 
     55 C          -2.4326  -13.2099  -43.8840 C.2       3 UNK         0.5000 
     56 O          -3.0393  -12.6019  -43.0019 O.2       3 UNK        -0.5000 
     57 CA         -3.1310  -13.4810  -45.2375 C.3       3 UNK         0.1400 
     58 CB         -2.9677  -12.2783  -46.1788 C.3       3 UNK        -0.1800 
     59 N          -2.6192  -14.6788  -45.9080 N.am      3 UNK        -0.5000 
     60 C          -2.7137  -15.9206  -45.4151 C.2       2 UNK         0.5000 
     61 O          -3.4495  -16.2105  -44.4733 O.2       2 UNK        -0.5000 
     62 CA         -1.8000  -17.0096  -46.0196 C.3       2 UNK         0.1400 
     63 CB         -2.6317  -18.1548  -46.6065 C.3       2 UNK        -0.1800 
     64 N          -0.8340  -16.5511  -47.0282 N.am      2 UNK        -0.5000 
     65 C           0.1780  -15.7012  -46.8077 C.2       1 UNK         0.5000 
     66 O           0.3264  -15.0826  -45.7497 O.2       1 UNK        -0.5000 
     67 C          -0.5031  -21.4891  -46.8623 C.2       11 UNK         0.5000 
     68 O          -1.2980  -21.8816  -47.7178 O.2       11 UNK        -0.5000 
     69 N          -0.8139  -21.3299  -45.5677 N.am      12 UNK        -0.5000 
     70 CA         -2.1170  -21.6336  -44.9758 C.3       12 UNK         0.1400 
     71 CB         -2.1539  -21.0795  -43.5455 C.3       12 UNK        -0.1800 
     72 C          -2.4564  -23.1365  -45.0005 C.2       12 UNK         0.5000 
     73 O          -3.6206  -23.4910  -45.1808 O.2       12 UNK        -0.5000 
     74 N          -1.4348  -23.9899  -44.8485 N.am      13 UNK        -0.5000 
     75 CA         -1.5335  -25.4456  -44.9722 C.3       13 UNK         0.1400 
     76 CB         -0.2873  -26.0854  -44.3405 C.3       13 UNK        -0.1800 
     77 C          -1.7041  -25.9284  -46.4276 C.2       13 UNK         0.5000 
     78 O          -2.1532  -27.0571  -46.6342 O.2       13 UNK        -0.5000 
     79 N          -1.3357  -25.0844  -47.4006 N.am      14 UNK        -0.5000 
     80 CA         -1.4886  -25.3216  -48.8331 C.3       14 UNK         0.1400 
     81 CB         -0.2874  -24.6947  -49.5723 C.3       14 UNK        -0.1800 
     82 C          -2.8623  -24.8073  -49.3166 C.2       14 UNK         0.5000 
     83 O          -3.8783  -25.0639  -48.6682 O.2       14 UNK        -0.5000 
     84 N          -2.8835  -24.1032  -50.4560 N.am      15 UNK        -0.5000 
     85 CA         -4.0895  -23.5654  -51.0925 C.3       15 UNK         0.1400 
     86 CB         -3.8087  -23.3380  -52.5872 C.3       15 UNK        -0.1800 
     87 C          -4.6826  -22.3154  -50.4034 C.2       15 UNK         0.5000 
     88 O          -5.7664  -21.8831  -50.7943 O.2       15 UNK        -0.5000 
     89 N          -3.9977  -21.7755  -49.3824 N.am      16 UNK        -0.5000 
     90 CA         -4.4893  -20.7652  -48.4381 C.3       16 UNK         0.1400 
     91 CB         -5.5672  -21.3770  -47.5202 C.3       16 UNK        -0.1800 
     92 C          -4.9418  -19.4431  -49.0944 C.2       16 UNK         0.5000 
     93 O          -5.9952  -18.9062  -48.7484 O.2       16 UNK        -0.5000 
     94 N          -4.1170  -18.9404  -50.0235 N.am      17 UNK        -0.5000 
     95 CA         -4.2767  -17.6801  -50.7621 C.3       17 UNK         0.1400 
     96 CB         -4.2346  -16.4582  -49.8192 C.3       17 UNK        -0.1800 
     97 C          -5.4717  -17.6454  -51.7404 C.2       17 UNK         0.5000 
     98 O          -5.8508  -16.5640  -52.1944 O.2       17 UNK        -0.5000 
     99 N          -6.0178  -18.8159  -52.0996 N.am      18 UNK        -0.5000 
    100 CA        -6.9667  -18.9777  -53.1987 C.3       18 UNK         0.1400 
    101 CB        -7.7173  -20.3093  -53.0323 C.3       18 UNK        -0.1800 
    102 C         -6.1928  -18.9216  -54.5262 C.2       18 UNK         0.5000 
    103 O         -5.6396  -19.9370  -54.9482 O.2       18 UNK        -0.5000 
    104 N         -6.1187  -17.7281  -55.1310 N.am      19 UNK        -0.5000 
    105 CA        -5.2582  -17.3863  -56.2716 C.3       19 UNK         0.1400 
    106 CB        -5.5458  -15.9403  -56.7014 C.3       19 UNK        -0.1800 
    107 C         -5.3511  -18.3346  -57.4830 C.2       19 UNK         0.5000 
    108 O         -4.3328  -18.6007  -58.1225 O.2       19 UNK        -0.5000 
    109 N         -6.5543  -18.8612  -57.7463 N.am      20 UNK        -0.5000 
    110 CA        -6.8250  -19.8434  -58.7986 C.3       20 UNK         0.1400 
    111 CB        -8.3454  -20.0166  -58.9364 C.3       20 UNK        -0.1800 
    112 C         -6.1470  -21.2102  -58.5663 C.2       20 UNK         0.5000 
    113 O         -5.8753  -21.9167  -59.5381 O.2       20 UNK        -0.5000 
    114 N         -5.8882  -21.5560  -57.2987 N.am      21 UNK        -0.5000 
    115 CA        -5.1892  -22.7709  -56.8882 C.3       21 UNK         0.1400 
    116 CB        -5.8920  -23.3642  -55.6579 C.3       21 UNK        -0.1800 
    117 C         -3.7027  -22.4936  -56.6018 C.2       21 UNK         0.5000 
    118 O         -2.8650  -23.3314  -56.9392 O.2       21 UNK        -0.5000 
    119 N         -3.3934  -21.3327  -56.0049 N.am      22 UNK        -0.5000 
    120 CA        -2.0167  -20.8797  -55.7370 C.3       22 UNK         0.1400 
    121 C         -1.1971  -20.5589  -57.0194 C.2       22 UNK         0.5000 
    122 N         -1.8061  -20.0415  -58.0797 N.am      22 UNK        -0.7600 
    123 O          0.0092  -20.7852  -57.0524 O.2       22 UNK        -0.5000 
    124 C124       -1.9532  -19.6760  -54.7617 C.3       23 UNK        -0.0398 
    125 S125       -2.7560  -19.9915  -53.1560 S.3       23 UNK        -0.2404 
    126 C126       -1.3579  -20.6107  -52.1590 C.3       23 UNK        -0.0205 
    127 H127        5.5035  -15.6337  -46.7868 H         1 UNK         0.0600 
    128 H128        4.4923  -14.4472  -45.9580 H         1 UNK         0.0600 
    129 H129        5.3997  -13.9790  -47.3990 H         1 UNK         0.0600 
    130 H130        2.3141  -14.8011  -46.3504 H         1 UNK         0.3000 
    131 H131        1.3602  -16.4932  -48.3898 H         1 UNK         0.0600 
    132 H132        1.5773  -14.2475  -49.6772 H         1 UNK         0.0800 
    133 H133        0.4314  -13.5675  -48.5699 H         1 UNK         0.0800 
    134 H134       -0.3561  -15.6001  -52.4247 H         1 UNK         0.0800 
    135 H135        1.1936  -15.2880  -51.6944 H         1 UNK         0.0800 
    136 H136       -1.3673  -17.7989  -52.3702 H         1 UNK         0.1150 
    137 H137        0.8985  -21.0987  -50.8195 H         1 UNK         0.1150 
    138 H138        2.3409  -17.0936  -50.3698 H         1 UNK         0.1150 
    139 H139        2.9935  -20.7552  -49.7697 H         1 UNK         0.0800 
    140 H140        3.8519  -19.2785  -50.1297 H         1 UNK         0.0800 
    141 H141        0.4319  -19.2871  -48.2166 H         1 UNK         0.0800 
    142 H142        0.8920  -19.1129  -46.5569 H         1 UNK         0.0800 
    143 H143        1.1450  -21.6768  -48.2055 H         1 UNK         0.0600 
    144 H144        2.2858  -21.0605  -45.6155 H         1 UNK         0.3000 
    145 H145        2.8784  -24.4339  -44.6699 H         1 UNK         0.0600 
    146 H146        5.2456  -23.6865  -44.6356 H         1 UNK         0.0600 
    147 H147        4.7317  -23.9925  -46.2869 H         1 UNK         0.0600 
    148 H148        4.8639  -22.3369  -45.7061 H         1 UNK         0.0600 
    149 H149        3.7048  -21.9402  -43.5464 H         1 UNK         0.3000 
    150 H150        0.7606  -21.2211  -41.6988 H         1 UNK         0.0600 
    151 H151        1.9008  -22.9628  -40.3109 H         1 UNK         0.0600 
    152 H152        2.3116  -21.3399  -39.7779 H         1 UNK         0.0600 
    153 H153        3.4690  -22.2771  -40.7241 H         1 UNK         0.0600 
    154 H154        3.2814  -19.9551  -41.6561 H         1 UNK         0.3000 
    155 H155        3.9896  -18.4197  -43.6934 H         1 UNK         0.0600 
    156 H156        3.0055  -16.2500  -44.5061 H         1 UNK         0.0600 
    157 H157        2.4463  -17.6308  -45.4336 H         1 UNK         0.0600 
    158 H158        1.3925  -16.9033  -44.2257 H         1 UNK         0.0600 
    159 H159        2.4091  -16.6228  -42.0122 H         1 UNK         0.3000 
    160 H160        4.5154  -17.0800  -39.1365 H         1 UNK         0.0600 
    161 H161        3.8431  -14.7915  -41.0667 H         1 UNK         0.0600 
    162 H162        5.4628  -15.3412  -40.6497 H         1 UNK         0.0600 
    163 H163        4.4400  -14.6164  -39.4184 H         1 UNK         0.0600 
    164 H164        1.8741  -16.0443  -40.1014 H         1 UNK         0.3000 
    165 H165        0.1195  -17.8874  -37.6712 H         1 UNK         0.0600 
    166 H166       -0.8898  -15.7100  -37.0324 H         1 UNK         0.0600 
    167 H167        0.7013  -15.8739  -36.3074 H         1 UNK         0.0600 
    168 H168        0.4858  -14.8415  -37.7159 H         1 UNK         0.0600 
    169 H169       -0.7040  -15.9300  -39.5884 H         1 UNK         0.3000 
    170 H170       -0.5643  -17.8763  -42.4898 H         1 UNK         0.0600 
    171 H171       -2.5567  -18.9678  -41.3205 H         1 UNK         0.0600 
    172 H172       -3.1624  -17.3599  -40.9509 H         1 UNK         0.0600 
    173 H173       -2.9999  -17.8910  -42.6244 H         1 UNK         0.0600 
    174 H174       -2.0436  -15.5780  -42.2471 H         1 UNK         0.3000 
    175 H175       -0.9317  -13.1823  -41.7045 H         1 UNK         0.0600 
    176 H176        1.5137  -12.7864  -41.8960 H         1 UNK         0.0600 
    177 H177        1.4971  -13.3131  -43.5765 H         1 UNK         0.0600 
    178 H178        0.6576  -11.8375  -43.1013 H         1 UNK         0.0600 
    179 H179       -0.7647  -14.1910  -44.5155 H         1 UNK         0.3000 
    180 H180       -4.1952  -13.6268  -45.0413 H         1 UNK         0.0600 
    181 H181       -1.9196  -12.0960  -46.4202 H         1 UNK         0.0600 
    182 H182       -3.3629  -11.3695  -45.7230 H         1 UNK         0.0600 
    183 H183       -3.5064  -12.4329  -47.1139 H         1 UNK         0.0600 
    184 H184       -1.9931  -14.5280  -46.6845 H         1 UNK         0.3000 
    185 H185       -1.2183  -17.4171  -45.1895 H         1 UNK         0.0600 
    186 H186       -3.2341  -18.6348  -45.8342 H         1 UNK         0.0600 
    187 H187       -3.3150  -17.7924  -47.3712 H         1 UNK         0.0600 
    188 H188       -1.9972  -18.9206  -47.0500 H         1 UNK         0.0600 
    189 H189       -0.9235  -16.9609  -47.9468 H         1 UNK         0.3000 
    190 H190       -0.1021  -20.9738  -44.9385 H         1 UNK         0.3000 
    191 H191       -2.8796  -21.1156  -45.5595 H         1 UNK         0.0600 
    192 H192       -1.4307  -21.5788  -42.9002 H         1 UNK         0.0600 
    193 H193       -3.1405  -21.2106  -43.0997 H         1 UNK         0.0600 
    194 H194       -1.9279  -20.0137  -43.5374 H         1 UNK         0.0600 
    195 H195       -0.5240  -23.6191  -44.5963 H         1 UNK         0.3000 
    196 H196       -2.4088  -25.7795  -44.4114 H         1 UNK         0.0600 
    197 H197       -0.3339  -27.1737  -44.3949 H         1 UNK         0.0600 
    198 H198       -0.1971  -25.8173  -43.2877 H         1 UNK         0.0600 
    199 H199        0.6253  -25.7691  -44.8468 H         1 UNK         0.0600 
    200 H200       -1.0007  -24.1683  -47.1363 H         1 UNK         0.3000 
    201 H201       -1.4676  -26.3958  -49.0271 H         1 UNK         0.0600 
    202 H202        0.6534  -25.0740  -49.1727 H         1 UNK         0.0600 
    203 H203       -0.2673  -23.6088  -49.4780 H         1 UNK         0.0600 
    204 H204       -0.2984  -24.9417  -50.6344 H         1 UNK         0.0600 
    205 H205       -2.0098  -23.9379  -50.9332 H         1 UNK         0.3000 
    206 H206       -4.8717  -24.3250  -51.0294 H         1 UNK         0.0600 
    207 H207       -3.8199  -24.2824  -53.1311 H         1 UNK         0.0600 
    208 H208       -4.5577  -22.6917  -53.0445 H         1 UNK         0.0600 
    209 H209       -2.8368  -22.8809  -52.7579 H         1 UNK         0.0600 
    210 H210       -3.1047  -22.1857  -49.1387 H         1 UNK         0.3000 
    211 H211       -3.6386  -20.5123  -47.8078 H         1 UNK         0.0600 
    212 H212       -5.2129  -22.2978  -47.0573 H         1 UNK         0.0600 
    213 H213       -5.8327  -20.6908  -46.7152 H         1 UNK         0.0600 
    214 H214       -6.4801  -21.6100  -48.0694 H         1 UNK         0.0600 
    215 H215       -3.3005  -19.4822  -50.2676 H         1 UNK         0.3000 
    216 H216       -3.3982  -17.6034  -51.4000 H         1 UNK         0.0600 
    217 H217       -5.0783  -16.4413  -49.1295 H         1 UNK         0.0600 
    218 H218       -4.2569  -15.5247  -50.3825 H         1 UNK         0.0600 
    219 H219       -3.3162  -16.4454  -49.2343 H         1 UNK         0.0600 
    220 H220       -5.6526  -19.6684  -51.6950 H         1 UNK         0.3000 
    221 H221       -7.7005  -18.1694  -53.1739 H         1 UNK         0.0600 
    222 H222       -8.2609  -20.3392  -52.0879 H         1 UNK         0.0600 
    223 H223       -7.0400  -21.1638  -53.0520 H         1 UNK         0.0600 
    224 H224       -8.4435  -20.4495  -53.8336 H         1 UNK         0.0600 
    225 H225       -6.5755  -16.9477  -54.6797 H         1 UNK         0.3000 
    226 H226       -4.2290  -17.4288  -55.9125 H         1 UNK         0.0600 
    227 H227       -5.3599  -15.2414  -55.8856 H         1 UNK         0.0600 
    228 H228       -4.9051  -15.6435  -57.5330 H         1 UNK         0.0600 
    229 H229       -6.5806  -15.8150  -57.0226 H         1 UNK         0.0600 
    230 H230       -7.3312  -18.5968  -57.1586 H         1 UNK         0.3000 
    231 H231       -6.4397  -19.4427  -59.7385 H         1 UNK         0.0600 
    232 H232       -8.7918  -20.3949  -58.0159 H         1 UNK         0.0600 
    233 H233       -8.5879  -20.7216  -59.7328 H         1 UNK         0.0600 
    234 H234       -8.8301  -19.0716  -59.1825 H         1 UNK         0.0600 
    235 H235       -6.0855  -20.8903  -56.5581 H         1 UNK         0.3000 
    236 H236       -5.2349  -23.5174  -57.6840 H         1 UNK         0.0600 
    237 H237       -6.9018  -23.6911  -55.9061 H         1 UNK         0.0600 
    238 H238       -5.3533  -24.2322  -55.2761 H         1 UNK         0.0600 
    239 H239       -5.9707  -22.6380  -54.8498 H         1 UNK         0.0600 
    240 H240       -4.1439  -20.7264  -55.6849 H         1 UNK         0.3000 
    241 H241       -1.5051  -21.7112  -55.2483 H         1 UNK         0.0600 
    242 H242       -1.2670  -19.8427  -58.9071 H         1 UNK         0.3800 
    243 H243       -2.7836  -19.7677  -58.0480 H         1 UNK         0.3800 
    244 H244       -2.4349  -18.8063  -55.2088 H         1 UNK         0.0800 
    245 H245       -0.9171  -19.3841  -54.5806 H         1 UNK         0.0800 
    246 H246       -1.7681  -21.1110  -51.2815 H         1 UNK         0.0800 
    247 H247       -0.8357  -21.3780  -52.7325 H         1 UNK         0.0800 
@<TRIPOS>BOND
     1    1    2 1    
     2    1  127 1    
     3    1  128 1    
     4    1  129 1    
     5    2    3 2    
     6    2    4 am   BACKBONE|DICT|INTERRES
     7    4    5 1    
     8    4  130 1    
     9    5    6 1    
    10    5   65 1    
    11    5  131 1    
    12    6    7 1    
    13    6  132 1    
    14    6  133 1    
    15    7    8 1    
    16    8    9 1    
    17    8  134 1    
    18    8  135 1    
    19    9   10 ar   
    20    9   14 ar   
    21   10   11 ar   
    22   10  136 1    
    23   11   12 ar   
    24   11  126 1    
    25   12   13 ar   
    26   12  137 1    
    27   13   14 ar   
    28   13   15 1    
    29   14  138 1    
    30   15   16 1    
    31   15  139 1    
    32   15  140 1    
    33   16   17 1    
    34   17   18 1    
    35   17  141 1    
    36   17  142 1    
    37   18   19 1    
    38   18   67 1    
    39   18  143 1    
    40   19   20 am   BACKBONE|DICT|INTERRES
    41   19  144 1    
    42   20   21 2    
    43   20   22 1    
    44   22   23 1    
    45   22   24 1    
    46   22  145 1    
    47   23  146 1    
    48   23  147 1    
    49   23  148 1    
    50   24   25 am   BACKBONE|DICT|INTERRES
    51   24  149 1    
    52   25   26 2    
    53   25   27 1    
    54   27   28 1    
    55   27   29 1    
    56   27  150 1    
    57   28  151 1    
    58   28  152 1    
    59   28  153 1    
    60   29   30 am   BACKBONE|DICT|INTERRES
    61   29  154 1    
    62   30   31 2    
    63   30   32 1    
    64   32   33 1    
    65   32   34 1    
    66   32  155 1    
    67   33  156 1    
    68   33  157 1    
    69   33  158 1    
    70   34   35 am   BACKBONE|DICT|INTERRES
    71   34  159 1    
    72   35   36 2    
    73   35   37 1    
    74   37   38 1    
    75   37   39 1    
    76   37  160 1    
    77   38  161 1    
    78   38  162 1    
    79   38  163 1    
    80   39   40 am   BACKBONE|DICT|INTERRES
    81   39  164 1    
    82   40   41 2    
    83   40   42 1    
    84   42   43 1    
    85   42   44 1    
    86   42  165 1    
    87   43  166 1    
    88   43  167 1    
    89   43  168 1    
    90   44   45 am   BACKBONE|DICT|INTERRES
    91   44  169 1    
    92   45   46 2    
    93   45   47 1    
    94   47   48 1    
    95   47   49 1    
    96   47  170 1    
    97   48  171 1    
    98   48  172 1    
    99   48  173 1    
   100   49   50 am   BACKBONE|DICT|INTERRES
   101   49  174 1    
   102   50   51 2    
   103   50   52 1    
   104   52   53 1    
   105   52   54 1    
   106   52  175 1    
   107   53  176 1    
   108   53  177 1    
   109   53  178 1    
   110   54   55 am   BACKBONE|DICT|INTERRES
   111   54  179 1    
   112   55   56 2    
   113   55   57 1    
   114   57   58 1    
   115   57   59 1    
   116   57  180 1    
   117   58  181 1    
   118   58  182 1    
   119   58  183 1    
   120   59   60 am   BACKBONE|DICT|INTERRES
   121   59  184 1    
   122   60   61 2    
   123   60   62 1    
   124   62   63 1    
   125   62   64 1    
   126   62  185 1    
   127   63  186 1    
   128   63  187 1    
   129   63  188 1    
   130   64   65 am   BACKBONE|DICT|INTERRES
   131   64  189 1    
   132   65   66 2    
   133   67   68 2    
   134   67   69 am   BACKBONE|DICT|INTERRES
   135   69   70 1    
   136   69  190 1    
   137   70   71 1    
   138   70   72 1    
   139   70  191 1    
   140   71  192 1    
   141   71  193 1    
   142   71  194 1    
   143   72   73 2    
   144   72   74 am   BACKBONE|DICT|INTERRES
   145   74   75 1    
   146   74  195 1    
   147   75   76 1    
   148   75   77 1    
   149   75  196 1    
   150   76  197 1    
   151   76  198 1    
   152   76  199 1    
   153   77   78 2    
   154   77   79 am   BACKBONE|DICT|INTERRES
   155   79   80 1    
   156   79  200 1    
   157   80   81 1    
   158   80   82 1    
   159   80  201 1    
   160   81  202 1    
   161   81  203 1    
   162   81  204 1    
   163   82   83 2    
   164   82   84 am   BACKBONE|DICT|INTERRES
   165   84   85 1    
   166   84  205 1    
   167   85   86 1    
   168   85   87 1    
   169   85  206 1    
   170   86  207 1    
   171   86  208 1    
   172   86  209 1    
   173   87   88 2    
   174   87   89 am   BACKBONE|DICT|INTERRES
   175   89   90 1    
   176   89  210 1    
   177   90   91 1    
   178   90   92 1    
   179   90  211 1    
   180   91  212 1    
   181   91  213 1    
   182   91  214 1    
   183   92   93 2    
   184   92   94 am   BACKBONE|DICT|INTERRES
   185   94   95 1    
   186   94  215 1    
   187   95   96 1    
   188   95   97 1    
   189   95  216 1    
   190   96  217 1    
   191   96  218 1    
   192   96  219 1    
   193   97   98 2    
   194   97   99 am   BACKBONE|DICT|INTERRES
   195   99  100 1    
   196   99  220 1    
   197  100  101 1    
   198  100  102 1    
   199  100  221 1    
   200  101  222 1    
   201  101  223 1    
   202  101  224 1    
   203  102  103 2    
   204  102  104 am   BACKBONE|DICT|INTERRES
   205  104  105 1    
   206  104  225 1    
   207  105  106 1    
   208  105  107 1    
   209  105  226 1    
   210  106  227 1    
   211  106  228 1    
   212  106  229 1    
   213  107  108 2    
   214  107  109 am   BACKBONE|DICT|INTERRES
   215  109  110 1    
   216  109  230 1    
   217  110  111 1    
   218  110  112 1    
   219  110  231 1    
   220  111  232 1    
   221  111  233 1    
   222  111  234 1    
   223  112  113 2    
   224  112  114 am   BACKBONE|DICT|INTERRES
   225  114  115 1    
   226  114  235 1    
   227  115  116 1    
   228  115  117 1    
   229  115  236 1    
   230  116  237 1    
   231  116  238 1    
   232  116  239 1    
   233  117  118 2    
   234  117  119 am   BACKBONE|DICT|INTERRES
   235  119  120 1    
   236  119  240 1    
   237  120  121 1    
   238  120  124 1    
   239  120  241 1    
   240  121  122 am   BACKBONE|DICT|INTERRES
   241  121  123 2    
   242  122  242 1    
   243  122  243 1    
   244  124  125 1    
   245  124  244 1    
   246  124  245 1    
   247  125  126 1    
   248  126  246 1    
   249  126  247 1    
@<TRIPOS>SUBSTRUCTURE
     1 UNK         1 GROUP             0       ****    0 ROOT    
