@<TRIPOS>MOLECULE
3R540
247   249    1
SMALL
USER_CHARGES


@<TRIPOS>ATOM
      1 CA          0.1852  -10.3461  -49.9846 C.3       0 UNK        -0.1800 
      2 C          -0.1590  -11.7765  -49.5947 C.2       0 UNK         0.5000 
      3 O           0.7431  -12.5809  -49.3625 O.2       0 UNK        -0.5000 
      4 N          -1.4586  -12.0920  -49.5200 N.am      1 UNK        -0.5000 
      5 CA         -1.9906  -13.4130  -49.1529 C.3       1 UNK         0.1400 
      6 C6         -3.5020  -13.5292  -49.4701 C.3       23 UNK        -0.0398 
      7 S7         -3.8347  -13.3953  -51.2610 S.3       23 UNK        -0.2404 
      8 C8         -4.0457  -15.1428  -51.7325 C.3       23 UNK        -0.0205 
      9 C9         -2.8015  -15.9676  -51.4400 C.ar      23 UNK        -0.0193 
     10 C10        -1.6968  -15.9094  -52.2925 C.ar      23 UNK        -0.1150 
     11 C11        -0.5504  -16.6635  -52.0226 C.ar      23 UNK        -0.0193 
     12 C12        -0.5165  -17.4839  -50.8892 C.ar      23 UNK        -0.1150 
     13 C13        -1.6116  -17.5398  -50.0208 C.ar      23 UNK        -0.0193 
     14 C14        -2.7491  -16.7799  -50.3052 C.ar      23 UNK        -0.1150 
     15 C15        -1.5585  -18.3743  -48.7485 C.3       23 UNK        -0.0205 
     16 S16        -2.8959  -19.6081  -48.6850 S.3       23 UNK        -0.2404 
     17 C17        -2.7700  -20.1681  -46.9577 C.3       23 UNK        -0.0398 
     18 CA         -2.0532  -21.5402  -46.8469 C.3       11 UNK         0.1400 
     19 N          -0.7334  -21.4356  -46.2188 N.am      11 UNK        -0.5000 
     20 C           0.1578  -22.4356  -46.1595 C.2       10 UNK         0.5000 
     21 O          -0.0173  -23.5400  -46.6723 O.2       10 UNK        -0.5000 
     22 CA          1.4334  -22.1809  -45.3395 C.3       10 UNK         0.1400 
     23 CB          2.4523  -21.3708  -46.1543 C.3       10 UNK        -0.1800 
     24 N           1.1535  -21.5066  -44.0707 N.am      10 UNK        -0.5000 
     25 C           0.4042  -22.0271  -43.0875 C.2       9 UNK         0.5000 
     26 O          -0.0780  -23.1585  -43.1237 O.2       9 UNK        -0.5000 
     27 CA          0.0958  -21.1203  -41.8835 C.3       9 UNK         0.1400 
     28 CB          1.2667  -21.1172  -40.8904 C.3       9 UNK        -0.1800 
     29 N          -0.2277  -19.7476  -42.2731 N.am      9 UNK        -0.5000 
     30 C          -1.2763  -19.3906  -43.0290 C.2       8 UNK         0.5000 
     31 O          -2.1092  -20.1850  -43.4656 O.2       8 UNK        -0.5000 
     32 CA         -1.3804  -17.9024  -43.4074 C.3       8 UNK         0.1400 
     33 CB         -1.9635  -17.0720  -42.2544 C.3       8 UNK        -0.1800 
     34 N          -0.0879  -17.3486  -43.8065 N.am      8 UNK        -0.5000 
     35 C           0.5821  -17.7152  -44.9080 C.2       7 UNK         0.5000 
     36 O           0.1638  -18.5351  -45.7266 O.2       7 UNK        -0.5000 
     37 CA          1.9811  -17.1012  -45.0857 C.3       7 UNK         0.1400 
     38 CB          1.8888  -15.6722  -45.6416 C.3       7 UNK        -0.1800 
     39 N           2.7388  -17.0907  -43.8323 N.am      7 UNK        -0.5000 
     40 C           3.1952  -18.1945  -43.2220 C.2       6 UNK         0.5000 
     41 O           3.0419  -19.3310  -43.6657 O.2       6 UNK        -0.5000 
     42 CA          3.9119  -18.0069  -41.8719 C.3       6 UNK         0.1400 
     43 CB          5.4058  -17.7261  -42.0916 C.3       6 UNK        -0.1800 
     44 N           3.3393  -16.9411  -41.0498 N.am      6 UNK        -0.5000 
     45 C           2.0792  -16.9042  -40.5924 C.2       5 UNK         0.5000 
     46 O           1.2491  -17.7868  -40.8042 O.2       5 UNK        -0.5000 
     47 CA          1.6655  -15.6504  -39.7986 C.3       5 UNK         0.1400 
     48 CB          1.8027  -15.9014  -38.2898 C.3       5 UNK        -0.1800 
     49 N           2.4333  -14.4552  -40.1628 N.am      5 UNK        -0.5000 
     50 C           2.3907  -13.8700  -41.3658 C.2       4 UNK         0.5000 
     51 O           1.6917  -14.2740  -42.3017 O.2       4 UNK        -0.5000 
     52 CA          3.3256  -12.6680  -41.5774 C.3       4 UNK         0.1400 
     53 CB          4.7006  -13.1462  -42.0700 C.3       4 UNK        -0.1800 
     54 N           2.7444  -11.7854  -42.5822 N.am      4 UNK        -0.5000 
     55 C           1.8180  -10.8547  -42.3231 C.2       3 UNK         0.5000 
     56 O           1.5174  -10.4676  -41.1935 O.2       3 UNK        -0.5000 
     57 CA          1.0317  -10.3600  -43.5388 C.3       3 UNK         0.1400 
     58 CB          1.9390   -9.6514  -44.5657 C.3       3 UNK        -0.1800 
     59 N           0.3670  -11.5253  -44.1177 N.am      3 UNK        -0.5000 
     60 C          -0.6093  -11.4970  -45.0257 C.2       2 UNK         0.5000 
     61 O          -1.0566  -10.4643  -45.5327 O.2       2 UNK        -0.5000 
     62 CA         -1.1930  -12.8557  -45.4298 C.3       2 UNK         0.1400 
     63 CB         -2.3769  -13.2553  -44.5323 C.3       2 UNK        -0.1800 
     64 N          -1.6141  -12.7579  -46.8184 N.am      2 UNK        -0.5000 
     65 C          -1.7164  -13.7761  -47.6776 C.2       1 UNK         0.5000 
     66 O          -1.5838  -14.9562  -47.3534 O.2       1 UNK        -0.5000 
     67 C          -2.9452  -22.5872  -46.1515 C.2       11 UNK         0.5000 
     68 O          -3.5842  -23.3832  -46.8396 O.2       11 UNK        -0.5000 
     69 N          -2.9523  -22.5896  -44.8113 N.am      12 UNK        -0.5000 
     70 CA         -3.6793  -23.5565  -43.9887 C.3       12 UNK         0.1400 
     71 CB         -3.6188  -23.1342  -42.5132 C.3       12 UNK        -0.1800 
     72 C          -3.1654  -24.9953  -44.1766 C.2       12 UNK         0.5000 
     73 O          -3.9741  -25.9047  -44.3623 O.2       12 UNK        -0.5000 
     74 N          -1.8357  -25.1684  -44.1804 N.am      13 UNK        -0.5000 
     75 CA         -1.1569  -26.4430  -44.4299 C.3       13 UNK         0.1400 
     76 CB          0.3482  -26.2804  -44.1698 C.3       13 UNK        -0.1800 
     77 C          -1.4069  -26.9916  -45.8476 C.2       13 UNK         0.5000 
     78 O          -1.5756  -28.2002  -46.0122 O.2       13 UNK        -0.5000 
     79 N          -1.4632  -26.0905  -46.8368 N.am      14 UNK        -0.5000 
     80 CA         -1.7976  -26.3905  -48.2292 C.3       14 UNK         0.1400 
     81 CB         -1.2752  -25.2493  -49.1181 C.3       14 UNK        -0.1800 
     82 C          -3.3058  -26.6043  -48.4720 C.2       14 UNK         0.5000 
     83 O          -3.6780  -26.9613  -49.5884 O.2       14 UNK        -0.5000 
     84 N          -4.1521  -26.3444  -47.4634 N.am      15 UNK        -0.5000 
     85 CA         -5.6193  -26.3673  -47.5140 C.3       15 UNK         0.1400 
     86 CB         -6.1375  -27.8113  -47.6748 C.3       15 UNK        -0.1800 
     87 C          -6.1841  -25.3944  -48.5732 C.2       15 UNK         0.5000 
     88 O          -7.0963  -25.7455  -49.3231 O.2       15 UNK        -0.5000 
     89 N          -5.5884  -24.1943  -48.6248 N.am      16 UNK        -0.5000 
     90 CA         -5.8452  -23.0824  -49.5453 C.3       16 UNK         0.1400 
     91 CB         -7.3045  -22.5933  -49.4523 C.3       16 UNK        -0.1800 
     92 C          -5.4030  -23.3308  -51.0032 C.2       16 UNK         0.5000 
     93 O          -5.6412  -22.4692  -51.8509 O.2       16 UNK        -0.5000 
     94 N          -4.7154  -24.4493  -51.2870 N.am      17 UNK        -0.5000 
     95 CA         -4.1627  -24.7462  -52.6143 C.3       17 UNK         0.1400 
     96 CB         -3.6781  -26.2009  -52.6747 C.3       17 UNK        -0.1800 
     97 C          -3.0304  -23.7844  -53.0209 C.2       17 UNK         0.5000 
     98 O          -2.8393  -23.5472  -54.2126 O.2       17 UNK        -0.5000 
     99 N          -2.3325  -23.2106  -52.0294 N.am      18 UNK        -0.5000 
    100 CA        -1.3294  -22.1638  -52.2223 C.3       18 UNK         0.1400 
    101 CB        -0.6053  -21.8876  -50.8966 C.3       18 UNK        -0.1800 
    102 C         -1.9381  -20.8744  -52.8030 C.2       18 UNK         0.5000 
    103 O         -1.3649  -20.3055  -53.7283 O.2       18 UNK        -0.5000 
    104 N         -3.1200  -20.4773  -52.3072 N.am      19 UNK        -0.5000 
    105 CA        -3.8692  -19.3224  -52.8075 C.3       19 UNK         0.1400 
    106 CB        -5.0538  -19.0188  -51.8769 C.3       19 UNK        -0.1800 
    107 C         -4.3591  -19.5166  -54.2527 C.2       19 UNK         0.5000 
    108 O         -4.3691  -18.5558  -55.0220 O.2       19 UNK        -0.5000 
    109 N         -4.7274  -20.7585  -54.6000 N.am      20 UNK        -0.5000 
    110 CA        -5.0845  -21.1611  -55.9591 C.3       20 UNK         0.1400 
    111 CB        -5.7581  -22.5417  -55.9352 C.3       20 UNK        -0.1800 
    112 C         -3.8659  -21.1459  -56.9008 C.2       20 UNK         0.5000 
    113 O         -3.9592  -20.5972  -57.9995 O.2       20 UNK        -0.5000 
    114 N         -2.7348  -21.7030  -56.4417 N.am      21 UNK        -0.5000 
    115 CA        -1.4559  -21.7275  -57.1597 C.3       21 UNK         0.1400 
    116 CB        -0.4428  -22.5784  -56.3793 C.3       21 UNK        -0.1800 
    117 C         -0.8872  -20.3233  -57.4445 C.2       21 UNK         0.5000 
    118 O         -0.3230  -20.1042  -58.5174 O.2       21 UNK        -0.5000 
    119 N         -1.0856  -19.3930  -56.5033 N.am      22 UNK        -0.5000 
    120 CA        -0.8022  -17.9569  -56.6561 C.3       22 UNK         0.1400 
    121 C         -1.7615  -17.1997  -57.6268 C.2       22 UNK         0.5000 
    122 N         -2.8205  -17.8032  -58.1541 N.am      22 UNK        -0.7600 
    123 O         -1.5287  -16.0310  -57.9241 O.2       22 UNK        -0.5000 
    124 C124       -0.7361  -17.2428  -55.2817 C.3       23 UNK        -0.0398 
    125 S125        0.6619  -17.8087  -54.2542 S.3       23 UNK        -0.2404 
    126 C126        0.6654  -16.5565  -52.9331 C.3       23 UNK        -0.0205 
    127 H127       -0.7083   -9.7516  -50.1772 H         1 UNK         0.0600 
    128 H128        0.7982  -10.3398  -50.8859 H         1 UNK         0.0600 
    129 H129        0.7476   -9.8649  -49.1844 H         1 UNK         0.0600 
    130 H130       -2.1506  -11.3925  -49.7486 H         1 UNK         0.3000 
    131 H131       -1.4565  -14.1533  -49.7516 H         1 UNK         0.0600 
    132 H132       -4.0596  -12.7432  -48.9582 H         1 UNK         0.0800 
    133 H133       -3.9124  -14.4700  -49.1005 H         1 UNK         0.0800 
    134 H134       -4.9121  -15.5562  -51.2137 H         1 UNK         0.0800 
    135 H135       -4.2749  -15.1984  -52.7977 H         1 UNK         0.0800 
    136 H136       -1.7274  -15.2666  -53.1609 H         1 UNK         0.1150 
    137 H137        0.3713  -18.0615  -50.6739 H         1 UNK         0.1150 
    138 H138       -3.5935  -16.8193  -49.6318 H         1 UNK         0.1150 
    139 H139       -0.5990  -18.8850  -48.6523 H         1 UNK         0.0800 
    140 H140       -1.6391  -17.7014  -47.8934 H         1 UNK         0.0800 
    141 H141       -3.7903  -20.2004  -46.5698 H         1 UNK         0.0800 
    142 H142       -2.2726  -19.4077  -46.3553 H         1 UNK         0.0800 
    143 H143       -1.8771  -21.9341  -47.8493 H         1 UNK         0.0600 
    144 H144       -0.4962  -20.5451  -45.7955 H         1 UNK         0.3000 
    145 H145        1.8784  -23.1511  -45.1097 H         1 UNK         0.0600 
    146 H146        3.3970  -21.2757  -45.6188 H         1 UNK         0.0600 
    147 H147        2.6668  -21.8573  -47.1066 H         1 UNK         0.0600 
    148 H148        2.0893  -20.3663  -46.3725 H         1 UNK         0.0600 
    149 H149        1.5711  -20.5897  -43.9427 H         1 UNK         0.3000 
    150 H150       -0.7779  -21.5313  -41.3741 H         1 UNK         0.0600 
    151 H151        1.4953  -22.1291  -40.5540 H         1 UNK         0.0600 
    152 H152        1.0327  -20.5248  -40.0057 H         1 UNK         0.0600 
    153 H153        2.1718  -20.7079  -41.3383 H         1 UNK         0.0600 
    154 H154        0.3835  -19.0191  -41.9120 H         1 UNK         0.3000 
    155 H155       -2.0589  -17.8213  -44.2593 H         1 UNK         0.0600 
    156 H156       -1.3231  -17.0949  -41.3723 H         1 UNK         0.0600 
    157 H157       -2.9424  -17.4514  -41.9587 H         1 UNK         0.0600 
    158 H158       -2.0937  -16.0298  -42.5468 H         1 UNK         0.0600 
    159 H159        0.3477  -16.6973  -43.1695 H         1 UNK         0.3000 
    160 H160        2.5221  -17.7136  -45.8103 H         1 UNK         0.0600 
    161 H161        1.4302  -14.9927  -44.9241 H         1 UNK         0.0600 
    162 H162        1.2900  -15.6428  -46.5534 H         1 UNK         0.0600 
    163 H163        2.8761  -15.2811  -45.8870 H         1 UNK         0.0600 
    164 H164        2.8635  -16.1956  -43.3806 H         1 UNK         0.3000 
    165 H165        3.8192  -18.9408  -41.3147 H         1 UNK         0.0600 
    166 H166        5.5662  -16.7819  -42.6138 H         1 UNK         0.0600 
    167 H167        5.9427  -17.6816  -41.1440 H         1 UNK         0.0600 
    168 H168        5.8674  -18.5141  -42.6882 H         1 UNK         0.0600 
    169 H169        3.9491  -16.1713  -40.8194 H         1 UNK         0.3000 
    170 H170        0.6136  -15.4568  -40.0196 H         1 UNK         0.0600 
    171 H171        2.8398  -16.0813  -38.0036 H         1 UNK         0.0600 
    172 H172        1.4368  -15.0516  -37.7133 H         1 UNK         0.0600 
    173 H173        1.2220  -16.7732  -37.9849 H         1 UNK         0.0600 
    174 H174        3.0336  -14.0700  -39.4476 H         1 UNK         0.3000 
    175 H175        3.4504  -12.1312  -40.6345 H         1 UNK         0.0600 
    176 H176        4.6238  -13.7148  -42.9979 H         1 UNK         0.0600 
    177 H177        5.3684  -12.3033  -42.2489 H         1 UNK         0.0600 
    178 H178        5.1812  -13.7878  -41.3304 H         1 UNK         0.0600 
    179 H179        2.9000  -12.0524  -43.5432 H         1 UNK         0.3000 
    180 H180        0.2733   -9.6564  -43.1889 H         1 UNK         0.0600 
    181 H181        1.3543   -9.1975  -45.3657 H         1 UNK         0.0600 
    182 H182        2.6505  -10.3380  -45.0252 H         1 UNK         0.0600 
    183 H183        2.5101   -8.8512  -44.0934 H         1 UNK         0.0600 
    184 H184        0.6386  -12.4143  -43.7151 H         1 UNK         0.3000 
    185 H185       -0.4083  -13.6094  -45.3489 H         1 UNK         0.0600 
    186 H186       -2.7701  -14.2339  -44.8084 H         1 UNK         0.0600 
    187 H187       -2.0719  -13.3131  -43.4867 H         1 UNK         0.0600 
    188 H188       -3.1923  -12.5342  -44.5997 H         1 UNK         0.0600 
    189 H189       -1.7008  -11.8080  -47.1584 H         1 UNK         0.3000 
    190 H190       -2.4424  -21.8618  -44.3173 H         1 UNK         0.3000 
    191 H191       -4.7252  -23.5353  -44.3018 H         1 UNK         0.0600 
    192 H192       -4.1923  -23.8195  -41.8879 H         1 UNK         0.0600 
    193 H193       -4.0361  -22.1370  -42.3716 H         1 UNK         0.0600 
    194 H194       -2.5965  -23.1242  -42.1361 H         1 UNK         0.0600 
    195 H195       -1.2382  -24.3701  -43.9775 H         1 UNK         0.3000 
    196 H196       -1.5486  -27.1730  -43.7187 H         1 UNK         0.0600 
    197 H197        0.7918  -25.5348  -44.8305 H         1 UNK         0.0600 
    198 H198        0.5390  -25.9711  -43.1421 H         1 UNK         0.0600 
    199 H199        0.8775  -27.2203  -44.3308 H         1 UNK         0.0600 
    200 H200       -1.2400  -25.1221  -46.6271 H         1 UNK         0.3000 
    201 H201       -1.2871  -27.3104  -48.5210 H         1 UNK         0.0600 
    202 H202       -1.4466  -25.4604  -50.1738 H         1 UNK         0.0600 
    203 H203       -1.7647  -24.3034  -48.8845 H         1 UNK         0.0600 
    204 H204       -0.2017  -25.1102  -48.9898 H         1 UNK         0.0600 
    205 H205       -3.7564  -26.0344  -46.5847 H         1 UNK         0.3000 
    206 H206       -5.9638  -25.9986  -46.5468 H         1 UNK         0.0600 
    207 H207       -5.7299  -28.4631  -46.9020 H         1 UNK         0.0600 
    208 H208       -7.2241  -27.8477  -47.5896 H         1 UNK         0.0600 
    209 H209       -5.8715  -28.2335  -48.6443 H         1 UNK         0.0600 
    210 H210       -4.8390  -24.0185  -47.9552 H         1 UNK         0.3000 
    211 H211       -5.2130  -22.2677  -49.1886 H         1 UNK         0.0600 
    212 H212       -7.4392  -21.6613  -50.0027 H         1 UNK         0.0600 
    213 H213       -7.5914  -22.4014  -48.4185 H         1 UNK         0.0600 
    214 H214       -8.0046  -23.3180  -49.8682 H         1 UNK         0.0600 
    215 H215       -4.5653  -25.1415  -50.5632 H         1 UNK         0.3000 
    216 H216       -4.9683  -24.6316  -53.3426 H         1 UNK         0.0600 
    217 H217       -2.8193  -26.3683  -52.0248 H         1 UNK         0.0600 
    218 H218       -3.3742  -26.4659  -53.6881 H         1 UNK         0.0600 
    219 H219       -4.4658  -26.8943  -52.3793 H         1 UNK         0.0600 
    220 H220       -2.5559  -23.4637  -51.0798 H         1 UNK         0.3000 
    221 H221       -0.5922  -22.5333  -52.9381 H         1 UNK         0.0600 
    222 H222       -0.0728  -22.7712  -50.5447 H         1 UNK         0.0600 
    223 H223       -1.3002  -21.5832  -50.1165 H         1 UNK         0.0600 
    224 H224        0.1287  -21.0888  -51.0109 H         1 UNK         0.0600 
    225 H225       -3.5564  -21.0183  -51.5765 H         1 UNK         0.3000 
    226 H226       -3.1960  -18.4637  -52.7993 H         1 UNK         0.0600 
    227 H227       -5.7799  -19.8314  -51.8639 H         1 UNK         0.0600 
    228 H228       -4.7248  -18.8487  -50.8535 H         1 UNK         0.0600 
    229 H229       -5.5775  -18.1184  -52.2001 H         1 UNK         0.0600 
    230 H230       -4.7077  -21.4811  -53.8931 H         1 UNK         0.3000 
    231 H231       -5.8113  -20.4418  -56.3427 H         1 UNK         0.0600 
    232 H232       -6.0911  -22.8271  -56.9337 H         1 UNK         0.0600 
    233 H233       -6.6350  -22.5415  -55.2873 H         1 UNK         0.0600 
    234 H234       -5.0827  -23.3206  -55.5830 H         1 UNK         0.0600 
    235 H235       -2.7530  -22.1727  -55.5405 H         1 UNK         0.3000 
    236 H236       -1.6322  -22.2110  -58.1226 H         1 UNK         0.0600 
    237 H237       -0.8091  -23.5948  -56.2345 H         1 UNK         0.0600 
    238 H238        0.5045  -22.6466  -56.9154 H         1 UNK         0.0600 
    239 H239       -0.2338  -22.1544  -55.3973 H         1 UNK         0.0600 
    240 H240       -1.4717  -19.6802  -55.6090 H         1 UNK         0.3000 
    241 H241        0.1857  -17.8734  -57.1128 H         1 UNK         0.0600 
    242 H242       -3.4169  -17.2873  -58.7808 H         1 UNK         0.3800 
    243 H243       -3.0413  -18.7688  -57.9416 H         1 UNK         0.3800 
    244 H244       -1.6663  -17.4015  -54.7340 H         1 UNK         0.0800 
    245 H245       -0.6314  -16.1640  -55.4101 H         1 UNK         0.0800 
    246 H246        1.5749  -16.6762  -52.3426 H         1 UNK         0.0800 
    247 H247        0.7232  -15.5600  -53.3737 H         1 UNK         0.0800 
@<TRIPOS>BOND
     1    1    2 1    
     2    1  127 1    
     3    1  128 1    
     4    1  129 1    
     5    2    3 2    
     6    2    4 am   BACKBONE|DICT|INTERRES
     7    4    5 1    
     8    4  130 1    
     9    5    6 1    
    10    5   65 1    
    11    5  131 1    
    12    6    7 1    
    13    6  132 1    
    14    6  133 1    
    15    7    8 1    
    16    8    9 1    
    17    8  134 1    
    18    8  135 1    
    19    9   10 ar   
    20    9   14 ar   
    21   10   11 ar   
    22   10  136 1    
    23   11   12 ar   
    24   11  126 1    
    25   12   13 ar   
    26   12  137 1    
    27   13   14 ar   
    28   13   15 1    
    29   14  138 1    
    30   15   16 1    
    31   15  139 1    
    32   15  140 1    
    33   16   17 1    
    34   17   18 1    
    35   17  141 1    
    36   17  142 1    
    37   18   19 1    
    38   18   67 1    
    39   18  143 1    
    40   19   20 am   BACKBONE|DICT|INTERRES
    41   19  144 1    
    42   20   21 2    
    43   20   22 1    
    44   22   23 1    
    45   22   24 1    
    46   22  145 1    
    47   23  146 1    
    48   23  147 1    
    49   23  148 1    
    50   24   25 am   BACKBONE|DICT|INTERRES
    51   24  149 1    
    52   25   26 2    
    53   25   27 1    
    54   27   28 1    
    55   27   29 1    
    56   27  150 1    
    57   28  151 1    
    58   28  152 1    
    59   28  153 1    
    60   29   30 am   BACKBONE|DICT|INTERRES
    61   29  154 1    
    62   30   31 2    
    63   30   32 1    
    64   32   33 1    
    65   32   34 1    
    66   32  155 1    
    67   33  156 1    
    68   33  157 1    
    69   33  158 1    
    70   34   35 am   BACKBONE|DICT|INTERRES
    71   34  159 1    
    72   35   36 2    
    73   35   37 1    
    74   37   38 1    
    75   37   39 1    
    76   37  160 1    
    77   38  161 1    
    78   38  162 1    
    79   38  163 1    
    80   39   40 am   BACKBONE|DICT|INTERRES
    81   39  164 1    
    82   40   41 2    
    83   40   42 1    
    84   42   43 1    
    85   42   44 1    
    86   42  165 1    
    87   43  166 1    
    88   43  167 1    
    89   43  168 1    
    90   44   45 am   BACKBONE|DICT|INTERRES
    91   44  169 1    
    92   45   46 2    
    93   45   47 1    
    94   47   48 1    
    95   47   49 1    
    96   47  170 1    
    97   48  171 1    
    98   48  172 1    
    99   48  173 1    
   100   49   50 am   BACKBONE|DICT|INTERRES
   101   49  174 1    
   102   50   51 2    
   103   50   52 1    
   104   52   53 1    
   105   52   54 1    
   106   52  175 1    
   107   53  176 1    
   108   53  177 1    
   109   53  178 1    
   110   54   55 am   BACKBONE|DICT|INTERRES
   111   54  179 1    
   112   55   56 2    
   113   55   57 1    
   114   57   58 1    
   115   57   59 1    
   116   57  180 1    
   117   58  181 1    
   118   58  182 1    
   119   58  183 1    
   120   59   60 am   BACKBONE|DICT|INTERRES
   121   59  184 1    
   122   60   61 2    
   123   60   62 1    
   124   62   63 1    
   125   62   64 1    
   126   62  185 1    
   127   63  186 1    
   128   63  187 1    
   129   63  188 1    
   130   64   65 am   BACKBONE|DICT|INTERRES
   131   64  189 1    
   132   65   66 2    
   133   67   68 2    
   134   67   69 am   BACKBONE|DICT|INTERRES
   135   69   70 1    
   136   69  190 1    
   137   70   71 1    
   138   70   72 1    
   139   70  191 1    
   140   71  192 1    
   141   71  193 1    
   142   71  194 1    
   143   72   73 2    
   144   72   74 am   BACKBONE|DICT|INTERRES
   145   74   75 1    
   146   74  195 1    
   147   75   76 1    
   148   75   77 1    
   149   75  196 1    
   150   76  197 1    
   151   76  198 1    
   152   76  199 1    
   153   77   78 2    
   154   77   79 am   BACKBONE|DICT|INTERRES
   155   79   80 1    
   156   79  200 1    
   157   80   81 1    
   158   80   82 1    
   159   80  201 1    
   160   81  202 1    
   161   81  203 1    
   162   81  204 1    
   163   82   83 2    
   164   82   84 am   BACKBONE|DICT|INTERRES
   165   84   85 1    
   166   84  205 1    
   167   85   86 1    
   168   85   87 1    
   169   85  206 1    
   170   86  207 1    
   171   86  208 1    
   172   86  209 1    
   173   87   88 2    
   174   87   89 am   BACKBONE|DICT|INTERRES
   175   89   90 1    
   176   89  210 1    
   177   90   91 1    
   178   90   92 1    
   179   90  211 1    
   180   91  212 1    
   181   91  213 1    
   182   91  214 1    
   183   92   93 2    
   184   92   94 am   BACKBONE|DICT|INTERRES
   185   94   95 1    
   186   94  215 1    
   187   95   96 1    
   188   95   97 1    
   189   95  216 1    
   190   96  217 1    
   191   96  218 1    
   192   96  219 1    
   193   97   98 2    
   194   97   99 am   BACKBONE|DICT|INTERRES
   195   99  100 1    
   196   99  220 1    
   197  100  101 1    
   198  100  102 1    
   199  100  221 1    
   200  101  222 1    
   201  101  223 1    
   202  101  224 1    
   203  102  103 2    
   204  102  104 am   BACKBONE|DICT|INTERRES
   205  104  105 1    
   206  104  225 1    
   207  105  106 1    
   208  105  107 1    
   209  105  226 1    
   210  106  227 1    
   211  106  228 1    
   212  106  229 1    
   213  107  108 2    
   214  107  109 am   BACKBONE|DICT|INTERRES
   215  109  110 1    
   216  109  230 1    
   217  110  111 1    
   218  110  112 1    
   219  110  231 1    
   220  111  232 1    
   221  111  233 1    
   222  111  234 1    
   223  112  113 2    
   224  112  114 am   BACKBONE|DICT|INTERRES
   225  114  115 1    
   226  114  235 1    
   227  115  116 1    
   228  115  117 1    
   229  115  236 1    
   230  116  237 1    
   231  116  238 1    
   232  116  239 1    
   233  117  118 2    
   234  117  119 am   BACKBONE|DICT|INTERRES
   235  119  120 1    
   236  119  240 1    
   237  120  121 1    
   238  120  124 1    
   239  120  241 1    
   240  121  122 am   BACKBONE|DICT|INTERRES
   241  121  123 2    
   242  122  242 1    
   243  122  243 1    
   244  124  125 1    
   245  124  244 1    
   246  124  245 1    
   247  125  126 1    
   248  126  246 1    
   249  126  247 1    
@<TRIPOS>SUBSTRUCTURE
     1 UNK         1 GROUP             0       ****    0 ROOT    
