@<TRIPOS>MOLECULE
3R540
247   249    1
SMALL
USER_CHARGES


@<TRIPOS>ATOM
      1 CA         -1.6230  -14.3721  -52.8589 C.3       0 UNK        -0.1800 
      2 C          -0.6563  -14.0483  -51.7293 C.2       0 UNK         0.5000 
      3 O           0.0231  -13.0225  -51.7791 O.2       0 UNK        -0.5000 
      4 N          -0.5839  -14.9226  -50.7183 N.am      1 UNK        -0.5000 
      5 CA          0.2466  -14.7503  -49.5217 C.3       1 UNK         0.1400 
      6 C6          0.4284  -16.0654  -48.7218 C.3       23 UNK        -0.0398 
      7 S7         -1.1311  -16.9203  -48.2984 S.3       23 UNK        -0.2404 
      8 C8         -0.5575  -18.5956  -47.8652 C.3       23 UNK        -0.0205 
      9 C9          0.2059  -19.3188  -48.9672 C.ar      23 UNK        -0.0193 
     10 C10        -0.1852  -19.2217  -50.3057 C.ar      23 UNK        -0.1150 
     11 C11         0.5468  -19.8618  -51.3060 C.ar      23 UNK        -0.0193 
     12 C12         1.6614  -20.6302  -50.9561 C.ar      23 UNK        -0.1150 
     13 C13         2.0638  -20.7522  -49.6210 C.ar      23 UNK        -0.0193 
     14 C14         1.3203  -20.0941  -48.6319 C.ar      23 UNK        -0.1150 
     15 C15         3.3239  -21.5709  -49.3193 C.3       23 UNK        -0.0205 
     16 S16         3.9181  -21.5501  -47.5869 S.3       23 UNK        -0.2404 
     17 C17         3.0274  -22.9681  -46.8621 C.3       23 UNK        -0.0398 
     18 CA          3.7897  -23.5670  -45.6504 C.3       11 UNK         0.1400 
     19 N           3.7186  -22.6954  -44.4716 N.am      11 UNK        -0.5000 
     20 C           4.4718  -22.8249  -43.3706 C.2       10 UNK         0.5000 
     21 O           5.3764  -23.6526  -43.2541 O.2       10 UNK        -0.5000 
     22 CA          4.1382  -21.8957  -42.1877 C.3       10 UNK         0.1400 
     23 CB          4.7599  -20.5049  -42.3860 C.3       10 UNK        -0.1800 
     24 N           2.6961  -21.7685  -41.9621 N.am      10 UNK        -0.5000 
     25 C           1.9126  -22.7536  -41.4980 C.2       9 UNK         0.5000 
     26 O           2.3324  -23.8634  -41.1705 O.2       9 UNK        -0.5000 
     27 CA          0.4013  -22.4663  -41.4052 C.3       9 UNK         0.1400 
     28 CB          0.0627  -21.7588  -40.0846 C.3       9 UNK        -0.1800 
     29 N          -0.1008  -21.6722  -42.5261 N.am      9 UNK        -0.5000 
     30 C          -0.1178  -22.0806  -43.8031 C.2       8 UNK         0.5000 
     31 O           0.2367  -23.2024  -44.1623 O.2       8 UNK        -0.5000 
     32 CA         -0.5331  -21.0355  -44.8560 C.3       8 UNK         0.1400 
     33 CB         -2.0624  -20.9238  -44.9463 C.3       8 UNK        -0.1800 
     34 N           0.0503  -19.7194  -44.5818 N.am      8 UNK        -0.5000 
     35 C           1.3684  -19.4726  -44.5648 C.2       7 UNK         0.5000 
     36 O           2.2203  -20.3211  -44.8172 O.2       7 UNK        -0.5000 
     37 CA          1.8186  -18.0623  -44.1533 C.3       7 UNK         0.1400 
     38 CB          1.8470  -17.1084  -45.3560 C.3       7 UNK        -0.1800 
     39 N           0.9812  -17.5160  -43.0865 N.am      7 UNK        -0.5000 
     40 C           1.0386  -17.9317  -41.8132 C.2       6 UNK         0.5000 
     41 O           1.8578  -18.7533  -41.4010 O.2       6 UNK        -0.5000 
     42 CA         -0.0289  -17.3770  -40.8526 C.3       6 UNK         0.1400 
     43 CB          0.4104  -16.0310  -40.2599 C.3       6 UNK        -0.1800 
     44 N          -1.3353  -17.2310  -41.4978 N.am      6 UNK        -0.5000 
     45 C          -2.1006  -18.2700  -41.8638 C.2       5 UNK         0.5000 
     46 O          -1.7899  -19.4436  -41.6631 O.2       5 UNK        -0.5000 
     47 CA         -3.4113  -17.9615  -42.6137 C.3       5 UNK         0.1400 
     48 CB         -4.5832  -17.8499  -41.6281 C.3       5 UNK        -0.1800 
     49 N          -3.3647  -16.7547  -43.4400 N.am      5 UNK        -0.5000 
     50 C          -2.5100  -16.5353  -44.4479 C.2       4 UNK         0.5000 
     51 O          -1.6225  -17.3260  -44.7693 O.2       4 UNK        -0.5000 
     52 CA         -2.6578  -15.2086  -45.2211 C.3       4 UNK         0.1400 
     53 CB         -3.9191  -14.3953  -44.8555 C.3       4 UNK        -0.1800 
     54 N          -1.4727  -14.3588  -45.1121 N.am      4 UNK        -0.5000 
     55 C          -0.8743  -13.9311  -43.9890 C.2       3 UNK         0.5000 
     56 O          -1.2170  -14.2782  -42.8575 O.2       3 UNK        -0.5000 
     57 CA          0.3047  -12.9475  -44.1469 C.3       3 UNK         0.1400 
     58 CB          1.5969  -13.5248  -43.5504 C.3       3 UNK        -0.1800 
     59 N           0.5499  -12.5648  -45.5413 N.am      3 UNK        -0.5000 
     60 C          -0.0916  -11.5752  -46.1782 C.2       2 UNK         0.5000 
     61 O          -0.9364  -10.8540  -45.6470 O.2       2 UNK        -0.5000 
     62 CA          0.2556  -11.3666  -47.6641 C.3       2 UNK         0.1400 
     63 CB          1.4154  -10.3696  -47.8096 C.3       2 UNK        -0.1800 
     64 N           0.5927  -12.6031  -48.3772 N.am      2 UNK        -0.5000 
     65 C          -0.2739  -13.5909  -48.6423 C.2       1 UNK         0.5000 
     66 O          -1.4339  -13.6066  -48.2251 O.2       1 UNK        -0.5000 
     67 C           3.2803  -24.9937  -45.3517 C.2       11 UNK         0.5000 
     68 O           3.7366  -25.9386  -45.9967 O.2       11 UNK        -0.5000 
     69 N           2.3360  -25.1138  -44.4055 N.am      12 UNK        -0.5000 
     70 CA          1.5574  -26.3087  -44.0619 C.3       12 UNK         0.1400 
     71 CB          2.4562  -27.4034  -43.4511 C.3       12 UNK        -0.1800 
     72 C           0.7155  -26.7982  -45.2599 C.2       12 UNK         0.5000 
     73 O           0.5877  -28.0028  -45.4878 O.2       12 UNK        -0.5000 
     74 N           0.1840  -25.8365  -46.0221 N.am      13 UNK        -0.5000 
     75 CA         -0.4983  -26.0059  -47.2986 C.3       13 UNK         0.1400 
     76 CB          0.5171  -26.4163  -48.3861 C.3       13 UNK        -0.1800 
     77 C          -1.1831  -24.6794  -47.6615 C.2       13 UNK         0.5000 
     78 O          -0.9814  -23.6776  -46.9717 O.2       13 UNK        -0.5000 
     79 N          -1.9602  -24.6955  -48.7515 N.am      14 UNK        -0.5000 
     80 CA         -2.7354  -23.5710  -49.2828 C.3       14 UNK         0.1400 
     81 CB         -1.8080  -22.4062  -49.7047 C.3       14 UNK        -0.1800 
     82 C          -3.8842  -23.1658  -48.3315 C.2       14 UNK         0.5000 
     83 O          -4.5067  -24.0413  -47.7254 O.2       14 UNK        -0.5000 
     84 N          -4.1745  -21.8658  -48.2473 N.am      15 UNK        -0.5000 
     85 CA         -5.2556  -21.2534  -47.4817 C.3       15 UNK         0.1400 
     86 CB         -6.6066  -21.5052  -48.1836 C.3       15 UNK        -0.1800 
     87 C          -4.9512  -19.7515  -47.3586 C.2       15 UNK         0.5000 
     88 O          -3.9019  -19.3064  -47.8261 O.2       15 UNK        -0.5000 
     89 N          -5.8668  -18.9860  -46.7512 N.am      16 UNK        -0.5000 
     90 CA         -5.7891  -17.5272  -46.6576 C.3       16 UNK         0.1400 
     91 CB         -6.9568  -17.0107  -45.8029 C.3       16 UNK        -0.1800 
     92 C          -5.7790  -16.8692  -48.0530 C.2       16 UNK         0.5000 
     93 O          -6.7552  -17.0029  -48.7947 O.2       16 UNK        -0.5000 
     94 N          -4.6570  -16.2181  -48.3889 N.am      17 UNK        -0.5000 
     95 CA         -4.2808  -15.6407  -49.6842 C.3       17 UNK         0.1400 
     96 CB         -5.2777  -14.5699  -50.1684 C.3       17 UNK        -0.1800 
     97 C          -4.0142  -16.7163  -50.7529 C.2       17 UNK         0.5000 
     98 O          -2.8921  -16.8019  -51.2497 O.2       17 UNK        -0.5000 
     99 N          -5.0418  -17.5180  -51.0683 N.am      18 UNK        -0.5000 
    100 CA        -5.0251  -18.6917  -51.9507 C.3       18 UNK         0.1400 
    101 CB        -4.1963  -19.8216  -51.3125 C.3       18 UNK        -0.1800 
    102 C         -4.5942  -18.4106  -53.4055 C.2       18 UNK         0.5000 
    103 O         -4.1564  -19.3302  -54.0972 O.2       18 UNK        -0.5000 
    104 N         -4.7602  -17.1641  -53.8696 N.am      19 UNK        -0.5000 
    105 CA        -4.3209  -16.6842  -55.1851 C.3       19 UNK         0.1400 
    106 CB        -4.6100  -15.1787  -55.2868 C.3       19 UNK        -0.1800 
    107 C         -4.9410  -17.4313  -56.3842 C.2       19 UNK         0.5000 
    108 O         -4.3060  -17.5213  -57.4348 O.2       19 UNK        -0.5000 
    109 N         -6.1600  -17.9558  -56.2031 N.am      20 UNK        -0.5000 
    110 CA        -6.8748  -18.7591  -57.1955 C.3       20 UNK         0.1400 
    111 CB        -8.3848  -18.5621  -56.9860 C.3       20 UNK        -0.1800 
    112 C         -6.5196  -20.2589  -57.1323 C.2       20 UNK         0.5000 
    113 O         -6.7922  -20.9753  -58.0968 O.2       20 UNK        -0.5000 
    114 N         -5.9546  -20.7176  -56.0069 N.am      21 UNK        -0.5000 
    115 CA        -5.6103  -22.1188  -55.7622 C.3       21 UNK         0.1400 
    116 CB        -5.9136  -22.4686  -54.2966 C.3       21 UNK        -0.1800 
    117 C         -4.1379  -22.4028  -56.0977 C.2       21 UNK         0.5000 
    118 O         -3.8454  -23.4212  -56.7262 O.2       21 UNK        -0.5000 
    119 N         -3.2426  -21.5010  -55.6785 N.am      22 UNK        -0.5000 
    120 CA        -1.8062  -21.5327  -55.9813 C.3       22 UNK         0.1400 
    121 C         -1.5104  -21.3102  -57.4919 C.2       22 UNK         0.5000 
    122 N         -0.4868  -21.9599  -58.0296 N.am      22 UNK        -0.7600 
    123 O         -2.1691  -20.5260  -58.1711 O.2       22 UNK        -0.5000 
    124 C124       -1.0302  -20.5041  -55.1225 C.3       23 UNK        -0.0398 
    125 S125       -1.0011  -20.9351  -53.3494 S.3       23 UNK        -0.2404 
    126 C126        0.1686  -19.6718  -52.7664 C.3       23 UNK        -0.0205 
    127 H127       -2.6446  -14.1493  -52.5520 H         1 UNK         0.0600 
    128 H128       -1.5647  -15.4257  -53.1332 H         1 UNK         0.0600 
    129 H129       -1.3948  -13.7813  -53.7460 H         1 UNK         0.0600 
    130 H130       -1.1974  -15.7318  -50.7197 H         1 UNK         0.3000 
    131 H131        1.2417  -14.4690  -49.8737 H         1 UNK         0.0600 
    132 H132        0.9925  -15.8813  -47.8079 H         1 UNK         0.0800 
    133 H133        1.0443  -16.7441  -49.3121 H         1 UNK         0.0800 
    134 H134        0.0607  -18.5089  -46.9773 H         1 UNK         0.0800 
    135 H135       -1.4113  -19.2064  -47.5821 H         1 UNK         0.0800 
    136 H136       -1.0457  -18.6256  -50.5735 H         1 UNK         0.1150 
    137 H137        2.2323  -21.1200  -51.7326 H         1 UNK         0.1150 
    138 H138        1.6079  -20.1664  -47.5938 H         1 UNK         0.1150 
    139 H139        3.1699  -22.5997  -49.6465 H         1 UNK         0.0800 
    140 H140        4.1319  -21.1783  -49.9382 H         1 UNK         0.0800 
    141 H141        2.0212  -22.6546  -46.5772 H         1 UNK         0.0800 
    142 H142        2.9018  -23.7199  -47.6434 H         1 UNK         0.0800 
    143 H143        4.8421  -23.6678  -45.9248 H         1 UNK         0.0600 
    144 H144        3.0536  -21.9256  -44.5210 H         1 UNK         0.3000 
    145 H145        4.5792  -22.3319  -41.2889 H         1 UNK         0.0600 
    146 H146        4.5505  -19.8537  -41.5372 H         1 UNK         0.0600 
    147 H147        4.3839  -20.0160  -43.2841 H         1 UNK         0.0600 
    148 H148        5.8439  -20.5751  -42.4834 H         1 UNK         0.0600 
    149 H149        2.2774  -20.8736  -42.1803 H         1 UNK         0.3000 
    150 H150       -0.1189  -23.4263  -41.4188 H         1 UNK         0.0600 
    151 H151        0.4120  -22.3383  -39.2292 H         1 UNK         0.0600 
    152 H152       -1.0139  -21.6297  -39.9722 H         1 UNK         0.0600 
    153 H153        0.5249  -20.7730  -40.0256 H         1 UNK         0.0600 
    154 H154       -0.4706  -20.7532  -42.3024 H         1 UNK         0.3000 
    155 H155       -0.1575  -21.3624  -45.8277 H         1 UNK         0.0600 
    156 H156       -2.4910  -21.8445  -45.3441 H         1 UNK         0.0600 
    157 H157       -2.3663  -20.1117  -45.6055 H         1 UNK         0.0600 
    158 H158       -2.5133  -20.7505  -43.9702 H         1 UNK         0.0600 
    159 H159       -0.5924  -18.9485  -44.4260 H         1 UNK         0.3000 
    160 H160        2.8420  -18.1494  -43.7826 H         1 UNK         0.0600 
    161 H161        0.8547  -16.7262  -45.5941 H         1 UNK         0.0600 
    162 H162        2.2379  -17.6041  -46.2460 H         1 UNK         0.0600 
    163 H163        2.5001  -16.2596  -45.1634 H         1 UNK         0.0600 
    164 H164        0.2283  -16.9019  -43.3644 H         1 UNK         0.3000 
    165 H165       -0.1326  -18.0874  -40.0294 H         1 UNK         0.0600 
    166 H166       -0.3115  -15.6683  -39.5281 H         1 UNK         0.0600 
    167 H167        1.3712  -16.1233  -39.7518 H         1 UNK         0.0600 
    168 H168        0.5182  -15.2682  -41.0296 H         1 UNK         0.0600 
    169 H169       -1.6299  -16.2918  -41.7355 H         1 UNK         0.3000 
    170 H170       -3.6123  -18.8006  -43.2812 H         1 UNK         0.0600 
    171 H171       -4.6636  -18.7477  -41.0136 H         1 UNK         0.0600 
    172 H172       -4.4627  -17.0004  -40.9546 H         1 UNK         0.0600 
    173 H173       -5.5313  -17.7320  -42.1534 H         1 UNK         0.0600 
    174 H174       -4.0333  -16.0328  -43.2149 H         1 UNK         0.3000 
    175 H175       -2.7390  -15.4804  -46.2726 H         1 UNK         0.0600 
    176 H176       -4.0151  -13.5238  -45.5036 H         1 UNK         0.0600 
    177 H177       -4.8270  -14.9842  -44.9818 H         1 UNK         0.0600 
    178 H178       -3.8928  -14.0348  -43.8264 H         1 UNK         0.0600 
    179 H179       -1.1157  -14.0175  -45.9946 H         1 UNK         0.3000 
    180 H180        0.0507  -12.0535  -43.5734 H         1 UNK         0.0600 
    181 H181        1.4893  -13.6976  -42.4797 H         1 UNK         0.0600 
    182 H182        2.4341  -12.8389  -43.6806 H         1 UNK         0.0600 
    183 H183        1.8645  -14.4734  -44.0096 H         1 UNK         0.0600 
    184 H184        1.2356  -13.1030  -46.0504 H         1 UNK         0.3000 
    185 H185       -0.6241  -10.9344  -48.1462 H         1 UNK         0.0600 
    186 H186        1.6099  -10.1407  -48.8576 H         1 UNK         0.0600 
    187 H187        1.1858   -9.4272  -47.3104 H         1 UNK         0.0600 
    188 H188        2.3370  -10.7563  -47.3727 H         1 UNK         0.0600 
    189 H189        1.5240  -12.6521  -48.7650 H         1 UNK         0.3000 
    190 H190        1.9817  -24.2555  -43.9983 H         1 UNK         0.3000 
    191 H191        0.8471  -25.9978  -43.2945 H         1 UNK         0.0600 
    192 H192        1.8569  -28.2310  -43.0702 H         1 UNK         0.0600 
    193 H193        3.0375  -27.0123  -42.6159 H         1 UNK         0.0600 
    194 H194        3.1525  -27.8146  -44.1821 H         1 UNK         0.0600 
    195 H195        0.2516  -24.8681  -45.7204 H         1 UNK         0.3000 
    196 H196       -1.2663  -26.7746  -47.1932 H         1 UNK         0.0600 
    197 H197        0.0337  -26.5474  -49.3546 H         1 UNK         0.0600 
    198 H198        1.0036  -27.3614  -48.1453 H         1 UNK         0.0600 
    199 H199        1.2969  -25.6633  -48.5071 H         1 UNK         0.0600 
    200 H200       -2.0879  -25.5726  -49.2357 H         1 UNK         0.3000 
    201 H201       -3.2168  -23.9428  -50.1882 H         1 UNK         0.0600 
    202 H202       -1.3889  -21.8796  -48.8466 H         1 UNK         0.0600 
    203 H203       -2.3400  -21.6749  -50.3109 H         1 UNK         0.0600 
    204 H204       -0.9741  -22.7639  -50.3090 H         1 UNK         0.0600 
    205 H205       -3.5733  -21.1865  -48.6991 H         1 UNK         0.3000 
    206 H206       -5.2700  -21.6813  -46.4775 H         1 UNK         0.0600 
    207 H207       -6.8035  -22.5706  -48.3017 H         1 UNK         0.0600 
    208 H208       -7.4375  -21.0936  -47.6101 H         1 UNK         0.0600 
    209 H209       -6.6336  -21.0506  -49.1746 H         1 UNK         0.0600 
    210 H210       -6.7170  -19.4116  -46.4128 H         1 UNK         0.3000 
    211 H211       -4.8595  -17.2796  -46.1436 H         1 UNK         0.0600 
    212 H212       -7.9211  -17.3032  -46.2205 H         1 UNK         0.0600 
    213 H213       -6.9468  -15.9221  -45.7403 H         1 UNK         0.0600 
    214 H214       -6.9003  -17.3959  -44.7845 H         1 UNK         0.0600 
    215 H215       -3.8864  -16.2699  -47.7395 H         1 UNK         0.3000 
    216 H216       -3.3322  -15.1312  -49.5108 H         1 UNK         0.0600 
    217 H217       -4.9142  -14.0888  -51.0772 H         1 UNK         0.0600 
    218 H218       -5.4073  -13.7895  -49.4187 H         1 UNK         0.0600 
    219 H219       -6.2603  -14.9844  -50.3931 H         1 UNK         0.0600 
    220 H220       -5.9023  -17.3677  -50.5499 H         1 UNK         0.3000 
    221 H221       -6.0573  -19.0386  -52.0114 H         1 UNK         0.0600 
    222 H222       -4.2348  -20.7374  -51.9012 H         1 UNK         0.0600 
    223 H223       -3.1473  -19.5436  -51.2141 H         1 UNK         0.0600 
    224 H224       -4.5761  -20.0629  -50.3234 H         1 UNK         0.0600 
    225 H225       -5.1393  -16.4737  -53.2393 H         1 UNK         0.3000 
    226 H226       -3.2398  -16.8291  -55.2378 H         1 UNK         0.0600 
    227 H227       -4.1059  -14.6232  -54.4968 H         1 UNK         0.0600 
    228 H228       -4.2595  -14.7766  -56.2384 H         1 UNK         0.0600 
    229 H229       -5.6780  -14.9693  -55.2153 H         1 UNK         0.0600 
    230 H230       -6.6142  -17.8187  -55.3123 H         1 UNK         0.3000 
    231 H231       -6.6248  -18.4040  -58.1976 H         1 UNK         0.0600 
    232 H232       -8.9589  -19.1195  -57.7274 H         1 UNK         0.0600 
    233 H233       -8.6629  -17.5126  -57.0846 H         1 UNK         0.0600 
    234 H234       -8.7030  -18.9035  -56.0002 H         1 UNK         0.0600 
    235 H235       -5.6652  -20.0537  -55.2998 H         1 UNK         0.3000 
    236 H236       -6.2263  -22.7678  -56.3884 H         1 UNK         0.0600 
    237 H237       -5.3324  -21.8576  -53.6072 H         1 UNK         0.0600 
    238 H238       -6.9688  -22.3207  -54.0669 H         1 UNK         0.0600 
    239 H239       -5.6778  -23.5129  -54.0880 H         1 UNK         0.0600 
    240 H240       -3.5641  -20.6957  -55.1463 H         1 UNK         0.3000 
    241 H241       -1.4455  -22.5301  -55.7217 H         1 UNK         0.0600 
    242 H242       -0.2734  -21.8152  -59.0046 H         1 UNK         0.3800 
    243 H243        0.0736  -22.6043  -57.4929 H         1 UNK         0.3800 
    244 H244       -1.4587  -19.5067  -55.2385 H         1 UNK         0.0800 
    245 H245        0.0058  -20.4351  -55.4597 H         1 UNK         0.0800 
    246 H246       -0.2742  -18.6844  -52.9100 H         1 UNK         0.0800 
    247 H247        1.0695  -19.6964  -53.3813 H         1 UNK         0.0800 
@<TRIPOS>BOND
     1    1    2 1    
     2    1  127 1    
     3    1  128 1    
     4    1  129 1    
     5    2    3 2    
     6    2    4 am   BACKBONE|DICT|INTERRES
     7    4    5 1    
     8    4  130 1    
     9    5    6 1    
    10    5   65 1    
    11    5  131 1    
    12    6    7 1    
    13    6  132 1    
    14    6  133 1    
    15    7    8 1    
    16    8    9 1    
    17    8  134 1    
    18    8  135 1    
    19    9   10 ar   
    20    9   14 ar   
    21   10   11 ar   
    22   10  136 1    
    23   11   12 ar   
    24   11  126 1    
    25   12   13 ar   
    26   12  137 1    
    27   13   14 ar   
    28   13   15 1    
    29   14  138 1    
    30   15   16 1    
    31   15  139 1    
    32   15  140 1    
    33   16   17 1    
    34   17   18 1    
    35   17  141 1    
    36   17  142 1    
    37   18   19 1    
    38   18   67 1    
    39   18  143 1    
    40   19   20 am   BACKBONE|DICT|INTERRES
    41   19  144 1    
    42   20   21 2    
    43   20   22 1    
    44   22   23 1    
    45   22   24 1    
    46   22  145 1    
    47   23  146 1    
    48   23  147 1    
    49   23  148 1    
    50   24   25 am   BACKBONE|DICT|INTERRES
    51   24  149 1    
    52   25   26 2    
    53   25   27 1    
    54   27   28 1    
    55   27   29 1    
    56   27  150 1    
    57   28  151 1    
    58   28  152 1    
    59   28  153 1    
    60   29   30 am   BACKBONE|DICT|INTERRES
    61   29  154 1    
    62   30   31 2    
    63   30   32 1    
    64   32   33 1    
    65   32   34 1    
    66   32  155 1    
    67   33  156 1    
    68   33  157 1    
    69   33  158 1    
    70   34   35 am   BACKBONE|DICT|INTERRES
    71   34  159 1    
    72   35   36 2    
    73   35   37 1    
    74   37   38 1    
    75   37   39 1    
    76   37  160 1    
    77   38  161 1    
    78   38  162 1    
    79   38  163 1    
    80   39   40 am   BACKBONE|DICT|INTERRES
    81   39  164 1    
    82   40   41 2    
    83   40   42 1    
    84   42   43 1    
    85   42   44 1    
    86   42  165 1    
    87   43  166 1    
    88   43  167 1    
    89   43  168 1    
    90   44   45 am   BACKBONE|DICT|INTERRES
    91   44  169 1    
    92   45   46 2    
    93   45   47 1    
    94   47   48 1    
    95   47   49 1    
    96   47  170 1    
    97   48  171 1    
    98   48  172 1    
    99   48  173 1    
   100   49   50 am   BACKBONE|DICT|INTERRES
   101   49  174 1    
   102   50   51 2    
   103   50   52 1    
   104   52   53 1    
   105   52   54 1    
   106   52  175 1    
   107   53  176 1    
   108   53  177 1    
   109   53  178 1    
   110   54   55 am   BACKBONE|DICT|INTERRES
   111   54  179 1    
   112   55   56 2    
   113   55   57 1    
   114   57   58 1    
   115   57   59 1    
   116   57  180 1    
   117   58  181 1    
   118   58  182 1    
   119   58  183 1    
   120   59   60 am   BACKBONE|DICT|INTERRES
   121   59  184 1    
   122   60   61 2    
   123   60   62 1    
   124   62   63 1    
   125   62   64 1    
   126   62  185 1    
   127   63  186 1    
   128   63  187 1    
   129   63  188 1    
   130   64   65 am   BACKBONE|DICT|INTERRES
   131   64  189 1    
   132   65   66 2    
   133   67   68 2    
   134   67   69 am   BACKBONE|DICT|INTERRES
   135   69   70 1    
   136   69  190 1    
   137   70   71 1    
   138   70   72 1    
   139   70  191 1    
   140   71  192 1    
   141   71  193 1    
   142   71  194 1    
   143   72   73 2    
   144   72   74 am   BACKBONE|DICT|INTERRES
   145   74   75 1    
   146   74  195 1    
   147   75   76 1    
   148   75   77 1    
   149   75  196 1    
   150   76  197 1    
   151   76  198 1    
   152   76  199 1    
   153   77   78 2    
   154   77   79 am   BACKBONE|DICT|INTERRES
   155   79   80 1    
   156   79  200 1    
   157   80   81 1    
   158   80   82 1    
   159   80  201 1    
   160   81  202 1    
   161   81  203 1    
   162   81  204 1    
   163   82   83 2    
   164   82   84 am   BACKBONE|DICT|INTERRES
   165   84   85 1    
   166   84  205 1    
   167   85   86 1    
   168   85   87 1    
   169   85  206 1    
   170   86  207 1    
   171   86  208 1    
   172   86  209 1    
   173   87   88 2    
   174   87   89 am   BACKBONE|DICT|INTERRES
   175   89   90 1    
   176   89  210 1    
   177   90   91 1    
   178   90   92 1    
   179   90  211 1    
   180   91  212 1    
   181   91  213 1    
   182   91  214 1    
   183   92   93 2    
   184   92   94 am   BACKBONE|DICT|INTERRES
   185   94   95 1    
   186   94  215 1    
   187   95   96 1    
   188   95   97 1    
   189   95  216 1    
   190   96  217 1    
   191   96  218 1    
   192   96  219 1    
   193   97   98 2    
   194   97   99 am   BACKBONE|DICT|INTERRES
   195   99  100 1    
   196   99  220 1    
   197  100  101 1    
   198  100  102 1    
   199  100  221 1    
   200  101  222 1    
   201  101  223 1    
   202  101  224 1    
   203  102  103 2    
   204  102  104 am   BACKBONE|DICT|INTERRES
   205  104  105 1    
   206  104  225 1    
   207  105  106 1    
   208  105  107 1    
   209  105  226 1    
   210  106  227 1    
   211  106  228 1    
   212  106  229 1    
   213  107  108 2    
   214  107  109 am   BACKBONE|DICT|INTERRES
   215  109  110 1    
   216  109  230 1    
   217  110  111 1    
   218  110  112 1    
   219  110  231 1    
   220  111  232 1    
   221  111  233 1    
   222  111  234 1    
   223  112  113 2    
   224  112  114 am   BACKBONE|DICT|INTERRES
   225  114  115 1    
   226  114  235 1    
   227  115  116 1    
   228  115  117 1    
   229  115  236 1    
   230  116  237 1    
   231  116  238 1    
   232  116  239 1    
   233  117  118 2    
   234  117  119 am   BACKBONE|DICT|INTERRES
   235  119  120 1    
   236  119  240 1    
   237  120  121 1    
   238  120  124 1    
   239  120  241 1    
   240  121  122 am   BACKBONE|DICT|INTERRES
   241  121  123 2    
   242  122  242 1    
   243  122  243 1    
   244  124  125 1    
   245  124  244 1    
   246  124  245 1    
   247  125  126 1    
   248  126  246 1    
   249  126  247 1    
@<TRIPOS>SUBSTRUCTURE
     1 UNK         1 GROUP             0       ****    0 ROOT    
