@<TRIPOS>MOLECULE
3R540
247   249    1
SMALL
USER_CHARGES


@<TRIPOS>ATOM
      1 CA          4.8461  -14.7630  -47.4368 C.3       0 UNK        -0.1800 
      2 C           3.6068  -14.6370  -48.3112 C.2       0 UNK         0.5000 
      3 O           3.1695  -13.5216  -48.5939 O.2       0 UNK        -0.5000 
      4 N           3.0388  -15.7759  -48.7301 N.am      1 UNK        -0.5000 
      5 CA          1.8388  -15.9356  -49.5683 C.3       1 UNK         0.1400 
      6 C6          1.8671  -15.1777  -50.9284 C.3       23 UNK        -0.0398 
      7 S7          3.4039  -15.4185  -51.8892 S.3       23 UNK        -0.2404 
      8 C8          2.8684  -16.5529  -53.2168 C.3       23 UNK        -0.0205 
      9 C9          2.4568  -17.9452  -52.7422 C.ar      23 UNK        -0.0193 
     10 C10         1.4798  -18.6481  -53.4536 C.ar      23 UNK        -0.1150 
     11 C11         1.0894  -19.9314  -53.0578 C.ar      23 UNK        -0.0193 
     12 C12         1.6687  -20.5058  -51.9224 C.ar      23 UNK        -0.1150 
     13 C13         2.6334  -19.8073  -51.1905 C.ar      23 UNK        -0.0193 
     14 C14         3.0483  -18.5482  -51.6266 C.ar      23 UNK        -0.1150 
     15 C15         3.2152  -20.3915  -49.9128 C.3       23 UNK        -0.0205 
     16 S16         2.5875  -19.5322  -48.4291 S.3       23 UNK        -0.2404 
     17 C17         0.8243  -20.0066  -48.4553 C.3       23 UNK        -0.0398 
     18 CA          0.6045  -21.3526  -47.7313 C.3       11 UNK         0.1400 
     19 N           0.7198  -21.2372  -46.2760 N.am      11 UNK        -0.5000 
     20 C           0.8423  -22.2877  -45.4539 C.2       10 UNK         0.5000 
     21 O           0.8542  -23.4571  -45.8355 O.2       10 UNK        -0.5000 
     22 CA          0.9264  -21.9919  -43.9492 C.3       10 UNK         0.1400 
     23 CB          2.3044  -21.4211  -43.5823 C.3       10 UNK        -0.1800 
     24 N          -0.1317  -21.0928  -43.4908 N.am      10 UNK        -0.5000 
     25 C          -1.4427  -21.3668  -43.5646 C.2       9 UNK         0.5000 
     26 O          -1.9018  -22.4115  -44.0266 O.2       9 UNK        -0.5000 
     27 CA         -2.4102  -20.2798  -43.0685 C.3       9 UNK         0.1400 
     28 CB         -2.4825  -20.2767  -41.5343 C.3       9 UNK        -0.1800 
     29 N          -2.0624  -18.9436  -43.5494 N.am      9 UNK        -0.5000 
     30 C          -2.0306  -18.5843  -44.8411 C.2       8 UNK         0.5000 
     31 O          -2.2898  -19.3427  -45.7751 O.2       8 UNK        -0.5000 
     32 CA         -1.5821  -17.1447  -45.1413 C.3       8 UNK         0.1400 
     33 CB         -2.6542  -16.1309  -44.7042 C.3       8 UNK        -0.1800 
     34 N          -0.3121  -16.8167  -44.4993 N.am      8 UNK        -0.5000 
     35 C           0.8382  -17.4825  -44.6781 C.2       7 UNK         0.5000 
     36 O           0.9795  -18.4350  -45.4446 O.2       7 UNK        -0.5000 
     37 CA          2.0185  -17.0390  -43.8014 C.3       7 UNK         0.1400 
     38 CB          2.6684  -15.7698  -44.3718 C.3       7 UNK        -0.1800 
     39 N           1.6131  -16.8163  -42.4118 N.am      7 UNK        -0.5000 
     40 C           1.1979  -17.7854  -41.5817 C.2       6 UNK         0.5000 
     41 O           1.1278  -18.9732  -41.8932 O.2       6 UNK        -0.5000 
     42 CA          0.7455  -17.3478  -40.1781 C.3       6 UNK         0.1400 
     43 CB          1.9566  -17.0857  -39.2702 C.3       6 UNK        -0.1800 
     44 N          -0.1054  -16.1594  -40.2125 N.am      6 UNK        -0.5000 
     45 C          -1.3273  -16.1184  -40.7619 C.2       5 UNK         0.5000 
     46 O          -1.8833  -17.0888  -41.2750 O.2       5 UNK        -0.5000 
     47 CA         -2.0244  -14.7463  -40.7814 C.3       5 UNK         0.1400 
     48 CB         -2.7776  -14.5033  -39.4652 C.3       5 UNK        -0.1800 
     49 N          -1.1050  -13.6319  -41.0309 N.am      5 UNK        -0.5000 
     50 C          -0.3813  -13.4844  -42.1476 C.2       4 UNK         0.5000 
     51 O          -0.3674  -14.3037  -43.0698 O.2       4 UNK        -0.5000 
     52 CA          0.4961  -12.2286  -42.2427 C.3       4 UNK         0.1400 
     53 CB          1.9691  -12.5730  -41.9761 C.3       4 UNK        -0.1800 
     54 N           0.3673  -11.6646  -43.5809 N.am      4 UNK        -0.5000 
     55 C          -0.6123  -10.8408  -43.9650 C.2       3 UNK         0.5000 
     56 O          -1.4272  -10.3392  -43.1892 O.2       3 UNK        -0.5000 
     57 CA         -0.7257  -10.5512  -45.4725 C.3       3 UNK         0.1400 
     58 CB          0.4658   -9.7212  -45.9906 C.3       3 UNK        -0.1800 
     59 N          -0.9510  -11.7549  -46.2848 N.am      3 UNK        -0.5000 
     60 C          -0.1192  -12.7789  -46.5263 C.2       2 UNK         0.5000 
     61 O           1.0224  -12.8583  -46.0666 O.2       2 UNK        -0.5000 
     62 CA         -0.6463  -13.9009  -47.4402 C.3       2 UNK         0.1400 
     63 CB         -1.7858  -13.4563  -48.3846 C.3       2 UNK        -0.1800 
     64 N           0.4689  -14.4264  -48.2136 N.am      2 UNK        -0.5000 
     65 C           0.5432  -15.6281  -48.7917 C.2       1 UNK         0.5000 
     66 O          -0.3443  -16.4779  -48.7254 O.2       1 UNK        -0.5000 
     67 C          -0.7115  -22.0249  -48.1626 C.2       11 UNK         0.5000 
     68 O          -0.6771  -22.8726  -49.0557 O.2       11 UNK        -0.5000 
     69 N          -1.8281  -21.6922  -47.4962 N.am      12 UNK        -0.5000 
     70 CA         -3.1269  -22.3324  -47.7096 C.3       12 UNK         0.1400 
     71 CB         -4.2019  -21.6354  -46.8635 C.3       12 UNK        -0.1800 
     72 C          -3.0975  -23.8407  -47.4081 C.2       12 UNK         0.5000 
     73 O          -3.5971  -24.6249  -48.2147 O.2       12 UNK        -0.5000 
     74 N          -2.4825  -24.2184  -46.2783 N.am      13 UNK        -0.5000 
     75 CA         -2.2996  -25.6072  -45.8602 C.3       13 UNK         0.1400 
     76 CB         -1.8071  -25.6494  -44.4058 C.3       13 UNK        -0.1800 
     77 C          -1.3458  -26.3884  -46.7806 C.2       13 UNK         0.5000 
     78 O          -1.6607  -27.5204  -47.1480 O.2       13 UNK        -0.5000 
     79 N          -0.2126  -25.7725  -47.1481 N.am      14 UNK        -0.5000 
     80 CA          0.8149  -26.3618  -48.0097 C.3       14 UNK         0.1400 
     81 CB          2.0554  -25.4556  -48.0356 C.3       14 UNK        -0.1800 
     82 C           0.3204  -26.6358  -49.4397 C.2       14 UNK         0.5000 
     83 O           0.6098  -27.7002  -49.9879 O.2       14 UNK        -0.5000 
     84 N          -0.4276  -25.6826  -50.0103 N.am      15 UNK        -0.5000 
     85 CA         -1.0261  -25.8048  -51.3396 C.3       15 UNK         0.1400 
     86 CB         -1.3131  -24.3990  -51.8821 C.3       15 UNK        -0.1800 
     87 C          -2.3147  -26.6487  -51.3516 C.2       15 UNK         0.5000 
     88 O          -2.7332  -27.0777  -52.4274 O.2       15 UNK        -0.5000 
     89 N          -2.9287  -26.8407  -50.1730 N.am      16 UNK        -0.5000 
     90 CA         -4.2594  -27.4150  -49.9433 C.3       16 UNK         0.1400 
     91 CB         -4.2895  -28.9144  -50.3048 C.3       16 UNK        -0.1800 
     92 C          -5.3474  -26.5837  -50.6557 C.2       16 UNK         0.5000 
     93 O          -6.1685  -27.1240  -51.4000 O.2       16 UNK        -0.5000 
     94 N          -5.2851  -25.2649  -50.4440 N.am      17 UNK        -0.5000 
     95 CA         -6.0760  -24.2539  -51.1335 C.3       17 UNK         0.1400 
     96 CB         -5.3546  -23.8447  -52.4371 C.3       17 UNK        -0.1800 
     97 C          -6.3626  -23.0898  -50.1683 C.2       17 UNK         0.5000 
     98 O          -6.8485  -23.3294  -49.0617 O.2       17 UNK        -0.5000 
     99 N          -6.0738  -21.8573  -50.5967 N.am      18 UNK        -0.5000 
    100 CA        -6.2733  -20.6181  -49.8553 C.3       18 UNK         0.1400 
    101 CB        -7.6098  -19.9855  -50.2785 C.3       18 UNK        -0.1800 
    102 C         -5.1028  -19.6709  -50.1512 C.2       18 UNK         0.5000 
    103 O         -4.4060  -19.8483  -51.1515 O.2       18 UNK        -0.5000 
    104 N         -4.9277  -18.6604  -49.2929 N.am      19 UNK        -0.5000 
    105 CA        -3.8537  -17.6649  -49.3762 C.3       19 UNK         0.1400 
    106 CB        -3.8544  -16.8567  -48.0727 C.3       19 UNK        -0.1800 
    107 C         -3.9580  -16.7205  -50.5923 C.2       19 UNK         0.5000 
    108 O         -2.9585  -16.1167  -50.9833 O.2       19 UNK        -0.5000 
    109 N         -5.1582  -16.6096  -51.1786 N.am      20 UNK        -0.5000 
    110 CA        -5.4826  -15.7880  -52.3465 C.3       20 UNK         0.1400 
    111 CB        -7.0061  -15.5681  -52.3772 C.3       20 UNK        -0.1800 
    112 C         -4.9397  -16.3869  -53.6642 C.2       20 UNK         0.5000 
    113 O         -5.7140  -16.6924  -54.5720 O.2       20 UNK        -0.5000 
    114 N         -3.6116  -16.5515  -53.7295 N.am      21 UNK        -0.5000 
    115 CA        -2.8113  -17.0637  -54.8497 C.3       21 UNK         0.1400 
    116 CB        -2.9372  -16.1446  -56.0830 C.3       21 UNK        -0.1800 
    117 C         -3.0505  -18.5515  -55.1925 C.2       21 UNK         0.5000 
    118 O         -2.6347  -18.9979  -56.2636 O.2       21 UNK        -0.5000 
    119 N         -3.6592  -19.3013  -54.2649 N.am      22 UNK        -0.5000 
    120 CA        -3.8940  -20.7532  -54.3309 C.3       22 UNK         0.1400 
    121 C         -4.8623  -21.1871  -55.4765 C.2       22 UNK         0.5000 
    122 N         -4.8563  -22.4483  -55.8913 N.am      22 UNK        -0.7600 
    123 O         -5.6737  -20.4029  -55.9632 O.2       22 UNK        -0.5000 
    124 C124       -2.5749  -21.5789  -54.2692 C.3       23 UNK        -0.0398 
    125 S125       -1.4548  -21.0438  -52.9247 S.3       23 UNK        -0.2404 
    126 C126        0.0597  -20.7000  -53.8725 C.3       23 UNK        -0.0205 
    127 H127        5.0856  -15.8042  -47.2190 H         1 UNK         0.0600 
    128 H128        4.6907  -14.2447  -46.4905 H         1 UNK         0.0600 
    129 H129        5.7040  -14.3130  -47.9364 H         1 UNK         0.0600 
    130 H130        3.4479  -16.6508  -48.4334 H         1 UNK         0.3000 
    131 H131        1.7935  -16.9988  -49.7989 H         1 UNK         0.0600 
    132 H132        1.7505  -14.1042  -50.7729 H         1 UNK         0.0800 
    133 H133        1.0148  -15.4802  -51.5394 H         1 UNK         0.0800 
    134 H134        2.0506  -16.0820  -53.7646 H         1 UNK         0.0800 
    135 H135        3.6895  -16.6644  -53.9258 H         1 UNK         0.0800 
    136 H136        1.0302  -18.1984  -54.3279 H         1 UNK         0.1150 
    137 H137        1.3519  -21.4886  -51.6010 H         1 UNK         0.1150 
    138 H138        3.8108  -18.0266  -51.0662 H         1 UNK         0.1150 
    139 H139        2.9986  -21.4581  -49.8389 H         1 UNK         0.0800 
    140 H140        4.3021  -20.3020  -49.9391 H         1 UNK         0.0800 
    141 H141        0.4798  -20.0463  -49.4889 H         1 UNK         0.0800 
    142 H142        0.2387  -19.2161  -47.9822 H         1 UNK         0.0800 
    143 H143        1.3956  -22.0318  -48.0559 H         1 UNK         0.0600 
    144 H144        0.7299  -20.2942  -45.8941 H         1 UNK         0.3000 
    145 H145        0.8039  -22.9396  -43.4208 H         1 UNK         0.0600 
    146 H146        2.4150  -21.3246  -42.5023 H         1 UNK         0.0600 
    147 H147        3.1047  -22.0741  -43.9328 H         1 UNK         0.0600 
    148 H148        2.4644  -20.4375  -44.0250 H         1 UNK         0.0600 
    149 H149        0.1698  -20.2170  -43.0735 H         1 UNK         0.3000 
    150 H150       -3.4029  -20.5207  -43.4540 H         1 UNK         0.0600 
    151 H151       -2.7418  -21.2648  -41.1521 H         1 UNK         0.0600 
    152 H152       -3.2419  -19.5806  -41.1780 H         1 UNK         0.0600 
    153 H153       -1.5300  -19.9890  -41.0873 H         1 UNK         0.0600 
    154 H154       -1.8441  -18.2517  -42.8378 H         1 UNK         0.3000 
    155 H155       -1.4372  -17.0590  -46.2195 H         1 UNK         0.0600 
    156 H156       -2.8201  -16.1601  -43.6281 H         1 UNK         0.0600 
    157 H157       -3.6122  -16.3351  -45.1814 H         1 UNK         0.0600 
    158 H158       -2.3725  -15.1109  -44.9624 H         1 UNK         0.0600 
    159 H159       -0.3184  -16.0219  -43.8647 H         1 UNK         0.3000 
    160 H160        2.7639  -17.8371  -43.8123 H         1 UNK         0.0600 
    161 H161        1.9666  -14.9362  -44.4081 H         1 UNK         0.0600 
    162 H162        3.0166  -15.9423  -45.3904 H         1 UNK         0.0600 
    163 H163        3.5302  -15.4626  -43.7796 H         1 UNK         0.0600 
    164 H164        1.5863  -15.8599  -42.0932 H         1 UNK         0.3000 
    165 H165        0.1659  -18.1662  -39.7453 H         1 UNK         0.0600 
    166 H166        1.6428  -16.8554  -38.2520 H         1 UNK         0.0600 
    167 H167        2.6023  -17.9634  -39.2194 H         1 UNK         0.0600 
    168 H168        2.5617  -16.2533  -39.6316 H         1 UNK         0.0600 
    169 H169        0.2728  -15.3118  -39.8165 H         1 UNK         0.3000 
    170 H170       -2.7551  -14.7603  -41.5925 H         1 UNK         0.0600 
    171 H171       -3.4830  -15.3110  -39.2646 H         1 UNK         0.0600 
    172 H172       -2.0967  -14.4434  -38.6152 H         1 UNK         0.0600 
    173 H173       -3.3502  -13.5764  -39.5035 H         1 UNK         0.0600 
    174 H174       -1.0593  -12.9184  -40.3176 H         1 UNK         0.3000 
    175 H175        0.1710  -11.4973  -41.4996 H         1 UNK         0.0600 
    176 H176        2.0962  -13.0127  -40.9861 H         1 UNK         0.0600 
    177 H177        2.3582  -13.2833  -42.7053 H         1 UNK         0.0600 
    178 H178        2.5931  -11.6801  -42.0175 H         1 UNK         0.0600 
    179 H179        0.9058  -12.1123  -44.3181 H         1 UNK         0.3000 
    180 H180       -1.6197   -9.9395  -45.6046 H         1 UNK         0.0600 
    181 H181        1.4143  -10.2488  -45.8884 H         1 UNK         0.0600 
    182 H182        0.5552   -8.7859  -45.4368 H         1 UNK         0.0600 
    183 H183        0.3381   -9.4650  -47.0423 H         1 UNK         0.0600 
    184 H184       -1.8694  -11.8067  -46.7024 H         1 UNK         0.3000 
    185 H185       -1.0124  -14.6946  -46.7899 H         1 UNK         0.0600 
    186 H186       -2.0622  -14.2495  -49.0786 H         1 UNK         0.0600 
    187 H187       -2.6875  -13.1988  -47.8283 H         1 UNK         0.0600 
    188 H188       -1.4972  -12.5903  -48.9817 H         1 UNK         0.0600 
    189 H189        1.2966  -13.8339  -48.2391 H         1 UNK         0.3000 
    190 H190       -1.7917  -20.9698  -46.7822 H         1 UNK         0.3000 
    191 H191       -3.3887  -22.2089  -48.7627 H         1 UNK         0.0600 
    192 H192       -3.9679  -21.6792  -45.7995 H         1 UNK         0.0600 
    193 H193       -5.1759  -22.1056  -47.0037 H         1 UNK         0.0600 
    194 H194       -4.3010  -20.5859  -47.1386 H         1 UNK         0.0600 
    195 H195       -2.1224  -23.5060  -45.6492 H         1 UNK         0.3000 
    196 H196       -3.2742  -26.0983  -45.8998 H         1 UNK         0.0600 
    197 H197       -1.6685  -26.6772  -44.0684 H         1 UNK         0.0600 
    198 H198       -2.5261  -25.1806  -43.7338 H         1 UNK         0.0600 
    199 H199       -0.8542  -25.1320  -44.2878 H         1 UNK         0.0600 
    200 H200       -0.0040  -24.8544  -46.7624 H         1 UNK         0.3000 
    201 H201        1.1054  -27.3189  -47.5716 H         1 UNK         0.0600 
    202 H202        2.4791  -25.3392  -47.0381 H         1 UNK         0.0600 
    203 H203        1.8189  -24.4621  -48.4179 H         1 UNK         0.0600 
    204 H204        2.8352  -25.8762  -48.6717 H         1 UNK         0.0600 
    205 H205       -0.5893  -24.8091  -49.5159 H         1 UNK         0.3000 
    206 H206       -0.3092  -26.2848  -52.0090 H         1 UNK         0.0600 
    207 H207       -0.4053  -23.7963  -51.9148 H         1 UNK         0.0600 
    208 H208       -1.7092  -24.4462  -52.8966 H         1 UNK         0.0600 
    209 H209       -2.0430  -23.8708  -51.2668 H         1 UNK         0.0600 
    210 H210       -2.5017  -26.4205  -49.3583 H         1 UNK         0.3000 
    211 H211       -4.4522  -27.3291  -48.8728 H         1 UNK         0.0600 
    212 H212       -4.1500  -29.0812  -51.3731 H         1 UNK         0.0600 
    213 H213       -5.2449  -29.3609  -50.0275 H         1 UNK         0.0600 
    214 H214       -3.5092  -29.4609  -49.7751 H         1 UNK         0.0600 
    215 H215       -4.6362  -24.9227  -49.7373 H         1 UNK         0.3000 
    216 H216       -7.0488  -24.6740  -51.3966 H         1 UNK         0.0600 
    217 H217       -4.3832  -23.3917  -52.2356 H         1 UNK         0.0600 
    218 H218       -5.9495  -23.1372  -53.0157 H         1 UNK         0.0600 
    219 H219       -5.1844  -24.7106  -53.0775 H         1 UNK         0.0600 
    220 H220       -5.5951  -21.7372  -51.4788 H         1 UNK         0.3000 
    221 H221       -6.2903  -20.8187  -48.7828 H         1 UNK         0.0600 
    222 H222       -8.4438  -20.6581  -50.0767 H         1 UNK         0.0600 
    223 H223       -7.6230  -19.7479  -51.3432 H         1 UNK         0.0600 
    224 H224       -7.8012  -19.0616  -49.7317 H         1 UNK         0.0600 
    225 H225       -5.5545  -18.5708  -48.5064 H         1 UNK         0.3000 
    226 H226       -2.9025  -18.1970  -49.4513 H         1 UNK         0.0600 
    227 H227       -3.7907  -17.5189  -47.2108 H         1 UNK         0.0600 
    228 H228       -2.9996  -16.1825  -48.0294 H         1 UNK         0.0600 
    229 H229       -4.7575  -16.2542  -47.9685 H         1 UNK         0.0600 
    230 H230       -5.9136  -17.1610  -50.8011 H         1 UNK         0.3000 
    231 H231       -5.0111  -14.8109  -52.2219 H         1 UNK         0.0600 
    232 H232       -7.5471  -16.5092  -52.4846 H         1 UNK         0.0600 
    233 H233       -7.2927  -14.9260  -53.2111 H         1 UNK         0.0600 
    234 H234       -7.3532  -15.0839  -51.4642 H         1 UNK         0.0600 
    235 H235       -3.0891  -16.3140  -52.8896 H         1 UNK         0.3000 
    236 H236       -1.7751  -17.0096  -54.5126 H         1 UNK         0.0600 
    237 H237       -2.2173  -16.4218  -56.8539 H         1 UNK         0.0600 
    238 H238       -3.9298  -16.2009  -56.5304 H         1 UNK         0.0600 
    239 H239       -2.7439  -15.1042  -55.8218 H         1 UNK         0.0600 
    240 H240       -3.9575  -18.8581  -53.4079 H         1 UNK         0.3000 
    241 H241       -4.4513  -20.9846  -53.4255 H         1 UNK         0.0600 
    242 H242       -5.5019  -22.7188  -56.6171 H         1 UNK         0.3800 
    243 H243       -4.2247  -23.1371  -55.5168 H         1 UNK         0.3800 
    244 H244       -2.7945  -22.6329  -54.1013 H         1 UNK         0.0800 
    245 H245       -2.0562  -21.5284  -55.2276 H         1 UNK         0.0800 
    246 H246        0.4950  -21.6426  -54.2075 H         1 UNK         0.0800 
    247 H247       -0.2006  -20.1402  -54.7725 H         1 UNK         0.0800 
@<TRIPOS>BOND
     1    1    2 1    
     2    1  127 1    
     3    1  128 1    
     4    1  129 1    
     5    2    3 2    
     6    2    4 am   BACKBONE|DICT|INTERRES
     7    4    5 1    
     8    4  130 1    
     9    5    6 1    
    10    5   65 1    
    11    5  131 1    
    12    6    7 1    
    13    6  132 1    
    14    6  133 1    
    15    7    8 1    
    16    8    9 1    
    17    8  134 1    
    18    8  135 1    
    19    9   10 ar   
    20    9   14 ar   
    21   10   11 ar   
    22   10  136 1    
    23   11   12 ar   
    24   11  126 1    
    25   12   13 ar   
    26   12  137 1    
    27   13   14 ar   
    28   13   15 1    
    29   14  138 1    
    30   15   16 1    
    31   15  139 1    
    32   15  140 1    
    33   16   17 1    
    34   17   18 1    
    35   17  141 1    
    36   17  142 1    
    37   18   19 1    
    38   18   67 1    
    39   18  143 1    
    40   19   20 am   BACKBONE|DICT|INTERRES
    41   19  144 1    
    42   20   21 2    
    43   20   22 1    
    44   22   23 1    
    45   22   24 1    
    46   22  145 1    
    47   23  146 1    
    48   23  147 1    
    49   23  148 1    
    50   24   25 am   BACKBONE|DICT|INTERRES
    51   24  149 1    
    52   25   26 2    
    53   25   27 1    
    54   27   28 1    
    55   27   29 1    
    56   27  150 1    
    57   28  151 1    
    58   28  152 1    
    59   28  153 1    
    60   29   30 am   BACKBONE|DICT|INTERRES
    61   29  154 1    
    62   30   31 2    
    63   30   32 1    
    64   32   33 1    
    65   32   34 1    
    66   32  155 1    
    67   33  156 1    
    68   33  157 1    
    69   33  158 1    
    70   34   35 am   BACKBONE|DICT|INTERRES
    71   34  159 1    
    72   35   36 2    
    73   35   37 1    
    74   37   38 1    
    75   37   39 1    
    76   37  160 1    
    77   38  161 1    
    78   38  162 1    
    79   38  163 1    
    80   39   40 am   BACKBONE|DICT|INTERRES
    81   39  164 1    
    82   40   41 2    
    83   40   42 1    
    84   42   43 1    
    85   42   44 1    
    86   42  165 1    
    87   43  166 1    
    88   43  167 1    
    89   43  168 1    
    90   44   45 am   BACKBONE|DICT|INTERRES
    91   44  169 1    
    92   45   46 2    
    93   45   47 1    
    94   47   48 1    
    95   47   49 1    
    96   47  170 1    
    97   48  171 1    
    98   48  172 1    
    99   48  173 1    
   100   49   50 am   BACKBONE|DICT|INTERRES
   101   49  174 1    
   102   50   51 2    
   103   50   52 1    
   104   52   53 1    
   105   52   54 1    
   106   52  175 1    
   107   53  176 1    
   108   53  177 1    
   109   53  178 1    
   110   54   55 am   BACKBONE|DICT|INTERRES
   111   54  179 1    
   112   55   56 2    
   113   55   57 1    
   114   57   58 1    
   115   57   59 1    
   116   57  180 1    
   117   58  181 1    
   118   58  182 1    
   119   58  183 1    
   120   59   60 am   BACKBONE|DICT|INTERRES
   121   59  184 1    
   122   60   61 2    
   123   60   62 1    
   124   62   63 1    
   125   62   64 1    
   126   62  185 1    
   127   63  186 1    
   128   63  187 1    
   129   63  188 1    
   130   64   65 am   BACKBONE|DICT|INTERRES
   131   64  189 1    
   132   65   66 2    
   133   67   68 2    
   134   67   69 am   BACKBONE|DICT|INTERRES
   135   69   70 1    
   136   69  190 1    
   137   70   71 1    
   138   70   72 1    
   139   70  191 1    
   140   71  192 1    
   141   71  193 1    
   142   71  194 1    
   143   72   73 2    
   144   72   74 am   BACKBONE|DICT|INTERRES
   145   74   75 1    
   146   74  195 1    
   147   75   76 1    
   148   75   77 1    
   149   75  196 1    
   150   76  197 1    
   151   76  198 1    
   152   76  199 1    
   153   77   78 2    
   154   77   79 am   BACKBONE|DICT|INTERRES
   155   79   80 1    
   156   79  200 1    
   157   80   81 1    
   158   80   82 1    
   159   80  201 1    
   160   81  202 1    
   161   81  203 1    
   162   81  204 1    
   163   82   83 2    
   164   82   84 am   BACKBONE|DICT|INTERRES
   165   84   85 1    
   166   84  205 1    
   167   85   86 1    
   168   85   87 1    
   169   85  206 1    
   170   86  207 1    
   171   86  208 1    
   172   86  209 1    
   173   87   88 2    
   174   87   89 am   BACKBONE|DICT|INTERRES
   175   89   90 1    
   176   89  210 1    
   177   90   91 1    
   178   90   92 1    
   179   90  211 1    
   180   91  212 1    
   181   91  213 1    
   182   91  214 1    
   183   92   93 2    
   184   92   94 am   BACKBONE|DICT|INTERRES
   185   94   95 1    
   186   94  215 1    
   187   95   96 1    
   188   95   97 1    
   189   95  216 1    
   190   96  217 1    
   191   96  218 1    
   192   96  219 1    
   193   97   98 2    
   194   97   99 am   BACKBONE|DICT|INTERRES
   195   99  100 1    
   196   99  220 1    
   197  100  101 1    
   198  100  102 1    
   199  100  221 1    
   200  101  222 1    
   201  101  223 1    
   202  101  224 1    
   203  102  103 2    
   204  102  104 am   BACKBONE|DICT|INTERRES
   205  104  105 1    
   206  104  225 1    
   207  105  106 1    
   208  105  107 1    
   209  105  226 1    
   210  106  227 1    
   211  106  228 1    
   212  106  229 1    
   213  107  108 2    
   214  107  109 am   BACKBONE|DICT|INTERRES
   215  109  110 1    
   216  109  230 1    
   217  110  111 1    
   218  110  112 1    
   219  110  231 1    
   220  111  232 1    
   221  111  233 1    
   222  111  234 1    
   223  112  113 2    
   224  112  114 am   BACKBONE|DICT|INTERRES
   225  114  115 1    
   226  114  235 1    
   227  115  116 1    
   228  115  117 1    
   229  115  236 1    
   230  116  237 1    
   231  116  238 1    
   232  116  239 1    
   233  117  118 2    
   234  117  119 am   BACKBONE|DICT|INTERRES
   235  119  120 1    
   236  119  240 1    
   237  120  121 1    
   238  120  124 1    
   239  120  241 1    
   240  121  122 am   BACKBONE|DICT|INTERRES
   241  121  123 2    
   242  122  242 1    
   243  122  243 1    
   244  124  125 1    
   245  124  244 1    
   246  124  245 1    
   247  125  126 1    
   248  126  246 1    
   249  126  247 1    
@<TRIPOS>SUBSTRUCTURE
     1 UNK         1 GROUP             0       ****    0 ROOT    
