@<TRIPOS>MOLECULE
3R540
247   249    1
SMALL
USER_CHARGES


@<TRIPOS>ATOM
      1 CA          2.9012  -17.4221  -47.2531 C.3       0 UNK        -0.1800 
      2 C           2.0441  -16.2087  -47.5766 C.2       0 UNK         0.5000 
      3 O           2.2907  -15.1268  -47.0460 O.2       0 UNK        -0.5000 
      4 N           1.0507  -16.3701  -48.4636 N.am      1 UNK        -0.5000 
      5 CA          0.1217  -15.3101  -48.8841 C.3       1 UNK         0.1400 
      6 C6         -1.0854  -15.8789  -49.6729 C.3       23 UNK        -0.0398 
      7 S7         -2.5374  -14.7731  -49.6188 S.3       23 UNK        -0.2404 
      8 C8         -3.2934  -15.2234  -48.0255 C.3       23 UNK        -0.0205 
      9 C9         -4.1652  -16.4673  -48.1209 C.ar      23 UNK        -0.0193 
     10 C10        -5.5018  -16.3503  -48.5118 C.ar      23 UNK        -0.1150 
     11 C11        -6.3285  -17.4755  -48.5715 C.ar      23 UNK        -0.0193 
     12 C12        -5.8140  -18.7251  -48.2143 C.ar      23 UNK        -0.1150 
     13 C13        -4.4795  -18.8563  -47.8164 C.ar      23 UNK        -0.0193 
     14 C14        -3.6567  -17.7265  -47.7881 C.ar      23 UNK        -0.1150 
     15 C15        -3.9277  -20.2203  -47.4308 C.3       23 UNK        -0.0205 
     16 S16        -3.4452  -20.3090  -45.6788 S.3       23 UNK        -0.2404 
     17 C17        -3.3370  -22.1174  -45.4570 C.3       23 UNK        -0.0398 
     18 CA         -2.0341  -22.7255  -46.0309 C.3       11 UNK         0.1400 
     19 N          -0.8379  -22.1807  -45.3948 N.am      11 UNK        -0.5000 
     20 C           0.3428  -22.0588  -46.0083 C.2       10 UNK         0.5000 
     21 O           0.5373  -22.3852  -47.1764 O.2       10 UNK        -0.5000 
     22 CA          1.5040  -21.5061  -45.1624 C.3       10 UNK         0.1400 
     23 CB          1.3663  -19.9844  -45.0281 C.3       10 UNK        -0.1800 
     24 N           1.5661  -22.0965  -43.8266 N.am      10 UNK        -0.5000 
     25 C           1.6285  -23.4081  -43.5588 C.2       9 UNK         0.5000 
     26 O           1.7542  -24.2773  -44.4221 O.2       9 UNK        -0.5000 
     27 CA          1.4459  -23.8210  -42.0851 C.3       9 UNK         0.1400 
     28 CB          2.8123  -24.0063  -41.4106 C.3       9 UNK        -0.1800 
     29 N           0.6362  -22.8840  -41.2927 N.am      9 UNK        -0.5000 
     30 C          -0.6149  -22.4866  -41.5722 C.2       8 UNK         0.5000 
     31 O          -1.2436  -22.8736  -42.5616 O.2       8 UNK        -0.5000 
     32 CA         -1.2566  -21.4437  -40.6401 C.3       8 UNK         0.1400 
     33 CB         -0.2567  -20.7299  -39.7033 C.3       8 UNK        -0.1800 
     34 N          -1.9505  -20.4653  -41.4720 N.am      8 UNK        -0.5000 
     35 C          -2.9699  -19.6882  -41.0925 C.2       7 UNK         0.5000 
     36 O          -3.4542  -19.7021  -39.9591 O.2       7 UNK        -0.5000 
     37 CA         -3.5382  -18.7461  -42.1767 C.3       7 UNK         0.1400 
     38 CB         -4.4300  -17.6254  -41.6018 C.3       7 UNK        -0.1800 
     39 N          -2.5064  -18.1910  -43.0661 N.am      7 UNK        -0.5000 
     40 C          -1.4874  -17.3837  -42.7275 C.2       6 UNK         0.5000 
     41 O          -1.2688  -17.0103  -41.5733 O.2       6 UNK        -0.5000 
     42 CA         -0.5509  -16.9160  -43.8644 C.3       6 UNK         0.1400 
     43 CB         -1.1278  -17.1393  -45.2743 C.3       6 UNK        -0.1800 
     44 N          -0.2417  -15.4974  -43.7088 N.am      6 UNK        -0.5000 
     45 C           0.8440  -14.9983  -43.1095 C.2       5 UNK         0.5000 
     46 O           1.7794  -15.6907  -42.7021 O.2       5 UNK        -0.5000 
     47 CA          0.8825  -13.4633  -42.9459 C.3       5 UNK         0.1400 
     48 CB          2.0816  -12.9869  -42.1061 C.3       5 UNK        -0.1800 
     49 N           0.9098  -12.7559  -44.2257 N.am      5 UNK        -0.5000 
     50 C          -0.1085  -12.5883  -45.0760 C.2       4 UNK         0.5000 
     51 O          -1.2304  -13.0621  -44.8885 O.2       4 UNK        -0.5000 
     52 CA          0.1526  -11.7543  -46.3481 C.3       4 UNK         0.1400 
     53 CB         -0.1412  -10.2635  -46.0984 C.3       4 UNK        -0.1800 
     54 N           1.4739  -11.9395  -46.9665 N.am      4 UNK        -0.5000 
     55 C           2.6955  -11.6303  -46.5021 C.2       3 UNK         0.5000 
     56 O           2.8894  -11.0934  -45.4108 O.2       3 UNK        -0.5000 
     57 CA          3.9087  -12.0110  -47.3776 C.3       3 UNK         0.1400 
     58 CB          4.9557  -12.7871  -46.5596 C.3       3 UNK        -0.1800 
     59 N           3.5138  -12.8363  -48.5198 N.am      3 UNK        -0.5000 
     60 C           3.4633  -12.4328  -49.7971 C.2       2 UNK         0.5000 
     61 O           3.8260  -11.3193  -50.1772 O.2       2 UNK        -0.5000 
     62 CA          2.8867  -13.4308  -50.8271 C.3       2 UNK         0.1400 
     63 CB          4.0216  -14.1584  -51.5636 C.3       2 UNK        -0.1800 
     64 N           1.9861  -14.4291  -50.2417 N.am      2 UNK        -0.5000 
     65 C           0.8242  -14.1517  -49.6312 C.2       1 UNK         0.5000 
     66 O           0.3550  -13.0157  -49.5684 O.2       1 UNK        -0.5000 
     67 C          -2.0522  -24.2592  -45.9078 C.2       11 UNK         0.5000 
     68 O          -2.3453  -24.9417  -46.8893 O.2       11 UNK        -0.5000 
     69 N          -1.7558  -24.7668  -44.7034 N.am      12 UNK        -0.5000 
     70 CA         -1.9289  -26.1728  -44.3418 C.3       12 UNK         0.1400 
     71 CB         -1.9352  -26.3010  -42.8110 C.3       12 UNK        -0.1800 
     72 C          -0.8934  -27.1288  -44.9609 C.2       12 UNK         0.5000 
     73 O          -1.2537  -28.2650  -45.2724 O.2       12 UNK        -0.5000 
     74 N           0.3601  -26.6790  -45.1075 N.am      13 UNK        -0.5000 
     75 CA          1.4783  -27.5047  -45.5675 C.3       13 UNK         0.1400 
     76 CB          2.5459  -27.5890  -44.4633 C.3       13 UNK        -0.1800 
     77 C           2.0821  -26.9728  -46.8744 C.2       13 UNK         0.5000 
     78 O           2.2872  -27.7585  -47.8006 O.2       13 UNK        -0.5000 
     79 N           2.3600  -25.6620  -46.9411 N.am      14 UNK        -0.5000 
     80 CA          3.0063  -25.0350  -48.1024 C.3       14 UNK         0.1400 
     81 CB          3.7166  -23.7445  -47.6689 C.3       14 UNK        -0.1800 
     82 C           2.0465  -24.7742  -49.2824 C.2       14 UNK         0.5000 
     83 O           2.5196  -24.5228  -50.3914 O.2       14 UNK        -0.5000 
     84 N           0.7318  -24.8580  -49.0295 N.am      15 UNK        -0.5000 
     85 CA         -0.3713  -24.7274  -49.9856 C.3       15 UNK         0.1400 
     86 CB         -0.3563  -25.8895  -51.0006 C.3       15 UNK        -0.1800 
     87 C          -0.4523  -23.3402  -50.6575 C.2       15 UNK         0.5000 
     88 O          -0.7465  -23.2453  -51.8515 O.2       15 UNK        -0.5000 
     89 N          -0.2489  -22.2746  -49.8667 N.am      16 UNK        -0.5000 
     90 CA         -0.3305  -20.8683  -50.2859 C.3       16 UNK         0.1400 
     91 CB          0.0790  -19.9562  -49.1196 C.3       16 UNK        -0.1800 
     92 C          -1.7054  -20.4366  -50.8341 C.2       16 UNK         0.5000 
     93 O          -1.7901  -19.4013  -51.4935 O.2       16 UNK        -0.5000 
     94 N          -2.7452  -21.2509  -50.6015 N.am      17 UNK        -0.5000 
     95 CA         -4.0807  -21.1125  -51.1812 C.3       17 UNK         0.1400 
     96 CB         -4.9866  -22.2270  -50.6379 C.3       17 UNK        -0.1800 
     97 C          -4.0802  -21.1405  -52.7219 C.2       17 UNK         0.5000 
     98 O          -4.9348  -20.4987  -53.3321 O.2       17 UNK        -0.5000 
     99 N          -3.1153  -21.8515  -53.3248 N.am      18 UNK        -0.5000 
    100 CA        -2.9085  -21.8929  -54.7725 C.3       18 UNK         0.1400 
    101 CB        -1.9443  -23.0382  -55.1152 C.3       18 UNK        -0.1800 
    102 C         -2.3854  -20.5559  -55.3309 C.2       18 UNK         0.5000 
    103 O         -2.7932  -20.1541  -56.4206 O.2       18 UNK        -0.5000 
    104 N         -1.5168  -19.8801  -54.5651 N.am      19 UNK        -0.5000 
    105 CA        -0.9845  -18.5546  -54.8874 C.3       19 UNK         0.1400 
    106 CB         0.3035  -18.3095  -54.0850 C.3       19 UNK        -0.1800 
    107 C         -2.0164  -17.4456  -54.6172 C.2       19 UNK         0.5000 
    108 O         -2.1028  -16.4899  -55.3885 O.2       19 UNK        -0.5000 
    109 N         -2.7943  -17.6097  -53.5389 N.am      20 UNK        -0.5000 
    110 CA        -3.8775  -16.7137  -53.1324 C.3       20 UNK         0.1400 
    111 CB        -4.3138  -17.0980  -51.7128 C.3       20 UNK        -0.1800 
    112 C         -5.1033  -16.7560  -54.0662 C.2       20 UNK         0.5000 
    113 O         -5.8961  -15.8140  -54.0578 O.2       20 UNK        -0.5000 
    114 N         -5.2486  -17.8598  -54.8155 N.am      21 UNK        -0.5000 
    115 CA        -6.4169  -18.2552  -55.6106 C.3       21 UNK         0.1400 
    116 CB        -6.7154  -17.2412  -56.7348 C.3       21 UNK        -0.1800 
    117 C         -7.6442  -18.5778  -54.7285 C.2       21 UNK         0.5000 
    118 O         -8.7854  -18.3902  -55.1546 O.2       21 UNK        -0.5000 
    119 N         -7.3737  -19.0786  -53.5179 N.am      22 UNK        -0.5000 
    120 CA        -8.3569  -19.5785  -52.5471 C.3       22 UNK         0.1400 
    121 C         -8.5974  -21.1106  -52.6708 C.2       22 UNK         0.5000 
    122 N         -7.7567  -21.8632  -53.3720 N.am      22 UNK        -0.7600 
    123 O         -9.5723  -21.6241  -52.1293 O.2       22 UNK        -0.5000 
    124 C124       -7.9578  -19.2082  -51.0952 C.3       23 UNK        -0.0398 
    125 S125       -7.9682  -17.4067  -50.8100 S.3       23 UNK        -0.2404 
    126 C126       -7.7809  -17.3284  -49.0003 C.3       23 UNK        -0.0205 
    127 H127        2.5445  -18.3196  -47.7581 H         1 UNK         0.0600 
    128 H128        2.8954  -17.6049  -46.1788 H         1 UNK         0.0600 
    129 H129        3.9312  -17.2440  -47.5617 H         1 UNK         0.0600 
    130 H130        0.9124  -17.2751  -48.8874 H         1 UNK         0.3000 
    131 H131       -0.2623  -14.8777  -47.9574 H         1 UNK         0.0600 
    132 H132       -0.8221  -16.0677  -50.7154 H         1 UNK         0.0800 
    133 H133       -1.3854  -16.8458  -49.2702 H         1 UNK         0.0800 
    134 H134       -3.9018  -14.3843  -47.6847 H         1 UNK         0.0800 
    135 H135       -2.5189  -15.3509  -47.2699 H         1 UNK         0.0800 
    136 H136       -5.8985  -15.3802  -48.7764 H         1 UNK         0.1150 
    137 H137       -6.4550  -19.5947  -48.2464 H         1 UNK         0.1150 
    138 H138       -2.6248  -17.8313  -47.4903 H         1 UNK         0.1150 
    139 H139       -3.0573  -20.4420  -48.0453 H         1 UNK         0.0800 
    140 H140       -4.6673  -20.9937  -47.6357 H         1 UNK         0.0800 
    141 H141       -3.4156  -22.3246  -44.3880 H         1 UNK         0.0800 
    142 H142       -4.2144  -22.5775  -45.9154 H         1 UNK         0.0800 
    143 H143       -2.0073  -22.4921  -47.0975 H         1 UNK         0.0600 
    144 H144       -0.9016  -21.9947  -44.4029 H         1 UNK         0.3000 
    145 H145        2.4418  -21.7256  -45.6722 H         1 UNK         0.0600 
    146 H146        1.2514  -19.5131  -46.0045 H         1 UNK         0.0600 
    147 H147        2.2433  -19.5463  -44.5516 H         1 UNK         0.0600 
    148 H148        0.4918  -19.7217  -44.4337 H         1 UNK         0.0600 
    149 H149        1.4866  -21.4615  -43.0472 H         1 UNK         0.3000 
    150 H150        0.9354  -24.7843  -42.0814 H         1 UNK         0.0600 
    151 H151        3.3641  -23.0672  -41.3536 H         1 UNK         0.0600 
    152 H152        3.4283  -24.7166  -41.9642 H         1 UNK         0.0600 
    153 H153        2.7033  -24.3948  -40.3979 H         1 UNK         0.0600 
    154 H154        1.0796  -22.5054  -40.4681 H         1 UNK         0.3000 
    155 H155       -1.9906  -21.9771  -40.0332 H         1 UNK         0.0600 
    156 H156       -0.7613  -19.9929  -39.0783 H         1 UNK         0.0600 
    157 H157        0.5188  -20.2062  -40.2638 H         1 UNK         0.0600 
    158 H158        0.2292  -21.4329  -39.0259 H         1 UNK         0.0600 
    159 H159       -1.6579  -20.4338  -42.4370 H         1 UNK         0.3000 
    160 H160       -4.1745  -19.3706  -42.8052 H         1 UNK         0.0600 
    161 H161       -3.8840  -16.9877  -40.9061 H         1 UNK         0.0600 
    162 H162       -5.2819  -18.0414  -41.0628 H         1 UNK         0.0600 
    163 H163       -4.8279  -16.9930  -42.3955 H         1 UNK         0.0600 
    164 H164       -2.6073  -18.4434  -44.0402 H         1 UNK         0.3000 
    165 H165        0.3686  -17.4968  -43.7821 H         1 UNK         0.0600 
    166 H166       -0.4814  -16.7050  -46.0352 H         1 UNK         0.0600 
    167 H167       -1.2184  -18.2009  -45.5048 H         1 UNK         0.0600 
    168 H168       -2.1127  -16.6831  -45.3776 H         1 UNK         0.0600 
    169 H169       -0.9407  -14.8368  -44.0333 H         1 UNK         0.3000 
    170 H170       -0.0268  -13.1753  -42.4144 H         1 UNK         0.0600 
    171 H171        2.0433  -11.9100  -41.9404 H         1 UNK         0.0600 
    172 H172        3.0301  -13.2161  -42.5937 H         1 UNK         0.0600 
    173 H173        2.0892  -13.4649  -41.1257 H         1 UNK         0.0600 
    174 H174        1.7861  -12.3063  -44.4739 H         1 UNK         0.3000 
    175 H175       -0.5650  -12.1046  -47.0917 H         1 UNK         0.0600 
    176 H176       -1.1629  -10.1236  -45.7431 H         1 UNK         0.0600 
    177 H177        0.5243   -9.8357  -45.3482 H         1 UNK         0.0600 
    178 H178       -0.0335   -9.6822  -47.0142 H         1 UNK         0.0600 
    179 H179        1.4345  -12.3733  -47.8807 H         1 UNK         0.3000 
    180 H180        4.3638  -11.0787  -47.7168 H         1 UNK         0.0600 
    181 H181        4.5402  -13.7060  -46.1439 H         1 UNK         0.0600 
    182 H182        5.3293  -12.1891  -45.7275 H         1 UNK         0.0600 
    183 H183        5.8148  -13.0561  -47.1744 H         1 UNK         0.0600 
    184 H184        3.1715  -13.7609  -48.2795 H         1 UNK         0.3000 
    185 H185        2.3169  -12.8536  -51.5582 H         1 UNK         0.0600 
    186 H186        4.6982  -13.4469  -52.0391 H         1 UNK         0.0600 
    187 H187        4.6148  -14.7708  -50.8833 H         1 UNK         0.0600 
    188 H188        3.6316  -14.8071  -52.3481 H         1 UNK         0.0600 
    189 H189        2.3152  -15.3834  -50.2343 H         1 UNK         0.3000 
    190 H190       -1.5274  -24.1289  -43.9457 H         1 UNK         0.3000 
    191 H191       -2.9115  -26.4874  -44.7007 H         1 UNK         0.0600 
    192 H192       -2.7139  -25.6812  -42.3659 H         1 UNK         0.0600 
    193 H193       -2.1256  -27.3308  -42.5060 H         1 UNK         0.0600 
    194 H194       -0.9822  -26.0027  -42.3767 H         1 UNK         0.0600 
    195 H195        0.5871  -25.7256  -44.8425 H         1 UNK         0.3000 
    196 H196        1.1448  -28.5248  -45.7688 H         1 UNK         0.0600 
    197 H197        3.3761  -28.2249  -44.7730 H         1 UNK         0.0600 
    198 H198        2.1322  -28.0171  -43.5502 H         1 UNK         0.0600 
    199 H199        2.9593  -26.6115  -44.2151 H         1 UNK         0.0600 
    200 H200        2.1823  -25.0738  -46.1319 H         1 UNK         0.3000 
    201 H201        3.7782  -25.7165  -48.4666 H         1 UNK         0.0600 
    202 H202        4.3736  -23.3832  -48.4607 H         1 UNK         0.0600 
    203 H203        4.3306  -23.9020  -46.7820 H         1 UNK         0.0600 
    204 H204        3.0090  -22.9482  -47.4566 H         1 UNK         0.0600 
    205 H205        0.4618  -25.0253  -48.0708 H         1 UNK         0.3000 
    206 H206       -1.2865  -24.8247  -49.4010 H         1 UNK         0.0600 
    207 H207       -0.3251  -26.8543  -50.4942 H         1 UNK         0.0600 
    208 H208       -1.2531  -25.8789  -51.6212 H         1 UNK         0.0600 
    209 H209        0.5031  -25.8333  -51.6693 H         1 UNK         0.0600 
    210 H210        0.0248  -22.4325  -48.8973 H         1 UNK         0.3000 
    211 H211        0.3896  -20.7291  -51.0945 H         1 UNK         0.0600 
    212 H212       -0.5972  -20.0574  -48.2700 H         1 UNK         0.0600 
    213 H213        0.0687  -18.9106  -49.4248 H         1 UNK         0.0600 
    214 H214        1.0883  -20.1851  -48.7771 H         1 UNK         0.0600 
    215 H215       -2.5706  -22.0883  -50.0680 H         1 UNK         0.3000 
    216 H216       -4.4830  -20.1516  -50.8583 H         1 UNK         0.0600 
    217 H217       -4.6295  -23.2146  -50.9330 H         1 UNK         0.0600 
    218 H218       -5.0435  -22.2055  -49.5512 H         1 UNK         0.0600 
    219 H219       -6.0045  -22.1213  -51.0145 H         1 UNK         0.0600 
    220 H220       -2.4387  -22.3492  -52.7561 H         1 UNK         0.3000 
    221 H221       -3.8687  -22.1018  -55.2493 H         1 UNK         0.0600 
    222 H222       -0.9646  -22.8906  -54.6587 H         1 UNK         0.0600 
    223 H223       -2.3323  -23.9966  -54.7698 H         1 UNK         0.0600 
    224 H224       -1.7969  -23.1156  -56.1931 H         1 UNK         0.0600 
    225 H225       -1.2730  -20.2575  -53.6609 H         1 UNK         0.3000 
    226 H226       -0.7317  -18.5279  -55.9496 H         1 UNK         0.0600 
    227 H227        0.7419  -17.3439  -54.3403 H         1 UNK         0.0600 
    228 H228        0.1212  -18.3105  -53.0101 H         1 UNK         0.0600 
    229 H229        1.0522  -19.0724  -54.2988 H         1 UNK         0.0600 
    230 H230       -2.5897  -18.3829  -52.9124 H         1 UNK         0.3000 
    231 H231       -3.4900  -15.6931  -53.1162 H         1 UNK         0.0600 
    232 H232       -4.8564  -18.0423  -51.6984 H         1 UNK         0.0600 
    233 H233       -4.9770  -16.3382  -51.2992 H         1 UNK         0.0600 
    234 H234       -3.4639  -17.1944  -51.0386 H         1 UNK         0.0600 
    235 H235       -4.5426  -18.5760  -54.7096 H         1 UNK         0.3000 
    236 H236       -6.1406  -19.1959  -56.0891 H         1 UNK         0.0600 
    237 H237       -7.0996  -16.2989  -56.3440 H         1 UNK         0.0600 
    238 H238       -5.8203  -17.0244  -57.3179 H         1 UNK         0.0600 
    239 H239       -7.4636  -17.6346  -57.4236 H         1 UNK         0.0600 
    240 H240       -6.4023  -19.2727  -53.2990 H         1 UNK         0.3000 
    241 H241       -9.3213  -19.1096  -52.7515 H         1 UNK         0.0600 
    242 H242       -6.9299  -21.4561  -53.7847 H         1 UNK         0.3800 
    243 H243       -7.9286  -22.8524  -53.4572 H         1 UNK         0.3800 
    244 H244       -6.9670  -19.5977  -50.8584 H         1 UNK         0.0800 
    245 H245       -8.6485  -19.6621  -50.3821 H         1 UNK         0.0800 
    246 H246       -8.1653  -16.3681  -48.6532 H         1 UNK         0.0800 
    247 H247       -8.4019  -18.0889  -48.5247 H         1 UNK         0.0800 
@<TRIPOS>BOND
     1    1    2 1    
     2    1  127 1    
     3    1  128 1    
     4    1  129 1    
     5    2    3 2    
     6    2    4 am   BACKBONE|DICT|INTERRES
     7    4    5 1    
     8    4  130 1    
     9    5    6 1    
    10    5   65 1    
    11    5  131 1    
    12    6    7 1    
    13    6  132 1    
    14    6  133 1    
    15    7    8 1    
    16    8    9 1    
    17    8  134 1    
    18    8  135 1    
    19    9   10 ar   
    20    9   14 ar   
    21   10   11 ar   
    22   10  136 1    
    23   11   12 ar   
    24   11  126 1    
    25   12   13 ar   
    26   12  137 1    
    27   13   14 ar   
    28   13   15 1    
    29   14  138 1    
    30   15   16 1    
    31   15  139 1    
    32   15  140 1    
    33   16   17 1    
    34   17   18 1    
    35   17  141 1    
    36   17  142 1    
    37   18   19 1    
    38   18   67 1    
    39   18  143 1    
    40   19   20 am   BACKBONE|DICT|INTERRES
    41   19  144 1    
    42   20   21 2    
    43   20   22 1    
    44   22   23 1    
    45   22   24 1    
    46   22  145 1    
    47   23  146 1    
    48   23  147 1    
    49   23  148 1    
    50   24   25 am   BACKBONE|DICT|INTERRES
    51   24  149 1    
    52   25   26 2    
    53   25   27 1    
    54   27   28 1    
    55   27   29 1    
    56   27  150 1    
    57   28  151 1    
    58   28  152 1    
    59   28  153 1    
    60   29   30 am   BACKBONE|DICT|INTERRES
    61   29  154 1    
    62   30   31 2    
    63   30   32 1    
    64   32   33 1    
    65   32   34 1    
    66   32  155 1    
    67   33  156 1    
    68   33  157 1    
    69   33  158 1    
    70   34   35 am   BACKBONE|DICT|INTERRES
    71   34  159 1    
    72   35   36 2    
    73   35   37 1    
    74   37   38 1    
    75   37   39 1    
    76   37  160 1    
    77   38  161 1    
    78   38  162 1    
    79   38  163 1    
    80   39   40 am   BACKBONE|DICT|INTERRES
    81   39  164 1    
    82   40   41 2    
    83   40   42 1    
    84   42   43 1    
    85   42   44 1    
    86   42  165 1    
    87   43  166 1    
    88   43  167 1    
    89   43  168 1    
    90   44   45 am   BACKBONE|DICT|INTERRES
    91   44  169 1    
    92   45   46 2    
    93   45   47 1    
    94   47   48 1    
    95   47   49 1    
    96   47  170 1    
    97   48  171 1    
    98   48  172 1    
    99   48  173 1    
   100   49   50 am   BACKBONE|DICT|INTERRES
   101   49  174 1    
   102   50   51 2    
   103   50   52 1    
   104   52   53 1    
   105   52   54 1    
   106   52  175 1    
   107   53  176 1    
   108   53  177 1    
   109   53  178 1    
   110   54   55 am   BACKBONE|DICT|INTERRES
   111   54  179 1    
   112   55   56 2    
   113   55   57 1    
   114   57   58 1    
   115   57   59 1    
   116   57  180 1    
   117   58  181 1    
   118   58  182 1    
   119   58  183 1    
   120   59   60 am   BACKBONE|DICT|INTERRES
   121   59  184 1    
   122   60   61 2    
   123   60   62 1    
   124   62   63 1    
   125   62   64 1    
   126   62  185 1    
   127   63  186 1    
   128   63  187 1    
   129   63  188 1    
   130   64   65 am   BACKBONE|DICT|INTERRES
   131   64  189 1    
   132   65   66 2    
   133   67   68 2    
   134   67   69 am   BACKBONE|DICT|INTERRES
   135   69   70 1    
   136   69  190 1    
   137   70   71 1    
   138   70   72 1    
   139   70  191 1    
   140   71  192 1    
   141   71  193 1    
   142   71  194 1    
   143   72   73 2    
   144   72   74 am   BACKBONE|DICT|INTERRES
   145   74   75 1    
   146   74  195 1    
   147   75   76 1    
   148   75   77 1    
   149   75  196 1    
   150   76  197 1    
   151   76  198 1    
   152   76  199 1    
   153   77   78 2    
   154   77   79 am   BACKBONE|DICT|INTERRES
   155   79   80 1    
   156   79  200 1    
   157   80   81 1    
   158   80   82 1    
   159   80  201 1    
   160   81  202 1    
   161   81  203 1    
   162   81  204 1    
   163   82   83 2    
   164   82   84 am   BACKBONE|DICT|INTERRES
   165   84   85 1    
   166   84  205 1    
   167   85   86 1    
   168   85   87 1    
   169   85  206 1    
   170   86  207 1    
   171   86  208 1    
   172   86  209 1    
   173   87   88 2    
   174   87   89 am   BACKBONE|DICT|INTERRES
   175   89   90 1    
   176   89  210 1    
   177   90   91 1    
   178   90   92 1    
   179   90  211 1    
   180   91  212 1    
   181   91  213 1    
   182   91  214 1    
   183   92   93 2    
   184   92   94 am   BACKBONE|DICT|INTERRES
   185   94   95 1    
   186   94  215 1    
   187   95   96 1    
   188   95   97 1    
   189   95  216 1    
   190   96  217 1    
   191   96  218 1    
   192   96  219 1    
   193   97   98 2    
   194   97   99 am   BACKBONE|DICT|INTERRES
   195   99  100 1    
   196   99  220 1    
   197  100  101 1    
   198  100  102 1    
   199  100  221 1    
   200  101  222 1    
   201  101  223 1    
   202  101  224 1    
   203  102  103 2    
   204  102  104 am   BACKBONE|DICT|INTERRES
   205  104  105 1    
   206  104  225 1    
   207  105  106 1    
   208  105  107 1    
   209  105  226 1    
   210  106  227 1    
   211  106  228 1    
   212  106  229 1    
   213  107  108 2    
   214  107  109 am   BACKBONE|DICT|INTERRES
   215  109  110 1    
   216  109  230 1    
   217  110  111 1    
   218  110  112 1    
   219  110  231 1    
   220  111  232 1    
   221  111  233 1    
   222  111  234 1    
   223  112  113 2    
   224  112  114 am   BACKBONE|DICT|INTERRES
   225  114  115 1    
   226  114  235 1    
   227  115  116 1    
   228  115  117 1    
   229  115  236 1    
   230  116  237 1    
   231  116  238 1    
   232  116  239 1    
   233  117  118 2    
   234  117  119 am   BACKBONE|DICT|INTERRES
   235  119  120 1    
   236  119  240 1    
   237  120  121 1    
   238  120  124 1    
   239  120  241 1    
   240  121  122 am   BACKBONE|DICT|INTERRES
   241  121  123 2    
   242  122  242 1    
   243  122  243 1    
   244  124  125 1    
   245  124  244 1    
   246  124  245 1    
   247  125  126 1    
   248  126  246 1    
   249  126  247 1    
@<TRIPOS>SUBSTRUCTURE
     1 UNK         1 GROUP             0       ****    0 ROOT    
