@<TRIPOS>MOLECULE
3R540
247   249    1
SMALL
USER_CHARGES


@<TRIPOS>ATOM
      1 CA         -5.9861  -12.7865  -50.6936 C.3       0 UNK        -0.1800 
      2 C          -4.6679  -12.3185  -50.0950 C.2       0 UNK         0.5000 
      3 O          -4.3981  -11.1174  -50.0792 O.2       0 UNK        -0.5000 
      4 N          -3.8579  -13.2606  -49.5978 N.am      1 UNK        -0.5000 
      5 CA         -2.6193  -12.9963  -48.8560 C.3       1 UNK         0.1400 
      6 C6         -1.4206  -13.8282  -49.3788 C.3       23 UNK        -0.0398 
      7 S7         -1.6258  -15.6433  -49.3535 S.3       23 UNK        -0.2404 
      8 C8          0.0113  -16.1345  -49.9995 C.3       23 UNK        -0.0205 
      9 C9          0.2923  -17.6367  -50.0919 C.ar      23 UNK        -0.0193 
     10 C10         1.5292  -18.0363  -50.6086 C.ar      23 UNK        -0.1150 
     11 C11         1.8742  -19.3880  -50.6957 C.ar      23 UNK        -0.0193 
     12 C12         0.9609  -20.3560  -50.2744 C.ar      23 UNK        -0.1150 
     13 C13        -0.2814  -19.9778  -49.7607 C.ar      23 UNK        -0.0193 
     14 C14        -0.6116  -18.6216  -49.6706 C.ar      23 UNK        -0.1150 
     15 C15        -1.2567  -21.0346  -49.2756 C.3       23 UNK        -0.0205 
     16 S16        -0.8990  -21.4941  -47.5568 S.3       23 UNK        -0.2404 
     17 C17        -0.3498  -23.2230  -47.7367 C.3       23 UNK        -0.0398 
     18 CA         -0.0394  -23.9422  -46.4005 C.3       11 UNK         0.1400 
     19 N           1.1435  -23.3930  -45.7329 N.am      11 UNK        -0.5000 
     20 C           1.9508  -24.0956  -44.9253 C.2       10 UNK         0.5000 
     21 O           1.8434  -25.3109  -44.7524 O.2       10 UNK        -0.5000 
     22 CA          3.0325  -23.3104  -44.1540 C.3       10 UNK         0.1400 
     23 CB          4.3089  -24.1371  -43.8944 C.3       10 UNK        -0.1800 
     24 N           3.3529  -22.0114  -44.7499 N.am      10 UNK        -0.5000 
     25 C           3.9422  -21.7598  -45.9275 C.2       9 UNK         0.5000 
     26 O           4.3467  -22.6310  -46.6977 O.2       9 UNK        -0.5000 
     27 CA          4.0812  -20.2771  -46.3265 C.3       9 UNK         0.1400 
     28 CB          3.0362  -19.9277  -47.3963 C.3       9 UNK        -0.1800 
     29 N           3.9260  -19.3545  -45.1998 N.am      9 UNK        -0.5000 
     30 C           4.8143  -19.1791  -44.2124 C.2       8 UNK         0.5000 
     31 O           5.9195  -19.7214  -44.1813 O.2       8 UNK        -0.5000 
     32 CA          4.3724  -18.2799  -43.0414 C.3       8 UNK         0.1400 
     33 CB          4.6068  -16.7979  -43.3699 C.3       8 UNK        -0.1800 
     34 N           2.9707  -18.4870  -42.6629 N.am      8 UNK        -0.5000 
     35 C           2.4883  -19.6200  -42.1296 C.2       7 UNK         0.5000 
     36 O           3.1818  -20.6043  -41.8760 O.2       7 UNK        -0.5000 
     37 CA          0.9734  -19.6854  -41.8687 C.3       7 UNK         0.1400 
     38 CB          0.6173  -18.9865  -40.5486 C.3       7 UNK        -0.1800 
     39 N           0.1981  -19.1008  -42.9604 N.am      7 UNK        -0.5000 
     40 C           0.0898  -19.6308  -44.1860 C.2       6 UNK         0.5000 
     41 O           0.5575  -20.7277  -44.4971 O.2       6 UNK        -0.5000 
     42 CA         -0.6368  -18.7825  -45.2468 C.3       6 UNK         0.1400 
     43 CB         -2.1523  -19.0143  -45.1842 C.3       6 UNK        -0.1800 
     44 N          -0.3501  -17.3525  -45.1337 N.am      6 UNK        -0.5000 
     45 C           0.8666  -16.8173  -45.3085 C.2       5 UNK         0.5000 
     46 O           1.8667  -17.4714  -45.5947 O.2       5 UNK        -0.5000 
     47 CA          1.0048  -15.3063  -45.0776 C.3       5 UNK         0.1400 
     48 CB          0.6077  -14.5322  -46.3378 C.3       5 UNK        -0.1800 
     49 N           0.2016  -14.8590  -43.9423 N.am      5 UNK        -0.5000 
     50 C           0.5096  -15.1217  -42.6647 C.2       4 UNK         0.5000 
     51 O           1.5176  -15.7377  -42.3161 O.2       4 UNK        -0.5000 
     52 CA         -0.5060  -14.6589  -41.6046 C.3       4 UNK         0.1400 
     53 CB         -0.3576  -13.1559  -41.3245 C.3       4 UNK        -0.1800 
     54 N          -1.8882  -14.9491  -41.9887 N.am      4 UNK        -0.5000 
     55 C          -2.3823  -16.1842  -42.1503 C.2       3 UNK         0.5000 
     56 O          -1.7298  -17.2099  -41.9665 O.2       3 UNK        -0.5000 
     57 CA         -3.8404  -16.2995  -42.6260 C.3       3 UNK         0.1400 
     58 CB         -4.7935  -16.3397  -41.4224 C.3       3 UNK        -0.1800 
     59 N          -4.2682  -15.2406  -43.5427 N.am      3 UNK        -0.5000 
     60 C          -3.7078  -14.9482  -44.7247 C.2       2 UNK         0.5000 
     61 O          -2.6784  -15.4821  -45.1462 O.2       2 UNK        -0.5000 
     62 CA         -4.4795  -13.9174  -45.5703 C.3       2 UNK         0.1400 
     63 CB         -4.6202  -12.5588  -44.8494 C.3       2 UNK        -0.1800 
     64 N          -3.9589  -13.7532  -46.9301 N.am      2 UNK        -0.5000 
     65 C          -2.8429  -13.1226  -47.3312 C.2       1 UNK         0.5000 
     66 O          -2.0389  -12.5904  -46.5650 O.2       1 UNK        -0.5000 
     67 C          -1.2447  -23.9887  -45.4319 C.2       11 UNK         0.5000 
     68 O          -2.0924  -24.8703  -45.5707 O.2       11 UNK        -0.5000 
     69 N          -1.2600  -23.0698  -44.4502 N.am      12 UNK        -0.5000 
     70 CA         -2.1341  -22.9842  -43.2776 C.3       12 UNK         0.1400 
     71 CB         -1.7202  -24.0496  -42.2411 C.3       12 UNK        -0.1800 
     72 C          -3.6419  -23.0160  -43.6019 C.2       12 UNK         0.5000 
     73 O          -4.2425  -21.9594  -43.7926 O.2       12 UNK        -0.5000 
     74 N          -4.2228  -24.2228  -43.6412 N.am      13 UNK        -0.5000 
     75 CA         -5.6425  -24.4987  -43.8783 C.3       13 UNK         0.1400 
     76 CB         -5.9429  -25.9271  -43.3942 C.3       13 UNK        -0.1800 
     77 C          -6.0988  -24.3084  -45.3416 C.2       13 UNK         0.5000 
     78 O          -7.2900  -24.4565  -45.6218 O.2       13 UNK        -0.5000 
     79 N          -5.1606  -24.0021  -46.2474 N.am      14 UNK        -0.5000 
     80 CA         -5.3971  -23.6594  -47.6511 C.3       14 UNK         0.1400 
     81 CB         -4.0350  -23.5959  -48.3600 C.3       14 UNK        -0.1800 
     82 C          -6.1877  -22.3429  -47.8454 C.2       14 UNK         0.5000 
     83 O          -6.5394  -21.6655  -46.8774 O.2       14 UNK        -0.5000 
     84 N          -6.4461  -22.0029  -49.1167 N.am      15 UNK        -0.5000 
     85 CA         -7.2683  -20.8714  -49.5633 C.3       15 UNK         0.1400 
     86 CB         -7.3319  -20.8900  -51.0996 C.3       15 UNK        -0.1800 
     87 C          -6.8194  -19.4780  -49.0754 C.2       15 UNK         0.5000 
     88 O          -7.6592  -18.5812  -48.9916 O.2       15 UNK        -0.5000 
     89 N          -5.5184  -19.3213  -48.7800 N.am      16 UNK        -0.5000 
     90 CA         -4.8703  -18.1001  -48.2787 C.3       16 UNK         0.1400 
     91 CB         -5.3721  -17.7598  -46.8614 C.3       16 UNK        -0.1800 
     92 C          -4.9783  -16.9079  -49.2549 C.2       16 UNK         0.5000 
     93 O          -5.0670  -15.7525  -48.8323 O.2       16 UNK        -0.5000 
     94 N          -4.9525  -17.2190  -50.5545 N.am      17 UNK        -0.5000 
     95 CA         -5.0627  -16.2792  -51.6637 C.3       17 UNK         0.1400 
     96 CB         -6.5408  -16.1370  -52.0732 C.3       17 UNK        -0.1800 
     97 C          -4.1596  -16.7757  -52.7985 C.2       17 UNK         0.5000 
     98 O          -4.6449  -17.1177  -53.8769 O.2       17 UNK        -0.5000 
     99 N          -2.8610  -16.9011  -52.4903 N.am      18 UNK        -0.5000 
    100 CA        -1.7631  -17.4158  -53.3252 C.3       18 UNK         0.1400 
    101 CB        -1.5914  -16.5809  -54.6082 C.3       18 UNK        -0.1800 
    102 C         -1.8338  -18.9227  -53.6495 C.2       18 UNK         0.5000 
    103 O         -0.7969  -19.5061  -53.9586 O.2       18 UNK        -0.5000 
    104 N         -3.0289  -19.5260  -53.5687 N.am      19 UNK        -0.5000 
    105 CA        -3.3302  -20.9566  -53.6909 C.3       19 UNK         0.1400 
    106 CB        -2.8188  -21.7101  -52.4466 C.3       19 UNK        -0.1800 
    107 C         -2.8410  -21.5789  -55.0149 C.2       19 UNK         0.5000 
    108 O         -2.2692  -22.6699  -55.0090 O.2       19 UNK        -0.5000 
    109 N         -3.0594  -20.8543  -56.1235 N.am      20 UNK        -0.5000 
    110 CA        -2.6645  -21.2092  -57.4933 C.3       20 UNK         0.1400 
    111 CB        -3.5097  -22.3924  -58.0108 C.3       20 UNK        -0.1800 
    112 C         -1.1438  -21.4459  -57.6236 C.2       20 UNK         0.5000 
    113 O         -0.7159  -22.4674  -58.1642 O.2       20 UNK        -0.5000 
    114 N         -0.3694  -20.4876  -57.0946 N.am      21 UNK        -0.5000 
    115 CA         1.0897  -20.4961  -56.9580 C.3       21 UNK         0.1400 
    116 CB         1.7956  -20.5852  -58.3286 C.3       21 UNK        -0.1800 
    117 C          1.5654  -21.5545  -55.9427 C.2       21 UNK         0.5000 
    118 O          2.4180  -22.3881  -56.2562 O.2       21 UNK        -0.5000 
    119 N          1.0136  -21.4612  -54.7274 N.am      22 UNK        -0.5000 
    120 CA         1.4093  -22.2024  -53.5209 C.3       22 UNK         0.1400 
    121 C          1.0949  -23.7281  -53.5683 C.2       22 UNK         0.5000 
    122 N          0.0271  -24.1570  -54.2279 N.am      22 UNK        -0.7600 
    123 O          1.8108  -24.5406  -52.9881 O.2       22 UNK        -0.5000 
    124 C124        2.8688  -21.8984  -53.0720 C.3       23 UNK        -0.0398 
    125 S125        3.2706  -20.1142  -52.9843 S.3       23 UNK        -0.2404 
    126 C126        3.2540  -19.7910  -51.1947 C.3       23 UNK        -0.0205 
    127 H127       -6.3298  -13.7065  -50.2216 H         1 UNK         0.0600 
    128 H128       -6.7588  -12.0313  -50.5493 H         1 UNK         0.0600 
    129 H129       -5.8750  -12.9620  -51.7635 H         1 UNK         0.0600 
    130 H130       -4.1708  -14.2269  -49.5803 H         1 UNK         0.3000 
    131 H131       -2.3352  -11.9529  -49.0066 H         1 UNK         0.0600 
    132 H132       -0.5185  -13.5676  -48.8239 H         1 UNK         0.0800 
    133 H133       -1.2188  -13.5361  -50.4102 H         1 UNK         0.0800 
    134 H134        0.7781  -15.6872  -49.3665 H         1 UNK         0.0800 
    135 H135        0.1347  -15.6958  -50.9907 H         1 UNK         0.0800 
    136 H136        2.2395  -17.2869  -50.9289 H         1 UNK         0.1150 
    137 H137        1.2256  -21.4025  -50.3225 H         1 UNK         0.1150 
    138 H138       -1.5679  -18.3468  -49.2535 H         1 UNK         0.1150 
    139 H139       -1.2151  -21.9106  -49.9238 H         1 UNK         0.0800 
    140 H140       -2.2786  -20.6584  -49.3326 H         1 UNK         0.0800 
    141 H141        0.5365  -23.2362  -48.3727 H         1 UNK         0.0800 
    142 H142       -1.1134  -23.7777  -48.2827 H         1 UNK         0.0800 
    143 H143        0.1785  -24.9802  -46.6616 H         1 UNK         0.0600 
    144 H144        1.2564  -22.3872  -45.7686 H         1 UNK         0.3000 
    145 H145        2.5907  -23.0837  -43.1828 H         1 UNK         0.0600 
    146 H146        5.0507  -23.5540  -43.3485 H         1 UNK         0.0600 
    147 H147        4.0875  -25.0203  -43.2943 H         1 UNK         0.0600 
    148 H148        4.7667  -24.4812  -44.8220 H         1 UNK         0.0600 
    149 H149        3.0437  -21.2118  -44.2137 H         1 UNK         0.3000 
    150 H150        5.0761  -20.1397  -46.7544 H         1 UNK         0.0600 
    151 H151        3.1153  -20.6001  -48.2500 H         1 UNK         0.0600 
    152 H152        3.1697  -18.9113  -47.7672 H         1 UNK         0.0600 
    153 H153        2.0192  -20.0109  -47.0107 H         1 UNK         0.0600 
    154 H154        3.0745  -18.7959  -45.1925 H         1 UNK         0.3000 
    155 H155        4.9906  -18.5346  -42.1780 H         1 UNK         0.0600 
    156 H156        4.0114  -16.4744  -44.2234 H         1 UNK         0.0600 
    157 H157        5.6540  -16.6134  -43.6122 H         1 UNK         0.0600 
    158 H158        4.3515  -16.1609  -42.5229 H         1 UNK         0.0600 
    159 H159        2.3398  -17.7086  -42.8133 H         1 UNK         0.3000 
    160 H160        0.6946  -20.7377  -41.7807 H         1 UNK         0.0600 
    161 H161       -0.4402  -19.1076  -40.3133 H         1 UNK         0.0600 
    162 H162        0.8298  -17.9175  -40.5884 H         1 UNK         0.0600 
    163 H163        1.1856  -19.4057  -39.7174 H         1 UNK         0.0600 
    164 H164       -0.2923  -18.2349  -42.7553 H         1 UNK         0.3000 
    165 H165       -0.2780  -19.0958  -46.2274 H         1 UNK         0.0600 
    166 H166       -2.6693  -18.4290  -45.9434 H         1 UNK         0.0600 
    167 H167       -2.3975  -20.0633  -45.3550 H         1 UNK         0.0600 
    168 H168       -2.5588  -18.7434  -44.2113 H         1 UNK         0.0600 
    169 H169       -1.1339  -16.7338  -44.9487 H         1 UNK         0.3000 
    170 H170        2.0533  -15.0880  -44.8648 H         1 UNK         0.0600 
    171 H171        1.2647  -14.7849  -47.1701 H         1 UNK         0.0600 
    172 H172       -0.4121  -14.7697  -46.6392 H         1 UNK         0.0600 
    173 H173        0.6742  -13.4553  -46.1831 H         1 UNK         0.0600 
    174 H174       -0.6783  -14.4106  -44.1575 H         1 UNK         0.3000 
    175 H175       -0.2918  -15.2012  -40.6811 H         1 UNK         0.0600 
    176 H176       -1.0160  -12.8390  -40.5155 H         1 UNK         0.0600 
    177 H177        0.6631  -12.9143  -41.0251 H         1 UNK         0.0600 
    178 H178       -0.5930  -12.5552  -42.2040 H         1 UNK         0.0600 
    179 H179       -2.4923  -14.1610  -42.1687 H         1 UNK         0.3000 
    180 H180       -3.9377  -17.2453  -43.1603 H         1 UNK         0.0600 
    181 H181       -4.7800  -15.4015  -40.8662 H         1 UNK         0.0600 
    182 H182       -4.5153  -17.1358  -40.7302 H         1 UNK         0.0600 
    183 H183       -5.8198  -16.5302  -41.7368 H         1 UNK         0.0600 
    184 H184       -5.1115  -14.7519  -43.2793 H         1 UNK         0.3000 
    185 H185       -5.4832  -14.3241  -45.7033 H         1 UNK         0.0600 
    186 H186       -3.6532  -12.1503  -44.5546 H         1 UNK         0.0600 
    187 H187       -5.1142  -11.8242  -45.4856 H         1 UNK         0.0600 
    188 H188       -5.2204  -12.6502  -43.9439 H         1 UNK         0.0600 
    189 H189       -4.4994  -14.2291  -47.6444 H         1 UNK         0.3000 
    190 H190       -0.5390  -22.3554  -44.4883 H         1 UNK         0.3000 
    191 H191       -1.9410  -22.0076  -42.8302 H         1 UNK         0.0600 
    192 H192       -0.6994  -23.8795  -41.8984 H         1 UNK         0.0600 
    193 H193       -1.7643  -25.0608  -42.6468 H         1 UNK         0.0600 
    194 H194       -2.3650  -24.0154  -41.3619 H         1 UNK         0.0600 
    195 H195       -3.6256  -25.0315  -43.5417 H         1 UNK         0.3000 
    196 H196       -6.2271  -23.8041  -43.2717 H         1 UNK         0.0600 
    197 H197       -7.0027  -26.1638  -43.4972 H         1 UNK         0.0600 
    198 H198       -5.6872  -26.0494  -42.3415 H         1 UNK         0.0600 
    199 H199       -5.3836  -26.6693  -43.9651 H         1 UNK         0.0600 
    200 H200       -4.2056  -23.9371  -45.9220 H         1 UNK         0.3000 
    201 H201       -5.9843  -24.4652  -48.0957 H         1 UNK         0.0600 
    202 H202       -3.4726  -24.5184  -48.2143 H         1 UNK         0.0600 
    203 H203       -3.4371  -22.7720  -47.9743 H         1 UNK         0.0600 
    204 H204       -4.1399  -23.4532  -49.4358 H         1 UNK         0.0600 
    205 H205       -6.1184  -22.6161  -49.8487 H         1 UNK         0.3000 
    206 H206       -8.2767  -21.0340  -49.1776 H         1 UNK         0.0600 
    207 H207       -7.7646  -21.8209  -51.4665 H         1 UNK         0.0600 
    208 H208       -7.9528  -20.0762  -51.4772 H         1 UNK         0.0600 
    209 H209       -6.3421  -20.7804  -51.5448 H         1 UNK         0.0600 
    210 H210       -4.9248  -20.1323  -48.8701 H         1 UNK         0.3000 
    211 H211       -3.8067  -18.3283  -48.2015 H         1 UNK         0.0600 
    212 H212       -5.2926  -18.6203  -46.1967 H         1 UNK         0.0600 
    213 H213       -4.7775  -16.9592  -46.4262 H         1 UNK         0.0600 
    214 H214       -6.4117  -17.4315  -46.8647 H         1 UNK         0.0600 
    215 H215       -4.8659  -18.1923  -50.8084 H         1 UNK         0.3000 
    216 H216       -4.6825  -15.3011  -51.3688 H         1 UNK         0.0600 
    217 H217       -6.6534  -15.4272  -52.8934 H         1 UNK         0.0600 
    218 H218       -7.1477  -15.7760  -51.2430 H         1 UNK         0.0600 
    219 H219       -6.9612  -17.0895  -52.3981 H         1 UNK         0.0600 
    220 H220       -2.5852  -16.6417  -51.5521 H         1 UNK         0.3000 
    221 H221       -0.8577  -17.2843  -52.7322 H         1 UNK         0.0600 
    222 H222       -2.4375  -16.6925  -55.2865 H         1 UNK         0.0600 
    223 H223       -1.4829  -15.5214  -54.3766 H         1 UNK         0.0600 
    224 H224       -0.6973  -16.8865  -55.1530 H         1 UNK         0.0600 
    225 H225       -3.8264  -18.9150  -53.4380 H         1 UNK         0.3000 
    226 H226       -4.4175  -21.0436  -53.7025 H         1 UNK         0.0600 
    227 H227       -3.2413  -21.2881  -51.5354 H         1 UNK         0.0600 
    228 H228       -3.1036  -22.7625  -52.4760 H         1 UNK         0.0600 
    229 H229       -1.7323  -21.6657  -52.3689 H         1 UNK         0.0600 
    230 H230       -3.5186  -19.9607  -56.0157 H         1 UNK         0.3000 
    231 H231       -2.8944  -20.3447  -58.1179 H         1 UNK         0.0600 
    232 H232       -4.5757  -22.1794  -57.9315 H         1 UNK         0.0600 
    233 H233       -3.3091  -23.3092  -57.4555 H         1 UNK         0.0600 
    234 H234       -3.2970  -22.5937  -59.0614 H         1 UNK         0.0600 
    235 H235       -0.8359  -19.7204  -56.6319 H         1 UNK         0.3000 
    236 H236        1.3543  -19.5290  -56.5272 H         1 UNK         0.0600 
    237 H237        2.8713  -20.4442  -58.2174 H         1 UNK         0.0600 
    238 H238        1.6457  -21.5526  -58.8079 H         1 UNK         0.0600 
    239 H239        1.4359  -19.8133  -59.0087 H         1 UNK         0.0600 
    240 H240        0.3143  -20.7384  -54.5623 H         1 UNK         0.3000 
    241 H241        0.7574  -21.8189  -52.7369 H         1 UNK         0.0600 
    242 H242       -0.1702  -25.1439  -54.2536 H         1 UNK         0.3800 
    243 H243       -0.6351  -23.5076  -54.6469 H         1 UNK         0.3800 
    244 H244        3.0670  -22.3578  -52.1028 H         1 UNK         0.0800 
    245 H245        3.5744  -22.3599  -53.7643 H         1 UNK         0.0800 
    246 H246        3.9641  -18.9898  -50.9845 H         1 UNK         0.0800 
    247 H247        3.6214  -20.6593  -50.6469 H         1 UNK         0.0800 
@<TRIPOS>BOND
     1    1    2 1    
     2    1  127 1    
     3    1  128 1    
     4    1  129 1    
     5    2    3 2    
     6    2    4 am   BACKBONE|DICT|INTERRES
     7    4    5 1    
     8    4  130 1    
     9    5    6 1    
    10    5   65 1    
    11    5  131 1    
    12    6    7 1    
    13    6  132 1    
    14    6  133 1    
    15    7    8 1    
    16    8    9 1    
    17    8  134 1    
    18    8  135 1    
    19    9   10 ar   
    20    9   14 ar   
    21   10   11 ar   
    22   10  136 1    
    23   11   12 ar   
    24   11  126 1    
    25   12   13 ar   
    26   12  137 1    
    27   13   14 ar   
    28   13   15 1    
    29   14  138 1    
    30   15   16 1    
    31   15  139 1    
    32   15  140 1    
    33   16   17 1    
    34   17   18 1    
    35   17  141 1    
    36   17  142 1    
    37   18   19 1    
    38   18   67 1    
    39   18  143 1    
    40   19   20 am   BACKBONE|DICT|INTERRES
    41   19  144 1    
    42   20   21 2    
    43   20   22 1    
    44   22   23 1    
    45   22   24 1    
    46   22  145 1    
    47   23  146 1    
    48   23  147 1    
    49   23  148 1    
    50   24   25 am   BACKBONE|DICT|INTERRES
    51   24  149 1    
    52   25   26 2    
    53   25   27 1    
    54   27   28 1    
    55   27   29 1    
    56   27  150 1    
    57   28  151 1    
    58   28  152 1    
    59   28  153 1    
    60   29   30 am   BACKBONE|DICT|INTERRES
    61   29  154 1    
    62   30   31 2    
    63   30   32 1    
    64   32   33 1    
    65   32   34 1    
    66   32  155 1    
    67   33  156 1    
    68   33  157 1    
    69   33  158 1    
    70   34   35 am   BACKBONE|DICT|INTERRES
    71   34  159 1    
    72   35   36 2    
    73   35   37 1    
    74   37   38 1    
    75   37   39 1    
    76   37  160 1    
    77   38  161 1    
    78   38  162 1    
    79   38  163 1    
    80   39   40 am   BACKBONE|DICT|INTERRES
    81   39  164 1    
    82   40   41 2    
    83   40   42 1    
    84   42   43 1    
    85   42   44 1    
    86   42  165 1    
    87   43  166 1    
    88   43  167 1    
    89   43  168 1    
    90   44   45 am   BACKBONE|DICT|INTERRES
    91   44  169 1    
    92   45   46 2    
    93   45   47 1    
    94   47   48 1    
    95   47   49 1    
    96   47  170 1    
    97   48  171 1    
    98   48  172 1    
    99   48  173 1    
   100   49   50 am   BACKBONE|DICT|INTERRES
   101   49  174 1    
   102   50   51 2    
   103   50   52 1    
   104   52   53 1    
   105   52   54 1    
   106   52  175 1    
   107   53  176 1    
   108   53  177 1    
   109   53  178 1    
   110   54   55 am   BACKBONE|DICT|INTERRES
   111   54  179 1    
   112   55   56 2    
   113   55   57 1    
   114   57   58 1    
   115   57   59 1    
   116   57  180 1    
   117   58  181 1    
   118   58  182 1    
   119   58  183 1    
   120   59   60 am   BACKBONE|DICT|INTERRES
   121   59  184 1    
   122   60   61 2    
   123   60   62 1    
   124   62   63 1    
   125   62   64 1    
   126   62  185 1    
   127   63  186 1    
   128   63  187 1    
   129   63  188 1    
   130   64   65 am   BACKBONE|DICT|INTERRES
   131   64  189 1    
   132   65   66 2    
   133   67   68 2    
   134   67   69 am   BACKBONE|DICT|INTERRES
   135   69   70 1    
   136   69  190 1    
   137   70   71 1    
   138   70   72 1    
   139   70  191 1    
   140   71  192 1    
   141   71  193 1    
   142   71  194 1    
   143   72   73 2    
   144   72   74 am   BACKBONE|DICT|INTERRES
   145   74   75 1    
   146   74  195 1    
   147   75   76 1    
   148   75   77 1    
   149   75  196 1    
   150   76  197 1    
   151   76  198 1    
   152   76  199 1    
   153   77   78 2    
   154   77   79 am   BACKBONE|DICT|INTERRES
   155   79   80 1    
   156   79  200 1    
   157   80   81 1    
   158   80   82 1    
   159   80  201 1    
   160   81  202 1    
   161   81  203 1    
   162   81  204 1    
   163   82   83 2    
   164   82   84 am   BACKBONE|DICT|INTERRES
   165   84   85 1    
   166   84  205 1    
   167   85   86 1    
   168   85   87 1    
   169   85  206 1    
   170   86  207 1    
   171   86  208 1    
   172   86  209 1    
   173   87   88 2    
   174   87   89 am   BACKBONE|DICT|INTERRES
   175   89   90 1    
   176   89  210 1    
   177   90   91 1    
   178   90   92 1    
   179   90  211 1    
   180   91  212 1    
   181   91  213 1    
   182   91  214 1    
   183   92   93 2    
   184   92   94 am   BACKBONE|DICT|INTERRES
   185   94   95 1    
   186   94  215 1    
   187   95   96 1    
   188   95   97 1    
   189   95  216 1    
   190   96  217 1    
   191   96  218 1    
   192   96  219 1    
   193   97   98 2    
   194   97   99 am   BACKBONE|DICT|INTERRES
   195   99  100 1    
   196   99  220 1    
   197  100  101 1    
   198  100  102 1    
   199  100  221 1    
   200  101  222 1    
   201  101  223 1    
   202  101  224 1    
   203  102  103 2    
   204  102  104 am   BACKBONE|DICT|INTERRES
   205  104  105 1    
   206  104  225 1    
   207  105  106 1    
   208  105  107 1    
   209  105  226 1    
   210  106  227 1    
   211  106  228 1    
   212  106  229 1    
   213  107  108 2    
   214  107  109 am   BACKBONE|DICT|INTERRES
   215  109  110 1    
   216  109  230 1    
   217  110  111 1    
   218  110  112 1    
   219  110  231 1    
   220  111  232 1    
   221  111  233 1    
   222  111  234 1    
   223  112  113 2    
   224  112  114 am   BACKBONE|DICT|INTERRES
   225  114  115 1    
   226  114  235 1    
   227  115  116 1    
   228  115  117 1    
   229  115  236 1    
   230  116  237 1    
   231  116  238 1    
   232  116  239 1    
   233  117  118 2    
   234  117  119 am   BACKBONE|DICT|INTERRES
   235  119  120 1    
   236  119  240 1    
   237  120  121 1    
   238  120  124 1    
   239  120  241 1    
   240  121  122 am   BACKBONE|DICT|INTERRES
   241  121  123 2    
   242  122  242 1    
   243  122  243 1    
   244  124  125 1    
   245  124  244 1    
   246  124  245 1    
   247  125  126 1    
   248  126  246 1    
   249  126  247 1    
@<TRIPOS>SUBSTRUCTURE
     1 UNK         1 GROUP             0       ****    0 ROOT    
