@<TRIPOS>MOLECULE
3R540
247   249    1
SMALL
USER_CHARGES


@<TRIPOS>ATOM
      1 CA          1.0993  -12.5648  -45.9016 C.3       0 UNK        -0.1800 
      2 C          -0.3704  -12.9079  -46.0923 C.2       0 UNK         0.5000 
      3 O          -1.2124  -12.4294  -45.3328 O.2       0 UNK        -0.5000 
      4 N          -0.6802  -13.7149  -47.1167 N.am      1 UNK        -0.5000 
      5 CA         -2.0064  -14.2837  -47.4098 C.3       1 UNK         0.1400 
      6 C6         -1.9733  -15.2497  -48.6215 C.3       23 UNK        -0.0398 
      7 S7         -0.6551  -16.5084  -48.5223 S.3       23 UNK        -0.2404 
      8 C8          0.1186  -16.3136  -50.1677 C.3       23 UNK        -0.0205 
      9 C9          1.2779  -17.2600  -50.4878 C.ar      23 UNK        -0.0193 
     10 C10         1.8493  -17.1904  -51.7620 C.ar      23 UNK        -0.1150 
     11 C11         2.9156  -18.0207  -52.1201 C.ar      23 UNK        -0.0193 
     12 C12         3.4123  -18.9379  -51.1908 C.ar      23 UNK        -0.1150 
     13 C13         2.8449  -19.0350  -49.9190 C.ar      23 UNK        -0.0193 
     14 C14         1.7904  -18.1860  -49.5700 C.ar      23 UNK        -0.1150 
     15 C15         3.3710  -20.0605  -48.9259 C.3       23 UNK        -0.0205 
     16 S16         2.5963  -21.6934  -49.1623 S.3       23 UNK        -0.2404 
     17 C17         0.8667  -21.3470  -48.6965 C.3       23 UNK        -0.0398 
     18 CA          0.1652  -22.5296  -47.9901 C.3       11 UNK         0.1400 
     19 N           0.9098  -23.0153  -46.8242 N.am      11 UNK        -0.5000 
     20 C           0.6267  -24.1425  -46.1573 C.2       10 UNK         0.5000 
     21 O          -0.3191  -24.8818  -46.4294 O.2       10 UNK        -0.5000 
     22 CA          1.5308  -24.4767  -44.9578 C.3       10 UNK         0.1400 
     23 CB          2.7848  -25.2275  -45.4291 C.3       10 UNK        -0.1800 
     24 N           1.9416  -23.3154  -44.1651 N.am      10 UNK        -0.5000 
     25 C           1.1455  -22.3926  -43.6108 C.2       9 UNK         0.5000 
     26 O          -0.0721  -22.3451  -43.7904 O.2       9 UNK        -0.5000 
     27 CA          1.8209  -21.3209  -42.7327 C.3       9 UNK         0.1400 
     28 CB          2.1186  -21.8641  -41.3234 C.3       9 UNK        -0.1800 
     29 N           3.0082  -20.6964  -43.3347 N.am      9 UNK        -0.5000 
     30 C           4.1973  -21.2385  -43.6455 C.2       8 UNK         0.5000 
     31 O           4.4911  -22.4123  -43.4163 O.2       8 UNK        -0.5000 
     32 CA          5.2169  -20.3476  -44.3857 C.3       8 UNK         0.1400 
     33 CB          5.4911  -20.9144  -45.7887 C.3       8 UNK        -0.1800 
     34 N           4.7664  -18.9608  -44.5248 N.am      8 UNK        -0.5000 
     35 C           4.9748  -17.9923  -43.6227 C.2       7 UNK         0.5000 
     36 O           5.6295  -18.1437  -42.5911 O.2       7 UNK        -0.5000 
     37 CA          4.3062  -16.6324  -43.9109 C.3       7 UNK         0.1400 
     38 CB          5.2515  -15.7252  -44.7131 C.3       7 UNK        -0.1800 
     39 N           3.0287  -16.7468  -44.6249 N.am      7 UNK        -0.5000 
     40 C           1.9353  -17.3418  -44.1302 C.2       6 UNK         0.5000 
     41 O           1.8984  -17.9024  -43.0332 O.2       6 UNK        -0.5000 
     42 CA          0.6995  -17.3913  -45.0458 C.3       6 UNK         0.1400 
     43 CB          0.6820  -18.7268  -45.8053 C.3       6 UNK        -0.1800 
     44 N          -0.5511  -17.2696  -44.2986 N.am      6 UNK        -0.5000 
     45 C          -0.9098  -16.2147  -43.5582 C.2       5 UNK         0.5000 
     46 O          -0.2442  -15.1803  -43.4645 O.2       5 UNK        -0.5000 
     47 CA         -2.2194  -16.3748  -42.7630 C.3       5 UNK         0.1400 
     48 CB         -1.9894  -17.2446  -41.5162 C.3       5 UNK        -0.1800 
     49 N          -2.7530  -15.0816  -42.3403 N.am      5 UNK        -0.5000 
     50 C          -3.3842  -14.2192  -43.1456 C.2       4 UNK         0.5000 
     51 O          -3.6960  -14.4839  -44.3072 O.2       4 UNK        -0.5000 
     52 CA         -3.7407  -12.8396  -42.5640 C.3       4 UNK         0.1400 
     53 CB         -3.0918  -12.5407  -41.1923 C.3       4 UNK        -0.1800 
     54 N          -3.3679  -11.8120  -43.5310 N.am      4 UNK        -0.5000 
     55 C          -3.8764  -10.5759  -43.5815 C.2       3 UNK         0.5000 
     56 O          -4.7640  -10.1692  -42.8301 O.2       3 UNK        -0.5000 
     57 CA         -3.2979   -9.6298  -44.6443 C.3       3 UNK         0.1400 
     58 CB         -1.9315   -9.0866  -44.1951 C.3       3 UNK        -0.1800 
     59 N          -3.1450  -10.2997  -45.9345 N.am      3 UNK        -0.5000 
     60 C          -3.9801  -10.1551  -46.9723 C.2       2 UNK         0.5000 
     61 O          -4.9943   -9.4566  -46.9402 O.2       2 UNK        -0.5000 
     62 CA         -3.6205  -10.8874  -48.2805 C.3       2 UNK         0.1400 
     63 CB         -2.9597   -9.9160  -49.2711 C.3       2 UNK        -0.1800 
     64 N          -2.7258  -12.0257  -48.0744 N.am      2 UNK        -0.5000 
     65 C          -3.1150  -13.2283  -47.6304 C.2       1 UNK         0.5000 
     66 O          -4.2908  -13.5231  -47.4144 O.2       1 UNK        -0.5000 
     67 C          -1.2894  -22.1448  -47.6417 C.2       11 UNK         0.5000 
     68 O          -2.1847  -22.3359  -48.4672 O.2       11 UNK        -0.5000 
     69 N          -1.4889  -21.6121  -46.4271 N.am      12 UNK        -0.5000 
     70 CA         -2.7983  -21.2633  -45.8823 C.3       12 UNK         0.1400 
     71 CB         -2.6527  -20.1233  -44.8634 C.3       12 UNK        -0.1800 
     72 C          -3.4819  -22.4863  -45.2525 C.2       12 UNK         0.5000 
     73 O          -4.6848  -22.6663  -45.4400 O.2       12 UNK        -0.5000 
     74 N          -2.7010  -23.3201  -44.5481 N.am      13 UNK        -0.5000 
     75 CA         -3.1565  -24.5494  -43.8920 C.3       13 UNK         0.1400 
     76 CB         -1.9996  -25.1643  -43.0925 C.3       13 UNK        -0.1800 
     77 C          -3.7496  -25.5834  -44.8679 C.2       13 UNK         0.5000 
     78 O          -4.7047  -26.2743  -44.5112 O.2       13 UNK        -0.5000 
     79 N          -3.2255  -25.6285  -46.1006 N.am      14 UNK        -0.5000 
     80 CA         -3.7335  -26.4124  -47.2301 C.3       14 UNK         0.1400 
     81 CB         -2.6055  -26.5533  -48.2678 C.3       14 UNK        -0.1800 
     82 C          -5.0240  -25.8152  -47.8422 C.2       14 UNK         0.5000 
     83 O          -5.1014  -25.6267  -49.0580 O.2       14 UNK        -0.5000 
     84 N          -6.0042  -25.4925  -46.9837 N.am      15 UNK        -0.5000 
     85 CA         -7.3271  -24.9203  -47.2783 C.3       15 UNK         0.1400 
     86 CB         -8.2157  -25.9856  -47.9526 C.3       15 UNK        -0.1800 
     87 C          -7.2851  -23.6014  -48.0848 C.2       15 UNK         0.5000 
     88 O          -8.2338  -23.2934  -48.8078 O.2       15 UNK        -0.5000 
     89 N          -6.1618  -22.8758  -47.9817 N.am      16 UNK        -0.5000 
     90 CA         -5.7531  -21.7101  -48.7729 C.3       16 UNK         0.1400 
     91 CB         -6.6562  -20.4987  -48.4703 C.3       16 UNK        -0.1800 
     92 C          -5.6137  -21.9690  -50.2903 C.2       16 UNK         0.5000 
     93 O          -5.4098  -21.0158  -51.0420 O.2       16 UNK        -0.5000 
     94 N          -5.6956  -23.2332  -50.7299 N.am      17 UNK        -0.5000 
     95 CA         -5.6461  -23.6231  -52.1378 C.3       17 UNK         0.1400 
     96 CB         -6.1387  -25.0698  -52.2892 C.3       17 UNK        -0.1800 
     97 C          -4.2384  -23.4573  -52.7253 C.2       17 UNK         0.5000 
     98 O          -4.0993  -22.9735  -53.8480 O.2       17 UNK        -0.5000 
     99 N          -3.2193  -23.8180  -51.9340 N.am      18 UNK        -0.5000 
    100 CA        -1.8110  -23.6306  -52.2744 C.3       18 UNK         0.1400 
    101 CB        -0.9370  -24.4045  -51.2800 C.3       18 UNK        -0.1800 
    102 C         -1.4251  -22.1424  -52.3351 C.2       18 UNK         0.5000 
    103 O         -0.7434  -21.7373  -53.2749 O.2       18 UNK        -0.5000 
    104 N         -1.9181  -21.3465  -51.3742 N.am      19 UNK        -0.5000 
    105 CA        -1.7831  -19.8881  -51.3549 C.3       19 UNK         0.1400 
    106 CB        -2.3681  -19.3277  -50.0489 C.3       19 UNK        -0.1800 
    107 C         -2.4316  -19.2141  -52.5776 C.2       19 UNK         0.5000 
    108 O         -1.7983  -18.3657  -53.2059 O.2       19 UNK        -0.5000 
    109 N         -3.6617  -19.6286  -52.9132 N.am      20 UNK        -0.5000 
    110 CA        -4.4134  -19.1478  -54.0737 C.3       20 UNK         0.1400 
    111 CB        -5.8517  -19.6840  -54.0132 C.3       20 UNK        -0.1800 
    112 C         -3.7550  -19.5084  -55.4185 C.2       20 UNK         0.5000 
    113 O         -3.7562  -18.6802  -56.3301 O.2       20 UNK        -0.5000 
    114 N         -3.1984  -20.7239  -55.5169 N.am      21 UNK        -0.5000 
    115 CA        -2.4565  -21.1997  -56.6849 C.3       21 UNK         0.1400 
    116 CB        -2.2436  -22.7175  -56.5756 C.3       21 UNK        -0.1800 
    117 C         -1.1117  -20.4721  -56.8663 C.2       21 UNK         0.5000 
    118 O         -0.7647  -20.1089  -57.9912 O.2       21 UNK        -0.5000 
    119 N         -0.3843  -20.2773  -55.7601 N.am      22 UNK        -0.5000 
    120 CA         0.8930  -19.5550  -55.7105 C.3       22 UNK         0.1400 
    121 C          0.7432  -18.0250  -55.9459 C.2       22 UNK         0.5000 
    122 N         -0.2274  -17.3620  -55.3299 N.am      22 UNK        -0.7600 
    123 O          1.5060  -17.4347  -56.7060 O.2       22 UNK        -0.5000 
    124 C124        1.6366  -19.8694  -54.3912 C.3       23 UNK        -0.0398 
    125 S125        3.4247  -19.5025  -54.4360 S.3       23 UNK        -0.2404 
    126 C126        3.5192  -17.9304  -53.5158 C.3       23 UNK        -0.0205 
    127 H127        1.2384  -11.4840  -45.9214 H         1 UNK         0.0600 
    128 H128        1.7238  -13.0044  -46.6796 H         1 UNK         0.0600 
    129 H129        1.4440  -12.9375  -44.9368 H         1 UNK         0.0600 
    130 H130        0.0639  -14.0638  -47.7035 H         1 UNK         0.3000 
    131 H131       -2.2913  -14.8652  -46.5313 H         1 UNK         0.0600 
    132 H132       -1.8582  -14.6856  -49.5491 H         1 UNK         0.0800 
    133 H133       -2.9250  -15.7774  -48.7078 H         1 UNK         0.0800 
    134 H134        0.4759  -15.2874  -50.2640 H         1 UNK         0.0800 
    135 H135       -0.6534  -16.4498  -50.9272 H         1 UNK         0.0800 
    136 H136        1.4576  -16.4847  -52.4816 H         1 UNK         0.1150 
    137 H137        4.2288  -19.5908  -51.4661 H         1 UNK         0.1150 
    138 H138        1.3699  -18.2594  -48.5811 H         1 UNK         0.1150 
    139 H139        4.4507  -20.1641  -49.0438 H         1 UNK         0.0800 
    140 H140        3.2112  -19.7188  -47.9037 H         1 UNK         0.0800 
    141 H141        0.3334  -21.0758  -49.6081 H         1 UNK         0.0800 
    142 H142        0.8418  -20.4684  -48.0545 H         1 UNK         0.0800 
    143 H143        0.1248  -23.3584  -48.6959 H         1 UNK         0.0600 
    144 H144        1.7181  -22.4801  -46.5452 H         1 UNK         0.3000 
    145 H145        0.9725  -25.1382  -44.2952 H         1 UNK         0.0600 
    146 H146        3.3854  -25.5617  -44.5828 H         1 UNK         0.0600 
    147 H147        2.5177  -26.1132  -46.0071 H         1 UNK         0.0600 
    148 H148        3.4160  -24.5999  -46.0598 H         1 UNK         0.0600 
    149 H149        2.9341  -23.2379  -43.9554 H         1 UNK         0.3000 
    150 H150        1.0933  -20.5158  -42.6190 H         1 UNK         0.0600 
    151 H151        1.2077  -22.2323  -40.8496 H         1 UNK         0.0600 
    152 H152        2.5264  -21.0839  -40.6807 H         1 UNK         0.0600 
    153 H153        2.8307  -22.6894  -41.3425 H         1 UNK         0.0600 
    154 H154        2.8943  -19.7073  -43.5184 H         1 UNK         0.3000 
    155 H155        6.1503  -20.3735  -43.8195 H         1 UNK         0.0600 
    156 H156        4.5759  -21.0014  -46.3741 H         1 UNK         0.0600 
    157 H157        5.9325  -21.9101  -45.7281 H         1 UNK         0.0600 
    158 H158        6.1890  -20.2860  -46.3423 H         1 UNK         0.0600 
    159 H159        4.2324  -18.7369  -45.3508 H         1 UNK         0.3000 
    160 H160        4.1090  -16.1541  -42.9491 H         1 UNK         0.0600 
    161 H161        5.4651  -16.1373  -45.7001 H         1 UNK         0.0600 
    162 H162        6.2041  -15.5998  -44.1966 H         1 UNK         0.0600 
    163 H163        4.8242  -14.7313  -44.8486 H         1 UNK         0.0600 
    164 H164        2.9877  -16.3194  -45.5388 H         1 UNK         0.3000 
    165 H165        0.7521  -16.5680  -45.7611 H         1 UNK         0.0600 
    166 H166       -0.1271  -18.7560  -46.5350 H         1 UNK         0.0600 
    167 H167        1.6166  -18.8802  -46.3430 H         1 UNK         0.0600 
    168 H168        0.5541  -19.5731  -45.1298 H         1 UNK         0.0600 
    169 H169       -1.1380  -18.0885  -44.2840 H         1 UNK         0.3000 
    170 H170       -2.9556  -16.8681  -43.4016 H         1 UNK         0.0600 
    171 H171       -1.6291  -18.2375  -41.7887 H         1 UNK         0.0600 
    172 H172       -1.2504  -16.8013  -40.8475 H         1 UNK         0.0600 
    173 H173       -2.9133  -17.3802  -40.9536 H         1 UNK         0.0600 
    174 H174       -2.4974  -14.7734  -41.4140 H         1 UNK         0.3000 
    175 H175       -4.8258  -12.8291  -42.4439 H         1 UNK         0.0600 
    176 H176       -2.0026  -12.5572  -41.2510 H         1 UNK         0.0600 
    177 H177       -3.3852  -11.5591  -40.8204 H         1 UNK         0.0600 
    178 H178       -3.4024  -13.2639  -40.4374 H         1 UNK         0.0600 
    179 H179       -2.6551  -12.0889  -44.2043 H         1 UNK         0.3000 
    180 H180       -3.9762   -8.7790  -44.7369 H         1 UNK         0.0600 
    181 H181       -1.5404   -8.3658  -44.9132 H         1 UNK         0.0600 
    182 H182       -1.1940   -9.8828  -44.0857 H         1 UNK         0.0600 
    183 H183       -2.0107   -8.5778  -43.2335 H         1 UNK         0.0600 
    184 H184       -2.3746  -10.9550  -46.0098 H         1 UNK         0.3000 
    185 H185       -4.5514  -11.2448  -48.7261 H         1 UNK         0.0600 
    186 H186       -2.7547  -10.4032  -50.2246 H         1 UNK         0.0600 
    187 H187       -3.6098   -9.0644  -49.4763 H         1 UNK         0.0600 
    188 H188       -2.0182   -9.5241  -48.8839 H         1 UNK         0.0600 
    189 H189       -1.7412  -11.8683  -48.2333 H         1 UNK         0.3000 
    190 H190       -0.7105  -21.5725  -45.7830 H         1 UNK         0.3000 
    191 H191       -3.4368  -20.8977  -46.6871 H         1 UNK         0.0600 
    192 H192       -3.6113  -19.8914  -44.3973 H         1 UNK         0.0600 
    193 H193       -2.3070  -19.2147  -45.3540 H         1 UNK         0.0600 
    194 H194       -1.9516  -20.3737  -44.0666 H         1 UNK         0.0600 
    195 H195       -1.7276  -23.0671  -44.4048 H         1 UNK         0.3000 
    196 H196       -3.9441  -24.2691  -43.1897 H         1 UNK         0.0600 
    197 H197       -1.2098  -25.5242  -43.7501 H         1 UNK         0.0600 
    198 H198       -1.5634  -24.4425  -42.4017 H         1 UNK         0.0600 
    199 H199       -2.3442  -26.0143  -42.5024 H         1 UNK         0.0600 
    200 H200       -2.4064  -25.0603  -46.2874 H         1 UNK         0.3000 
    201 H201       -3.9848  -27.4127  -46.8724 H         1 UNK         0.0600 
    202 H202       -2.3002  -25.5812  -48.6554 H         1 UNK         0.0600 
    203 H203       -2.9184  -27.1657  -49.1144 H         1 UNK         0.0600 
    204 H204       -1.7264  -27.0285  -47.8322 H         1 UNK         0.0600 
    205 H205       -5.8172  -25.6759  -46.0023 H         1 UNK         0.3000 
    206 H206       -7.7744  -24.6716  -46.3151 H         1 UNK         0.0600 
    207 H207       -8.2479  -26.9024  -47.3638 H         1 UNK         0.0600 
    208 H208       -9.2430  -25.6345  -48.0571 H         1 UNK         0.0600 
    209 H209       -7.8526  -26.2397  -48.9491 H         1 UNK         0.0600 
    210 H210       -5.4820  -23.1842  -47.2955 H         1 UNK         0.3000 
    211 H211       -4.7491  -21.4610  -48.4353 H         1 UNK         0.0600 
    212 H212       -6.2702  -19.5940  -48.9417 H         1 UNK         0.0600 
    213 H213       -6.7096  -20.3063  -47.3987 H         1 UNK         0.0600 
    214 H214       -7.6719  -20.6491  -48.8369 H         1 UNK         0.0600 
    215 H215       -5.7847  -23.9841  -50.0534 H         1 UNK         0.3000 
    216 H216       -6.3229  -22.9734  -52.6967 H         1 UNK         0.0600 
    217 H217       -5.4947  -25.7745  -51.7619 H         1 UNK         0.0600 
    218 H218       -6.1591  -25.3660  -53.3388 H         1 UNK         0.0600 
    219 H219       -7.1499  -25.1843  -51.8980 H         1 UNK         0.0600 
    220 H220       -3.4299  -24.1953  -51.0209 H         1 UNK         0.3000 
    221 H221       -1.6411  -24.0509  -53.2680 H         1 UNK         0.0600 
    222 H222       -1.0560  -25.4801  -51.4106 H         1 UNK         0.0600 
    223 H223       -1.2073  -24.1675  -50.2538 H         1 UNK         0.0600 
    224 H224        0.1209  -24.1734  -51.4131 H         1 UNK         0.0600 
    225 H225       -2.4447  -21.7645  -50.6180 H         1 UNK         0.3000 
    226 H226       -0.7182  -19.6464  -51.3806 H         1 UNK         0.0600 
    227 H227       -3.3726  -19.7032  -49.8573 H         1 UNK         0.0600 
    228 H228       -1.7449  -19.5838  -49.1931 H         1 UNK         0.0600 
    229 H229       -2.4338  -18.2404  -50.0852 H         1 UNK         0.0600 
    230 H230       -4.1393  -20.2936  -52.3111 H         1 UNK         0.3000 
    231 H231       -4.4564  -18.0585  -54.0106 H         1 UNK         0.0600 
    232 H232       -5.8753  -20.7740  -54.0286 H         1 UNK         0.0600 
    233 H233       -6.4379  -19.3297  -54.8620 H         1 UNK         0.0600 
    234 H234       -6.3582  -19.3514  -53.1070 H         1 UNK         0.0600 
    235 H235       -3.3042  -21.3766  -54.7466 H         1 UNK         0.3000 
    236 H236       -3.0623  -21.0075  -57.5729 H         1 UNK         0.0600 
    237 H237       -3.1960  -23.2462  -56.5343 H         1 UNK         0.0600 
    238 H238       -1.6966  -23.0991  -57.4386 H         1 UNK         0.0600 
    239 H239       -1.6763  -22.9817  -55.6825 H         1 UNK         0.0600 
    240 H240       -0.7232  -20.6474  -54.8769 H         1 UNK         0.3000 
    241 H241        1.5023  -19.9449  -56.5285 H         1 UNK         0.0600 
    242 H242       -0.3317  -16.3747  -55.4972 H         1 UNK         0.3800 
    243 H243       -0.8396  -17.8208  -54.6574 H         1 UNK         0.3800 
    244 H244        1.5693  -20.9383  -54.1863 H         1 UNK         0.0800 
    245 H245        1.1465  -19.3845  -53.5465 H         1 UNK         0.0800 
    246 H246        4.5657  -17.6358  -53.4289 H         1 UNK         0.0800 
    247 H247        3.0300  -17.1501  -54.1007 H         1 UNK         0.0800 
@<TRIPOS>BOND
     1    1    2 1    
     2    1  127 1    
     3    1  128 1    
     4    1  129 1    
     5    2    3 2    
     6    2    4 am   BACKBONE|DICT|INTERRES
     7    4    5 1    
     8    4  130 1    
     9    5    6 1    
    10    5   65 1    
    11    5  131 1    
    12    6    7 1    
    13    6  132 1    
    14    6  133 1    
    15    7    8 1    
    16    8    9 1    
    17    8  134 1    
    18    8  135 1    
    19    9   10 ar   
    20    9   14 ar   
    21   10   11 ar   
    22   10  136 1    
    23   11   12 ar   
    24   11  126 1    
    25   12   13 ar   
    26   12  137 1    
    27   13   14 ar   
    28   13   15 1    
    29   14  138 1    
    30   15   16 1    
    31   15  139 1    
    32   15  140 1    
    33   16   17 1    
    34   17   18 1    
    35   17  141 1    
    36   17  142 1    
    37   18   19 1    
    38   18   67 1    
    39   18  143 1    
    40   19   20 am   BACKBONE|DICT|INTERRES
    41   19  144 1    
    42   20   21 2    
    43   20   22 1    
    44   22   23 1    
    45   22   24 1    
    46   22  145 1    
    47   23  146 1    
    48   23  147 1    
    49   23  148 1    
    50   24   25 am   BACKBONE|DICT|INTERRES
    51   24  149 1    
    52   25   26 2    
    53   25   27 1    
    54   27   28 1    
    55   27   29 1    
    56   27  150 1    
    57   28  151 1    
    58   28  152 1    
    59   28  153 1    
    60   29   30 am   BACKBONE|DICT|INTERRES
    61   29  154 1    
    62   30   31 2    
    63   30   32 1    
    64   32   33 1    
    65   32   34 1    
    66   32  155 1    
    67   33  156 1    
    68   33  157 1    
    69   33  158 1    
    70   34   35 am   BACKBONE|DICT|INTERRES
    71   34  159 1    
    72   35   36 2    
    73   35   37 1    
    74   37   38 1    
    75   37   39 1    
    76   37  160 1    
    77   38  161 1    
    78   38  162 1    
    79   38  163 1    
    80   39   40 am   BACKBONE|DICT|INTERRES
    81   39  164 1    
    82   40   41 2    
    83   40   42 1    
    84   42   43 1    
    85   42   44 1    
    86   42  165 1    
    87   43  166 1    
    88   43  167 1    
    89   43  168 1    
    90   44   45 am   BACKBONE|DICT|INTERRES
    91   44  169 1    
    92   45   46 2    
    93   45   47 1    
    94   47   48 1    
    95   47   49 1    
    96   47  170 1    
    97   48  171 1    
    98   48  172 1    
    99   48  173 1    
   100   49   50 am   BACKBONE|DICT|INTERRES
   101   49  174 1    
   102   50   51 2    
   103   50   52 1    
   104   52   53 1    
   105   52   54 1    
   106   52  175 1    
   107   53  176 1    
   108   53  177 1    
   109   53  178 1    
   110   54   55 am   BACKBONE|DICT|INTERRES
   111   54  179 1    
   112   55   56 2    
   113   55   57 1    
   114   57   58 1    
   115   57   59 1    
   116   57  180 1    
   117   58  181 1    
   118   58  182 1    
   119   58  183 1    
   120   59   60 am   BACKBONE|DICT|INTERRES
   121   59  184 1    
   122   60   61 2    
   123   60   62 1    
   124   62   63 1    
   125   62   64 1    
   126   62  185 1    
   127   63  186 1    
   128   63  187 1    
   129   63  188 1    
   130   64   65 am   BACKBONE|DICT|INTERRES
   131   64  189 1    
   132   65   66 2    
   133   67   68 2    
   134   67   69 am   BACKBONE|DICT|INTERRES
   135   69   70 1    
   136   69  190 1    
   137   70   71 1    
   138   70   72 1    
   139   70  191 1    
   140   71  192 1    
   141   71  193 1    
   142   71  194 1    
   143   72   73 2    
   144   72   74 am   BACKBONE|DICT|INTERRES
   145   74   75 1    
   146   74  195 1    
   147   75   76 1    
   148   75   77 1    
   149   75  196 1    
   150   76  197 1    
   151   76  198 1    
   152   76  199 1    
   153   77   78 2    
   154   77   79 am   BACKBONE|DICT|INTERRES
   155   79   80 1    
   156   79  200 1    
   157   80   81 1    
   158   80   82 1    
   159   80  201 1    
   160   81  202 1    
   161   81  203 1    
   162   81  204 1    
   163   82   83 2    
   164   82   84 am   BACKBONE|DICT|INTERRES
   165   84   85 1    
   166   84  205 1    
   167   85   86 1    
   168   85   87 1    
   169   85  206 1    
   170   86  207 1    
   171   86  208 1    
   172   86  209 1    
   173   87   88 2    
   174   87   89 am   BACKBONE|DICT|INTERRES
   175   89   90 1    
   176   89  210 1    
   177   90   91 1    
   178   90   92 1    
   179   90  211 1    
   180   91  212 1    
   181   91  213 1    
   182   91  214 1    
   183   92   93 2    
   184   92   94 am   BACKBONE|DICT|INTERRES
   185   94   95 1    
   186   94  215 1    
   187   95   96 1    
   188   95   97 1    
   189   95  216 1    
   190   96  217 1    
   191   96  218 1    
   192   96  219 1    
   193   97   98 2    
   194   97   99 am   BACKBONE|DICT|INTERRES
   195   99  100 1    
   196   99  220 1    
   197  100  101 1    
   198  100  102 1    
   199  100  221 1    
   200  101  222 1    
   201  101  223 1    
   202  101  224 1    
   203  102  103 2    
   204  102  104 am   BACKBONE|DICT|INTERRES
   205  104  105 1    
   206  104  225 1    
   207  105  106 1    
   208  105  107 1    
   209  105  226 1    
   210  106  227 1    
   211  106  228 1    
   212  106  229 1    
   213  107  108 2    
   214  107  109 am   BACKBONE|DICT|INTERRES
   215  109  110 1    
   216  109  230 1    
   217  110  111 1    
   218  110  112 1    
   219  110  231 1    
   220  111  232 1    
   221  111  233 1    
   222  111  234 1    
   223  112  113 2    
   224  112  114 am   BACKBONE|DICT|INTERRES
   225  114  115 1    
   226  114  235 1    
   227  115  116 1    
   228  115  117 1    
   229  115  236 1    
   230  116  237 1    
   231  116  238 1    
   232  116  239 1    
   233  117  118 2    
   234  117  119 am   BACKBONE|DICT|INTERRES
   235  119  120 1    
   236  119  240 1    
   237  120  121 1    
   238  120  124 1    
   239  120  241 1    
   240  121  122 am   BACKBONE|DICT|INTERRES
   241  121  123 2    
   242  122  242 1    
   243  122  243 1    
   244  124  125 1    
   245  124  244 1    
   246  124  245 1    
   247  125  126 1    
   248  126  246 1    
   249  126  247 1    
@<TRIPOS>SUBSTRUCTURE
     1 UNK         1 GROUP             0       ****    0 ROOT    
