@<TRIPOS>MOLECULE
3R540
247   249    1
SMALL
USER_CHARGES


@<TRIPOS>ATOM
      1 CA         -4.8902  -14.7937  -43.7333 C.3       0 UNK        -0.1800 
      2 C          -4.1653  -13.9076  -44.7369 C.2       0 UNK         0.5000 
      3 O          -4.4437  -12.7104  -44.8126 O.2       0 UNK        -0.5000 
      4 N          -3.2477  -14.4963  -45.5123 N.am      1 UNK        -0.5000 
      5 CA         -2.4065  -13.8213  -46.5058 C.3       1 UNK         0.1400 
      6 C6         -1.5827  -14.8302  -47.3465 C.3       23 UNK        -0.0398 
      7 S7         -2.6230  -16.0609  -48.1985 S.3       23 UNK        -0.2404 
      8 C8         -1.8587  -16.0939  -49.8564 C.3       23 UNK        -0.0205 
      9 C9         -0.4365  -16.6560  -49.9161 C.ar      23 UNK        -0.0193 
     10 C10         0.3915  -16.2760  -50.9767 C.ar      23 UNK        -0.1150 
     11 C11         1.6676  -16.8286  -51.1297 C.ar      23 UNK        -0.0193 
     12 C12         2.1307  -17.7445  -50.1826 C.ar      23 UNK        -0.1150 
     13 C13         1.3300  -18.1184  -49.1023 C.ar      23 UNK        -0.0193 
     14 C14         0.0475  -17.5760  -48.9774 C.ar      23 UNK        -0.1150 
     15 C15         1.8639  -19.0961  -48.0670 C.3       23 UNK        -0.0205 
     16 S16         1.4083  -20.8179  -48.4347 S.3       23 UNK        -0.2404 
     17 C17        -0.3522  -20.8499  -47.9626 C.3       23 UNK        -0.0398 
     18 CA         -0.7323  -22.1500  -47.2210 C.3       11 UNK         0.1400 
     19 N          -0.0934  -22.2661  -45.9038 N.am      11 UNK        -0.5000 
     20 C          -0.1048  -23.3787  -45.1558 C.2       10 UNK         0.5000 
     21 O          -0.6251  -24.4337  -45.5129 O.2       10 UNK        -0.5000 
     22 CA          0.5066  -23.2853  -43.7488 C.3       10 UNK         0.1400 
     23 CB          2.0385  -23.3960  -43.7943 C.3       10 UNK        -0.1800 
     24 N           0.1067  -22.0549  -43.0670 N.am      10 UNK        -0.5000 
     25 C          -1.1330  -21.8134  -42.6178 C.2       9 UNK         0.5000 
     26 O          -2.0584  -22.6193  -42.7074 O.2       9 UNK        -0.5000 
     27 CA         -1.3954  -20.4280  -41.9995 C.3       9 UNK         0.1400 
     28 CB         -1.0168  -20.4196  -40.5113 C.3       9 UNK        -0.1800 
     29 N          -0.6753  -19.3565  -42.6855 N.am      9 UNK        -0.5000 
     30 C          -0.9121  -18.9671  -43.9465 C.2       8 UNK         0.5000 
     31 O          -1.7900  -19.4492  -44.6612 O.2       8 UNK        -0.5000 
     32 CA          0.0371  -17.9011  -44.5234 C.3       8 UNK         0.1400 
     33 CB         -0.4316  -16.5014  -44.1097 C.3       8 UNK        -0.1800 
     34 N           1.4341  -18.0855  -44.1159 N.am      8 UNK        -0.5000 
     35 C           2.1446  -19.2131  -44.2829 C.2       7 UNK         0.5000 
     36 O           1.7025  -20.2024  -44.8657 O.2       7 UNK        -0.5000 
     37 CA          3.5609  -19.2849  -43.6804 C.3       7 UNK         0.1400 
     38 CB          4.6187  -19.3756  -44.7871 C.3       7 UNK        -0.1800 
     39 N           3.8761  -18.1704  -42.7848 N.am      7 UNK        -0.5000 
     40 C           3.3557  -18.0235  -41.5569 C.2       6 UNK         0.5000 
     41 O           2.5761  -18.8331  -41.0523 O.2       6 UNK        -0.5000 
     42 CA          3.7347  -16.7538  -40.7678 C.3       6 UNK         0.1400 
     43 CB          4.8429  -17.0668  -39.7510 C.3       6 UNK        -0.1800 
     44 N           4.1594  -15.6237  -41.5987 N.am      6 UNK        -0.5000 
     45 C           3.4043  -15.0022  -42.5152 C.2       5 UNK         0.5000 
     46 O           2.2537  -15.3449  -42.7860 O.2       5 UNK        -0.5000 
     47 CA          4.0371  -13.8141  -43.2729 C.3       5 UNK         0.1400 
     48 CB          5.4019  -13.3602  -42.7077 C.3       5 UNK        -0.1800 
     49 N           4.1541  -14.0669  -44.7120 N.am      5 UNK        -0.5000 
     50 C           4.7427  -15.1130  -45.3120 C.2       4 UNK         0.5000 
     51 O           5.2636  -16.0441  -44.6947 O.2       4 UNK        -0.5000 
     52 CA          4.8118  -15.1063  -46.8569 C.3       4 UNK         0.1400 
     53 CB          4.4009  -16.4612  -47.4645 C.3       4 UNK        -0.1800 
     54 N           4.0921  -14.0065  -47.5140 N.am      4 UNK        -0.5000 
     55 C           2.7684  -13.8074  -47.5676 C.2       3 UNK         0.5000 
     56 O           1.9311  -14.5188  -47.0096 O.2       3 UNK        -0.5000 
     57 CA          2.3120  -12.6057  -48.4135 C.3       3 UNK         0.1400 
     58 CB          1.9275  -13.0653  -49.8281 C.3       3 UNK        -0.1800 
     59 N           1.1694  -11.9252  -47.8127 N.am      3 UNK        -0.5000 
     60 C           1.1914  -11.2357  -46.6630 C.2       2 UNK         0.5000 
     61 O           2.2137  -11.0183  -46.0109 O.2       2 UNK        -0.5000 
     62 CA         -0.1710  -10.7226  -46.1557 C.3       2 UNK         0.1400 
     63 CB         -0.4900   -9.3437  -46.7535 C.3       2 UNK        -0.1800 
     64 N          -1.2473  -11.6595  -46.4900 N.am      2 UNK        -0.5000 
     65 C          -1.4457  -12.8144  -45.8411 C.2       1 UNK         0.5000 
     66 O          -0.8678  -13.1178  -44.7951 O.2       1 UNK        -0.5000 
     67 C          -2.2661  -22.2925  -47.1427 C.2       11 UNK         0.5000 
     68 O          -2.8624  -22.8454  -48.0678 O.2       11 UNK        -0.5000 
     69 N          -2.8790  -21.8160  -46.0503 N.am      12 UNK        -0.5000 
     70 CA         -4.2967  -22.0140  -45.7548 C.3       12 UNK         0.1400 
     71 CB         -4.7332  -21.0702  -44.6246 C.3       12 UNK        -0.1800 
     72 C          -4.6143  -23.4809  -45.4134 C.2       12 UNK         0.5000 
     73 O          -5.5601  -24.0353  -45.9722 O.2       12 UNK        -0.5000 
     74 N          -3.8016  -24.0962  -44.5409 N.am      13 UNK        -0.5000 
     75 CA         -3.9275  -25.4969  -44.1239 C.3       13 UNK         0.1400 
     76 CB         -2.9522  -25.7812  -42.9719 C.3       13 UNK        -0.1800 
     77 C          -3.7136  -26.4987  -45.2746 C.2       13 UNK         0.5000 
     78 O          -4.4400  -27.4890  -45.3629 O.2       13 UNK        -0.5000 
     79 N          -2.7471  -26.2046  -46.1543 N.am      14 UNK        -0.5000 
     80 CA         -2.4623  -26.9584  -47.3779 C.3       14 UNK         0.1400 
     81 CB         -1.0567  -26.5810  -47.8731 C.3       14 UNK        -0.1800 
     82 C          -3.4966  -26.7246  -48.4981 C.2       14 UNK         0.5000 
     83 O          -3.4704  -27.4455  -49.4958 O.2       14 UNK        -0.5000 
     84 N          -4.3588  -25.7106  -48.3290 N.am      15 UNK        -0.5000 
     85 CA         -5.3830  -25.2268  -49.2592 C.3       15 UNK         0.1400 
     86 CB         -6.4299  -26.3181  -49.5633 C.3       15 UNK        -0.1800 
     87 C          -4.8106  -24.5811  -50.5377 C.2       15 UNK         0.5000 
     88 O          -5.5576  -24.3602  -51.4890 O.2       15 UNK        -0.5000 
     89 N          -3.5182  -24.2306  -50.5298 N.am      16 UNK        -0.5000 
     90 CA         -2.8296  -23.5231  -51.6090 C.3       16 UNK         0.1400 
     91 CB         -1.3173  -23.5374  -51.3389 C.3       16 UNK        -0.1800 
     92 C          -3.3402  -22.0814  -51.7655 C.2       16 UNK         0.5000 
     93 O          -3.5294  -21.6183  -52.8910 O.2       16 UNK        -0.5000 
     94 N          -3.5993  -21.4184  -50.6295 N.am      17 UNK        -0.5000 
     95 CA         -4.2038  -20.0867  -50.5806 C.3       17 UNK         0.1400 
     96 CB         -4.0196  -19.4926  -49.1758 C.3       17 UNK        -0.1800 
     97 C          -5.6934  -20.1113  -50.9747 C.2       17 UNK         0.5000 
     98 O          -6.1676  -19.1731  -51.6139 O.2       17 UNK        -0.5000 
     99 N          -6.3960  -21.1951  -50.6118 N.am      18 UNK        -0.5000 
    100 CA        -7.8085  -21.4204  -50.9296 C.3       18 UNK         0.1400 
    101 CB        -8.3604  -22.5488  -50.0451 C.3       18 UNK        -0.1800 
    102 C         -8.0309  -21.7302  -52.4215 C.2       18 UNK         0.5000 
    103 O         -8.9696  -21.2044  -53.0200 O.2       18 UNK        -0.5000 
    104 N         -7.1405  -22.5466  -53.0024 N.am      19 UNK        -0.5000 
    105 CA        -7.0932  -22.8661  -54.4317 C.3       19 UNK         0.1400 
    106 CB        -6.2128  -24.1102  -54.6310 C.3       19 UNK        -0.1800 
    107 C         -6.5709  -21.7041  -55.3006 C.2       19 UNK         0.5000 
    108 O         -6.7185  -21.7557  -56.5222 O.2       19 UNK        -0.5000 
    109 N         -5.9654  -20.6950  -54.6580 N.am      20 UNK        -0.5000 
    110 CA        -5.3352  -19.5098  -55.2395 C.3       20 UNK         0.1400 
    111 CB        -6.3721  -18.6204  -55.9569 C.3       20 UNK        -0.1800 
    112 C         -4.1162  -19.8639  -56.1141 C.2       20 UNK         0.5000 
    113 O         -3.9313  -19.2887  -57.1884 O.2       20 UNK        -0.5000 
    114 N         -3.2847  -20.7927  -55.6179 N.am      21 UNK        -0.5000 
    115 CA        -1.9717  -21.1199  -56.1843 C.3       21 UNK         0.1400 
    116 CB        -1.4457  -22.4064  -55.5301 C.3       21 UNK        -0.1800 
    117 C         -0.9690  -19.9619  -56.0005 C.2       21 UNK         0.5000 
    118 O         -0.0819  -19.7715  -56.8327 O.2       21 UNK        -0.5000 
    119 N         -1.1735  -19.1871  -54.9328 N.am      22 UNK        -0.5000 
    120 CA        -0.5861  -17.8773  -54.6659 C.3       22 UNK         0.1400 
    121 C         -1.6200  -17.0441  -53.8571 C.2       22 UNK         0.5000 
    122 N         -1.6183  -15.7260  -53.9972 N.am      22 UNK        -0.7600 
    123 O         -2.4371  -17.5839  -53.1126 O.2       22 UNK        -0.5000 
    124 C124        0.8013  -17.9988  -53.9835 C.3       23 UNK        -0.0398 
    125 S125        1.7018  -16.4064  -53.9270 S.3       23 UNK        -0.2404 
    126 C126        2.5588  -16.4624  -52.3135 C.3       23 UNK        -0.0205 
    127 H127       -4.7297  -14.4226  -42.7210 H         1 UNK         0.0600 
    128 H128       -4.5403  -15.8257  -43.7759 H         1 UNK         0.0600 
    129 H129       -5.9616  -14.7894  -43.9336 H         1 UNK         0.0600 
    130 H130       -3.0819  -15.4863  -45.4136 H         1 UNK         0.3000 
    131 H131       -3.0715  -13.2749  -47.1780 H         1 UNK         0.0600 
    132 H132       -0.9843  -14.2999  -48.0894 H         1 UNK         0.0800 
    133 H133       -0.8665  -15.3691  -46.7251 H         1 UNK         0.0800 
    134 H134       -1.8808  -15.0849  -50.2709 H         1 UNK         0.0800 
    135 H135       -2.4874  -16.7050  -50.5050 H         1 UNK         0.0800 
    136 H136        0.0292  -15.5668  -51.7067 H         1 UNK         0.1150 
    137 H137        3.1183  -18.1719  -50.2850 H         1 UNK         0.1150 
    138 H138       -0.5742  -17.8783  -48.1494 H         1 UNK         0.1150 
    139 H139        1.5090  -18.8158  -47.0790 H         1 UNK         0.0800 
    140 H140        2.9518  -19.0340  -48.0219 H         1 UNK         0.0800 
    141 H141       -0.9289  -20.7380  -48.8827 H         1 UNK         0.0800 
    142 H142       -0.5913  -19.9897  -47.3366 H         1 UNK         0.0800 
    143 H143       -0.3797  -22.9903  -47.8231 H         1 UNK         0.0600 
    144 H144        0.4053  -21.4506  -45.5573 H         1 UNK         0.3000 
    145 H145        0.1314  -24.1293  -43.1662 H         1 UNK         0.0600 
    146 H146        2.3423  -24.3516  -44.2234 H         1 UNK         0.0600 
    147 H147        2.4686  -23.3380  -42.7944 H         1 UNK         0.0600 
    148 H148        2.4912  -22.6122  -44.4006 H         1 UNK         0.0600 
    149 H149        0.7914  -21.3139  -43.0304 H         1 UNK         0.3000 
    150 H150       -2.4650  -20.2241  -42.0818 H         1 UNK         0.0600 
    151 H151        0.0522  -20.5826  -40.3664 H         1 UNK         0.0600 
    152 H152       -1.5463  -21.2040  -39.9689 H         1 UNK         0.0600 
    153 H153       -1.2769  -19.4697  -40.0440 H         1 UNK         0.0600 
    154 H154        0.0859  -18.9234  -42.1811 H         1 UNK         0.3000 
    155 H155       -0.0122  -17.9670  -45.6106 H         1 UNK         0.0600 
    156 H156        0.1717  -15.7280  -44.5861 H         1 UNK         0.0600 
    157 H157       -0.3661  -16.3553  -43.0309 H         1 UNK         0.0600 
    158 H158       -1.4683  -16.3347  -44.3990 H         1 UNK         0.0600 
    159 H159        1.8654  -17.3026  -43.6374 H         1 UNK         0.3000 
    160 H160        3.6116  -20.2090  -43.1006 H         1 UNK         0.0600 
    161 H161        4.5883  -18.5016  -45.4327 H         1 UNK         0.0600 
    162 H162        4.4537  -20.2516  -45.4160 H         1 UNK         0.0600 
    163 H163        5.6236  -19.4554  -44.3724 H         1 UNK         0.0600 
    164 H164        4.4762  -17.4431  -43.1575 H         1 UNK         0.3000 
    165 H165        2.8452  -16.4406  -40.2175 H         1 UNK         0.0600 
    166 H166        4.5502  -17.8859  -39.0926 H         1 UNK         0.0600 
    167 H167        5.7706  -17.3582  -40.2451 H         1 UNK         0.0600 
    168 H168        5.0544  -16.2043  -39.1186 H         1 UNK         0.0600 
    169 H169        5.1047  -15.2970  -41.4613 H         1 UNK         0.3000 
    170 H170        3.3405  -12.9817  -43.1627 H         1 UNK         0.0600 
    171 H171        5.7580  -12.4700  -43.2265 H         1 UNK         0.0600 
    172 H172        6.1688  -14.1283  -42.8138 H         1 UNK         0.0600 
    173 H173        5.3270  -13.1019  -41.6505 H         1 UNK         0.0600 
    174 H174        3.7137  -13.3813  -45.3090 H         1 UNK         0.3000 
    175 H175        5.8629  -14.9491  -47.1024 H         1 UNK         0.0600 
    176 H176        3.4280  -16.7859  -47.0945 H         1 UNK         0.0600 
    177 H177        5.1289  -17.2332  -47.2183 H         1 UNK         0.0600 
    178 H178        4.3474  -16.4105  -48.5520 H         1 UNK         0.0600 
    179 H179        4.6867  -13.3454  -47.9948 H         1 UNK         0.3000 
    180 H180        3.1323  -11.8888  -48.4896 H         1 UNK         0.0600 
    181 H181        1.0810  -13.7524  -49.8081 H         1 UNK         0.0600 
    182 H182        2.7569  -13.5827  -50.3119 H         1 UNK         0.0600 
    183 H183        1.6587  -12.2192  -50.4607 H         1 UNK         0.0600 
    184 H184        0.2807  -12.0666  -48.2655 H         1 UNK         0.3000 
    185 H185       -0.1105  -10.6177  -45.0701 H         1 UNK         0.0600 
    186 H186        0.2894   -8.6222  -46.5046 H         1 UNK         0.0600 
    187 H187       -0.5675   -9.3810  -47.8408 H         1 UNK         0.0600 
    188 H188       -1.4298   -8.9532  -46.3627 H         1 UNK         0.0600 
    189 H189       -1.7887  -11.4524  -47.3171 H         1 UNK         0.3000 
    190 H190       -2.3404  -21.2883  -45.3719 H         1 UNK         0.3000 
    191 H191       -4.8700  -21.7520  -46.6463 H         1 UNK         0.0600 
    192 H192       -4.5726  -20.0277  -44.9003 H         1 UNK         0.0600 
    193 H193       -5.7949  -21.1891  -44.4053 H         1 UNK         0.0600 
    194 H194       -4.1843  -21.2594  -43.7025 H         1 UNK         0.0600 
    195 H195       -3.0663  -23.5587  -44.0909 H         1 UNK         0.3000 
    196 H196       -4.9432  -25.6394  -43.7492 H         1 UNK         0.0600 
    197 H197       -3.0370  -26.8143  -42.6326 H         1 UNK         0.0600 
    198 H198       -3.1575  -25.1401  -42.1146 H         1 UNK         0.0600 
    199 H199       -1.9170  -25.6173  -43.2721 H         1 UNK         0.0600 
    200 H200       -2.1368  -25.4129  -45.9614 H         1 UNK         0.3000 
    201 H201       -2.4692  -28.0239  -47.1399 H         1 UNK         0.0600 
    202 H202       -0.7849  -27.1525  -48.7615 H         1 UNK         0.0600 
    203 H203       -0.3026  -26.7863  -47.1131 H         1 UNK         0.0600 
    204 H204       -0.9931  -25.5230  -48.1306 H         1 UNK         0.0600 
    205 H205       -4.2934  -25.1863  -47.4657 H         1 UNK         0.3000 
    206 H206       -5.8982  -24.4230  -48.7321 H         1 UNK         0.0600 
    207 H207       -6.8250  -26.7511  -48.6443 H         1 UNK         0.0600 
    208 H208       -7.2755  -25.9083  -50.1164 H         1 UNK         0.0600 
    209 H209       -6.0133  -27.1261  -50.1647 H         1 UNK         0.0600 
    210 H210       -3.0072  -24.3497  -49.6652 H         1 UNK         0.3000 
    211 H211       -3.0208  -24.0520  -52.5451 H         1 UNK         0.0600 
    212 H212       -0.9372  -24.5577  -51.2858 H         1 UNK         0.0600 
    213 H213       -0.7721  -23.0285  -52.1345 H         1 UNK         0.0600 
    214 H214       -1.0687  -23.0389  -50.4012 H         1 UNK         0.0600 
    215 H215       -3.4188  -21.8841  -49.7462 H         1 UNK         0.3000 
    216 H216       -3.6815  -19.4428  -51.2921 H         1 UNK         0.0600 
    217 H217       -4.4740  -20.1186  -48.4079 H         1 UNK         0.0600 
    218 H218       -4.4781  -18.5053  -49.1080 H         1 UNK         0.0600 
    219 H219       -2.9644  -19.3720  -48.9325 H         1 UNK         0.0600 
    220 H220       -5.9193  -21.9285  -50.1113 H         1 UNK         0.3000 
    221 H221       -8.3589  -20.5073  -50.6930 H         1 UNK         0.0600 
    222 H222       -7.8673  -23.4994  -50.2459 H         1 UNK         0.0600 
    223 H223       -8.2338  -22.3207  -48.9866 H         1 UNK         0.0600 
    224 H224       -9.4272  -22.6925  -50.2209 H         1 UNK         0.0600 
    225 H225       -6.4462  -23.0110  -52.4216 H         1 UNK         0.3000 
    226 H226       -8.1048  -23.1017  -54.7681 H         1 UNK         0.0600 
    227 H227       -6.5982  -24.9604  -54.0680 H         1 UNK         0.0600 
    228 H228       -6.1788  -24.4046  -55.6806 H         1 UNK         0.0600 
    229 H229       -5.1870  -23.9303  -54.3060 H         1 UNK         0.0600 
    230 H230       -5.8789  -20.7791  -53.6549 H         1 UNK         0.3000 
    231 H231       -4.9429  -18.9364  -54.3979 H         1 UNK         0.0600 
    232 H232       -6.7690  -19.0973  -56.8533 H         1 UNK         0.0600 
    233 H233       -5.9266  -17.6729  -56.2620 H         1 UNK         0.0600 
    234 H234       -7.2106  -18.3873  -55.3005 H         1 UNK         0.0600 
    235 H235       -3.4975  -21.1965  -54.7079 H         1 UNK         0.3000 
    236 H236       -2.0912  -21.2987  -57.2548 H         1 UNK         0.0600 
    237 H237       -1.2862  -22.2762  -54.4595 H         1 UNK         0.0600 
    238 H238       -2.1431  -23.2331  -55.6670 H         1 UNK         0.0600 
    239 H239       -0.4935  -22.7057  -55.9698 H         1 UNK         0.0600 
    240 H240       -1.9396  -19.4155  -54.3118 H         1 UNK         0.3000 
    241 H241       -0.4564  -17.3778  -55.6283 H         1 UNK         0.0600 
    242 H242       -0.9470  -15.2620  -54.5894 H         1 UNK         0.3800 
    243 H243       -2.2963  -15.1795  -53.4913 H         1 UNK         0.3800 
    244 H244        0.6918  -18.4277  -52.9873 H         1 UNK         0.0800 
    245 H245        1.4260  -18.6987  -54.5395 H         1 UNK         0.0800 
    246 H246        3.3855  -17.1694  -52.3982 H         1 UNK         0.0800 
    247 H247        3.0076  -15.4873  -52.1220 H         1 UNK         0.0800 
@<TRIPOS>BOND
     1    1    2 1    
     2    1  127 1    
     3    1  128 1    
     4    1  129 1    
     5    2    3 2    
     6    2    4 am   BACKBONE|DICT|INTERRES
     7    4    5 1    
     8    4  130 1    
     9    5    6 1    
    10    5   65 1    
    11    5  131 1    
    12    6    7 1    
    13    6  132 1    
    14    6  133 1    
    15    7    8 1    
    16    8    9 1    
    17    8  134 1    
    18    8  135 1    
    19    9   10 ar   
    20    9   14 ar   
    21   10   11 ar   
    22   10  136 1    
    23   11   12 ar   
    24   11  126 1    
    25   12   13 ar   
    26   12  137 1    
    27   13   14 ar   
    28   13   15 1    
    29   14  138 1    
    30   15   16 1    
    31   15  139 1    
    32   15  140 1    
    33   16   17 1    
    34   17   18 1    
    35   17  141 1    
    36   17  142 1    
    37   18   19 1    
    38   18   67 1    
    39   18  143 1    
    40   19   20 am   BACKBONE|DICT|INTERRES
    41   19  144 1    
    42   20   21 2    
    43   20   22 1    
    44   22   23 1    
    45   22   24 1    
    46   22  145 1    
    47   23  146 1    
    48   23  147 1    
    49   23  148 1    
    50   24   25 am   BACKBONE|DICT|INTERRES
    51   24  149 1    
    52   25   26 2    
    53   25   27 1    
    54   27   28 1    
    55   27   29 1    
    56   27  150 1    
    57   28  151 1    
    58   28  152 1    
    59   28  153 1    
    60   29   30 am   BACKBONE|DICT|INTERRES
    61   29  154 1    
    62   30   31 2    
    63   30   32 1    
    64   32   33 1    
    65   32   34 1    
    66   32  155 1    
    67   33  156 1    
    68   33  157 1    
    69   33  158 1    
    70   34   35 am   BACKBONE|DICT|INTERRES
    71   34  159 1    
    72   35   36 2    
    73   35   37 1    
    74   37   38 1    
    75   37   39 1    
    76   37  160 1    
    77   38  161 1    
    78   38  162 1    
    79   38  163 1    
    80   39   40 am   BACKBONE|DICT|INTERRES
    81   39  164 1    
    82   40   41 2    
    83   40   42 1    
    84   42   43 1    
    85   42   44 1    
    86   42  165 1    
    87   43  166 1    
    88   43  167 1    
    89   43  168 1    
    90   44   45 am   BACKBONE|DICT|INTERRES
    91   44  169 1    
    92   45   46 2    
    93   45   47 1    
    94   47   48 1    
    95   47   49 1    
    96   47  170 1    
    97   48  171 1    
    98   48  172 1    
    99   48  173 1    
   100   49   50 am   BACKBONE|DICT|INTERRES
   101   49  174 1    
   102   50   51 2    
   103   50   52 1    
   104   52   53 1    
   105   52   54 1    
   106   52  175 1    
   107   53  176 1    
   108   53  177 1    
   109   53  178 1    
   110   54   55 am   BACKBONE|DICT|INTERRES
   111   54  179 1    
   112   55   56 2    
   113   55   57 1    
   114   57   58 1    
   115   57   59 1    
   116   57  180 1    
   117   58  181 1    
   118   58  182 1    
   119   58  183 1    
   120   59   60 am   BACKBONE|DICT|INTERRES
   121   59  184 1    
   122   60   61 2    
   123   60   62 1    
   124   62   63 1    
   125   62   64 1    
   126   62  185 1    
   127   63  186 1    
   128   63  187 1    
   129   63  188 1    
   130   64   65 am   BACKBONE|DICT|INTERRES
   131   64  189 1    
   132   65   66 2    
   133   67   68 2    
   134   67   69 am   BACKBONE|DICT|INTERRES
   135   69   70 1    
   136   69  190 1    
   137   70   71 1    
   138   70   72 1    
   139   70  191 1    
   140   71  192 1    
   141   71  193 1    
   142   71  194 1    
   143   72   73 2    
   144   72   74 am   BACKBONE|DICT|INTERRES
   145   74   75 1    
   146   74  195 1    
   147   75   76 1    
   148   75   77 1    
   149   75  196 1    
   150   76  197 1    
   151   76  198 1    
   152   76  199 1    
   153   77   78 2    
   154   77   79 am   BACKBONE|DICT|INTERRES
   155   79   80 1    
   156   79  200 1    
   157   80   81 1    
   158   80   82 1    
   159   80  201 1    
   160   81  202 1    
   161   81  203 1    
   162   81  204 1    
   163   82   83 2    
   164   82   84 am   BACKBONE|DICT|INTERRES
   165   84   85 1    
   166   84  205 1    
   167   85   86 1    
   168   85   87 1    
   169   85  206 1    
   170   86  207 1    
   171   86  208 1    
   172   86  209 1    
   173   87   88 2    
   174   87   89 am   BACKBONE|DICT|INTERRES
   175   89   90 1    
   176   89  210 1    
   177   90   91 1    
   178   90   92 1    
   179   90  211 1    
   180   91  212 1    
   181   91  213 1    
   182   91  214 1    
   183   92   93 2    
   184   92   94 am   BACKBONE|DICT|INTERRES
   185   94   95 1    
   186   94  215 1    
   187   95   96 1    
   188   95   97 1    
   189   95  216 1    
   190   96  217 1    
   191   96  218 1    
   192   96  219 1    
   193   97   98 2    
   194   97   99 am   BACKBONE|DICT|INTERRES
   195   99  100 1    
   196   99  220 1    
   197  100  101 1    
   198  100  102 1    
   199  100  221 1    
   200  101  222 1    
   201  101  223 1    
   202  101  224 1    
   203  102  103 2    
   204  102  104 am   BACKBONE|DICT|INTERRES
   205  104  105 1    
   206  104  225 1    
   207  105  106 1    
   208  105  107 1    
   209  105  226 1    
   210  106  227 1    
   211  106  228 1    
   212  106  229 1    
   213  107  108 2    
   214  107  109 am   BACKBONE|DICT|INTERRES
   215  109  110 1    
   216  109  230 1    
   217  110  111 1    
   218  110  112 1    
   219  110  231 1    
   220  111  232 1    
   221  111  233 1    
   222  111  234 1    
   223  112  113 2    
   224  112  114 am   BACKBONE|DICT|INTERRES
   225  114  115 1    
   226  114  235 1    
   227  115  116 1    
   228  115  117 1    
   229  115  236 1    
   230  116  237 1    
   231  116  238 1    
   232  116  239 1    
   233  117  118 2    
   234  117  119 am   BACKBONE|DICT|INTERRES
   235  119  120 1    
   236  119  240 1    
   237  120  121 1    
   238  120  124 1    
   239  120  241 1    
   240  121  122 am   BACKBONE|DICT|INTERRES
   241  121  123 2    
   242  122  242 1    
   243  122  243 1    
   244  124  125 1    
   245  124  244 1    
   246  124  245 1    
   247  125  126 1    
   248  126  246 1    
   249  126  247 1    
@<TRIPOS>SUBSTRUCTURE
     1 UNK         1 GROUP             0       ****    0 ROOT    
