@<TRIPOS>MOLECULE
3R540
247   249    1
SMALL
USER_CHARGES


@<TRIPOS>ATOM
      1 CA          2.4208  -15.8443  -49.3128 C.3       0 UNK        -0.1800 
      2 C           1.3682  -15.0144  -48.5973 C.2       0 UNK         0.5000 
      3 O           1.7119  -14.1598  -47.7809 O.2       0 UNK        -0.5000 
      4 N           0.0872  -15.2489  -48.9108 N.am      1 UNK        -0.5000 
      5 CA         -1.1004  -14.6307  -48.2965 C.3       1 UNK         0.1400 
      6 C6         -2.3828  -15.4734  -48.5293 C.3       23 UNK        -0.0398 
      7 S7         -2.2718  -17.1541  -47.8248 S.3       23 UNK        -0.2404 
      8 C8         -2.4219  -18.2098  -49.3006 C.3       23 UNK        -0.0205 
      9 C9         -1.1379  -18.2245  -50.1114 C.ar      23 UNK        -0.0193 
     10 C10        -1.0033  -17.4036  -51.2321 C.ar      23 UNK        -0.1150 
     11 C11         0.1836  -17.3904  -51.9672 C.ar      23 UNK        -0.0193 
     12 C12         1.2360  -18.2258  -51.5746 C.ar      23 UNK        -0.1150 
     13 C13         1.1147  -19.0656  -50.4624 C.ar      23 UNK        -0.0193 
     14 C14        -0.0799  -19.0541  -49.7326 C.ar      23 UNK        -0.1150 
     15 C15         2.3108  -19.9199  -50.0444 C.3       23 UNK        -0.0205 
     16 S16         1.8853  -21.6133  -49.5170 S.3       23 UNK        -0.2404 
     17 C17         1.8034  -21.3973  -47.7055 C.3       23 UNK        -0.0398 
     18 CA          1.0953  -22.5528  -46.9595 C.3       11 UNK         0.1400 
     19 N           1.2307  -22.4051  -45.5087 N.am      11 UNK        -0.5000 
     20 C           0.8702  -23.3232  -44.6013 C.2       10 UNK         0.5000 
     21 O           0.4289  -24.4355  -44.8892 O.2       10 UNK        -0.5000 
     22 CA          0.9757  -22.9102  -43.1220 C.3       10 UNK         0.1400 
     23 CB          2.4256  -23.0148  -42.6265 C.3       10 UNK        -0.1800 
     24 N           0.4653  -21.5595  -42.8797 N.am      10 UNK        -0.5000 
     25 C          -0.8105  -21.1894  -43.0640 C.2       9 UNK         0.5000 
     26 O          -1.7030  -21.9656  -43.4032 O.2       9 UNK        -0.5000 
     27 CA         -1.1389  -19.6953  -42.8899 C.3       9 UNK         0.1400 
     28 CB         -1.2996  -19.3360  -41.4055 C.3       9 UNK        -0.1800 
     29 N          -0.1384  -18.8205  -43.4999 N.am      9 UNK        -0.5000 
     30 C           0.1606  -18.7928  -44.8063 C.2       8 UNK         0.5000 
     31 O          -0.3961  -19.4870  -45.6537 O.2       8 UNK        -0.5000 
     32 CA          1.3261  -17.8846  -45.2255 C.3       8 UNK         0.1400 
     33 CB          0.8864  -16.4161  -45.2755 C.3       8 UNK        -0.1800 
     34 N           2.4721  -18.0320  -44.3297 N.am      8 UNK        -0.5000 
     35 C           3.2122  -19.1450  -44.2248 C.2       7 UNK         0.5000 
     36 O           3.0336  -20.1527  -44.9087 O.2       7 UNK        -0.5000 
     37 CA          4.3090  -19.1438  -43.1449 C.3       7 UNK         0.1400 
     38 CB          5.5923  -18.4899  -43.6779 C.3       7 UNK        -0.1800 
     39 N           3.8876  -18.4603  -41.9208 N.am      7 UNK        -0.5000 
     40 C           2.9298  -18.9074  -41.0959 C.2       6 UNK         0.5000 
     41 O           2.3257  -19.9669  -41.2599 O.2       6 UNK        -0.5000 
     42 CA          2.5474  -17.9848  -39.9229 C.3       6 UNK         0.1400 
     43 CB          3.5021  -18.1894  -38.7374 C.3       6 UNK        -0.1800 
     44 N           2.5247  -16.5661  -40.2955 N.am      6 UNK        -0.5000 
     45 C           1.6950  -16.0428  -41.2072 C.2       5 UNK         0.5000 
     46 O           0.8680  -16.7101  -41.8325 O.2       5 UNK        -0.5000 
     47 CA          1.8621  -14.5439  -41.5147 C.3       5 UNK         0.1400 
     48 CB          3.0015  -14.3294  -42.5237 C.3       5 UNK        -0.1800 
     49 N           0.6370  -13.9735  -42.0710 N.am      5 UNK        -0.5000 
     50 C          -0.4730  -13.7036  -41.3756 C.2       4 UNK         0.5000 
     51 O          -0.5481  -13.8163  -40.1502 O.2       4 UNK        -0.5000 
     52 CA         -1.6869  -13.2029  -42.1909 C.3       4 UNK         0.1400 
     53 CB         -2.8878  -12.8307  -41.3021 C.3       4 UNK        -0.1800 
     54 N          -1.3556  -12.0522  -43.0373 N.am      4 UNK        -0.5000 
     55 C          -0.7319  -12.1152  -44.2188 C.2       3 UNK         0.5000 
     56 O          -0.3442  -13.1713  -44.7284 O.2       3 UNK        -0.5000 
     57 CA         -0.4727  -10.7809  -44.9335 C.3       3 UNK         0.1400 
     58 CB          0.7261  -10.0417  -44.3151 C.3       3 UNK        -0.1800 
     59 N          -0.1979  -11.0726  -46.3328 N.am      3 UNK        -0.5000 
     60 C          -0.4751  -10.2960  -47.3862 C.2       2 UNK         0.5000 
     61 O          -0.9321   -9.1560  -47.2959 O.2       2 UNK        -0.5000 
     62 CA         -0.2124  -10.9071  -48.7786 C.3       2 UNK         0.1400 
     63 CB          1.1383  -10.4291  -49.3327 C.3       2 UNK        -0.1800 
     64 N          -0.2133  -12.3700  -48.7320 N.am      2 UNK        -0.5000 
     65 C          -1.3062  -13.1392  -48.6702 C.2       1 UNK         0.5000 
     66 O          -2.4413  -12.6982  -48.8586 O.2       1 UNK        -0.5000 
     67 C          -0.3822  -22.7208  -47.3760 C.2       11 UNK         0.5000 
     68 O          -0.6961  -23.6484  -48.1217 O.2       11 UNK        -0.5000 
     69 N          -1.2685  -21.8675  -46.8419 N.am      12 UNK        -0.5000 
     70 CA         -2.7154  -21.9321  -47.0460 C.3       12 UNK         0.1400 
     71 CB         -3.3982  -20.7438  -46.3536 C.3       12 UNK        -0.1800 
     72 C          -3.3256  -23.2562  -46.5594 C.2       12 UNK         0.5000 
     73 O          -4.1265  -23.8461  -47.2825 O.2       12 UNK        -0.5000 
     74 N          -2.9147  -23.7164  -45.3696 N.am      13 UNK        -0.5000 
     75 CA         -3.3250  -24.9945  -44.7889 C.3       13 UNK         0.1400 
     76 CB         -2.8143  -25.0986  -43.3440 C.3       13 UNK        -0.1800 
     77 C          -2.8631  -26.2007  -45.6254 C.2       13 UNK         0.5000 
     78 O          -3.6683  -27.0940  -45.8891 O.2       13 UNK        -0.5000 
     79 N          -1.5960  -26.1857  -46.0644 N.am      14 UNK        -0.5000 
     80 CA         -1.0005  -27.2087  -46.9280 C.3       14 UNK         0.1400 
     81 CB          0.5096  -26.9567  -47.0551 C.3       14 UNK        -0.1800 
     82 C          -1.6593  -27.2818  -48.3186 C.2       14 UNK         0.5000 
     83 O          -1.8639  -28.3791  -48.8389 O.2       14 UNK        -0.5000 
     84 N          -2.0067  -26.1161  -48.8783 N.am      15 UNK        -0.5000 
     85 CA         -2.7147  -25.9744  -50.1507 C.3       15 UNK         0.1400 
     86 CB         -2.4634  -24.5603  -50.6984 C.3       15 UNK        -0.1800 
     87 C          -4.2303  -26.2372  -50.0497 C.2       15 UNK         0.5000 
     88 O          -4.8948  -26.2558  -51.0844 O.2       15 UNK        -0.5000 
     89 N          -4.7660  -26.3807  -48.8277 N.am      16 UNK        -0.5000 
     90 CA         -6.1927  -26.4938  -48.4966 C.3       16 UNK         0.1400 
     91 CB         -6.7590  -27.8452  -48.9788 C.3       16 UNK        -0.1800 
     92 C          -7.0085  -25.2788  -48.9950 C.2       16 UNK         0.5000 
     93 O          -8.1079  -25.4375  -49.5277 O.2       16 UNK        -0.5000 
     94 N          -6.4143  -24.0867  -48.8384 N.am      17 UNK        -0.5000 
     95 CA         -6.8778  -22.7606  -49.2599 C.3       17 UNK         0.1400 
     96 CB         -8.2091  -22.3954  -48.5726 C.3       17 UNK        -0.1800 
     97 C          -6.9319  -22.5433  -50.7890 C.2       17 UNK         0.5000 
     98 O          -7.3949  -21.4883  -51.2248 O.2       17 UNK        -0.5000 
     99 N          -6.4368  -23.5016  -51.5866 N.am      18 UNK        -0.5000 
    100 CA        -6.4642  -23.4530  -53.0520 C.3       18 UNK         0.1400 
    101 CB        -6.4191  -24.8864  -53.6051 C.3       18 UNK        -0.1800 
    102 C         -5.3401  -22.5975  -53.6715 C.2       18 UNK         0.5000 
    103 O         -5.3357  -22.4221  -54.8906 O.2       18 UNK        -0.5000 
    104 N         -4.4054  -22.0969  -52.8470 N.am      19 UNK        -0.5000 
    105 CA        -3.2771  -21.2565  -53.2614 C.3       19 UNK         0.1400 
    106 CB        -2.3655  -20.9781  -52.0551 C.3       19 UNK        -0.1800 
    107 C         -3.7236  -19.9426  -53.9303 C.2       19 UNK         0.5000 
    108 O         -3.2412  -19.6301  -55.0191 O.2       19 UNK        -0.5000 
    109 N         -4.6698  -19.2440  -53.2799 N.am      20 UNK        -0.5000 
    110 CA        -5.3639  -18.0337  -53.7369 C.3       20 UNK         0.1400 
    111 CB        -6.4559  -18.4302  -54.7556 C.3       20 UNK        -0.1800 
    112 C         -4.3993  -16.9348  -54.2420 C.2       20 UNK         0.5000 
    113 O         -3.4338  -16.6108  -53.5477 O.2       20 UNK        -0.5000 
    114 N         -4.6562  -16.3935  -55.4398 N.am      21 UNK        -0.5000 
    115 CA        -3.7334  -15.5448  -56.1888 C.3       21 UNK         0.1400 
    116 CB        -4.5360  -14.6918  -57.1870 C.3       21 UNK        -0.1800 
    117 C         -2.6955  -16.4461  -56.8833 C.2       21 UNK         0.5000 
    118 O         -2.8934  -16.8450  -58.0325 O.2       21 UNK        -0.5000 
    119 N         -1.6487  -16.8076  -56.1344 N.am      22 UNK        -0.5000 
    120 CA        -0.6444  -17.8189  -56.5014 C.3       22 UNK         0.1400 
    121 C          0.2932  -17.4654  -57.6968 C.2       22 UNK         0.5000 
    122 N          0.3312  -16.2268  -58.1731 N.am      22 UNK        -0.7600 
    123 O          0.9913  -18.3370  -58.2080 O.2       22 UNK        -0.5000 
    124 C124        0.1415  -18.3019  -55.2529 C.3       23 UNK        -0.0398 
    125 S125        1.2747  -17.0497  -54.5505 S.3       23 UNK        -0.2404 
    126 C126        0.3270  -16.4116  -53.1292 C.3       23 UNK        -0.0205 
    127 H127        2.2558  -15.8314  -50.3896 H         1 UNK         0.0600 
    128 H128        2.3890  -16.8753  -48.9621 H         1 UNK         0.0600 
    129 H129        3.4189  -15.4504  -49.1207 H         1 UNK         0.0600 
    130 H130       -0.1161  -15.9715  -49.5882 H         1 UNK         0.3000 
    131 H131       -0.9288  -14.6163  -47.2188 H         1 UNK         0.0600 
    132 H132       -2.6222  -15.5217  -49.5921 H         1 UNK         0.0800 
    133 H133       -3.2427  -15.0017  -48.0506 H         1 UNK         0.0800 
    134 H134       -2.6565  -19.2268  -48.9851 H         1 UNK         0.0800 
    135 H135       -3.2647  -17.8809  -49.9106 H         1 UNK         0.0800 
    136 H136       -1.8198  -16.7572  -51.5208 H         1 UNK         0.1150 
    137 H137        2.1668  -18.2036  -52.1232 H         1 UNK         0.1150 
    138 H138       -0.1972  -19.6796  -48.8611 H         1 UNK         0.1150 
    139 H139        3.0080  -20.0088  -50.8789 H         1 UNK         0.0800 
    140 H140        2.8559  -19.4074  -49.2509 H         1 UNK         0.0800 
    141 H141        1.3371  -20.4430  -47.4636 H         1 UNK         0.0800 
    142 H142        2.8319  -21.3182  -47.3507 H         1 UNK         0.0800 
    143 H143        1.6086  -23.4787  -47.2276 H         1 UNK         0.0600 
    144 H144        1.6235  -21.5276  -45.1826 H         1 UNK         0.3000 
    145 H145        0.3679  -23.6055  -42.5395 H         1 UNK         0.0600 
    146 H146        2.4927  -22.8028  -41.5593 H         1 UNK         0.0600 
    147 H147        2.8208  -24.0190  -42.7844 H         1 UNK         0.0600 
    148 H148        3.0818  -22.3172  -43.1473 H         1 UNK         0.0600 
    149 H149        1.1320  -20.8731  -42.5393 H         1 UNK         0.3000 
    150 H150       -2.0904  -19.5048  -43.3903 H         1 UNK         0.0600 
    151 H151       -2.0667  -19.9526  -40.9355 H         1 UNK         0.0600 
    152 H152       -1.5971  -18.2943  -41.2826 H         1 UNK         0.0600 
    153 H153       -0.3724  -19.4851  -40.8519 H         1 UNK         0.0600 
    154 H154        0.3449  -18.1783  -42.8765 H         1 UNK         0.3000 
    155 H155        1.6392  -18.1778  -46.2299 H         1 UNK         0.0600 
    156 H156        0.0790  -16.2877  -45.9945 H         1 UNK         0.0600 
    157 H157        0.5182  -16.0589  -44.3149 H         1 UNK         0.0600 
    158 H158        1.7053  -15.7665  -45.5825 H         1 UNK         0.0600 
    159 H159        2.6525  -17.2707  -43.6943 H         1 UNK         0.3000 
    160 H160        4.5328  -20.1832  -42.8956 H         1 UNK         0.0600 
    161 H161        5.4389  -17.4382  -43.9230 H         1 UNK         0.0600 
    162 H162        5.9379  -18.9912  -44.5830 H         1 UNK         0.0600 
    163 H163        6.3985  -18.5504  -42.9465 H         1 UNK         0.0600 
    164 H164        4.3355  -17.5812  -41.7090 H         1 UNK         0.3000 
    165 H165        1.5413  -18.2618  -39.6009 H         1 UNK         0.0600 
    166 H166        3.1873  -17.6054  -37.8724 H         1 UNK         0.0600 
    167 H167        3.5239  -19.2360  -38.4306 H         1 UNK         0.0600 
    168 H168        4.5236  -17.8987  -38.9857 H         1 UNK         0.0600 
    169 H169        3.1849  -15.9639  -39.8246 H         1 UNK         0.3000 
    170 H170        2.1058  -14.0198  -40.5883 H         1 UNK         0.0600 
    171 H171        2.8007  -14.8271  -43.4729 H         1 UNK         0.0600 
    172 H172        3.1481  -13.2689  -42.7298 H         1 UNK         0.0600 
    173 H173        3.9465  -14.7173  -42.1416 H         1 UNK         0.0600 
    174 H174        0.5909  -13.8748  -43.0794 H         1 UNK         0.3000 
    175 H175       -1.9986  -14.0312  -42.8311 H         1 UNK         0.0600 
    176 H176       -3.7465  -12.5331  -41.9043 H         1 UNK         0.0600 
    177 H177       -2.6498  -12.0079  -40.6268 H         1 UNK         0.0600 
    178 H178       -3.2017  -13.6784  -40.6916 H         1 UNK         0.0600 
    179 H179       -1.6043  -11.1462  -42.6667 H         1 UNK         0.3000 
    180 H180       -1.3713  -10.1654  -44.8549 H         1 UNK         0.0600 
    181 H181        0.9159   -9.0992  -44.8290 H         1 UNK         0.0600 
    182 H182        1.6364  -10.6404  -44.3675 H         1 UNK         0.0600 
    183 H183        0.5458   -9.8076  -43.2653 H         1 UNK         0.0600 
    184 H184        0.1341  -12.0164  -46.4906 H         1 UNK         0.3000 
    185 H185       -1.0024  -10.5678  -49.4519 H         1 UNK         0.0600 
    186 H186        1.1703   -9.3408  -49.3988 H         1 UNK         0.0600 
    187 H187        1.9677  -10.7452  -48.6985 H         1 UNK         0.0600 
    188 H188        1.3137  -10.8211  -50.3346 H         1 UNK         0.0600 
    189 H189        0.6743  -12.8220  -48.5261 H         1 UNK         0.3000 
    190 H190       -0.9286  -21.1010  -46.2632 H         1 UNK         0.3000 
    191 H191       -2.8973  -21.8529  -48.1197 H         1 UNK         0.0600 
    192 H192       -2.9809  -19.7958  -46.6872 H         1 UNK         0.0600 
    193 H193       -4.4665  -20.7261  -46.5721 H         1 UNK         0.0600 
    194 H194       -3.2852  -20.7874  -45.2705 H         1 UNK         0.0600 
    195 H195       -2.2899  -23.1417  -44.8103 H         1 UNK         0.3000 
    196 H196       -4.4165  -25.0097  -44.7620 H         1 UNK         0.0600 
    197 H197       -3.1202  -26.0408  -42.8878 H         1 UNK         0.0600 
    198 H198       -3.2139  -24.2936  -42.7271 H         1 UNK         0.0600 
    199 H199       -1.7264  -25.0470  -43.2950 H         1 UNK         0.0600 
    200 H200       -0.9857  -25.4256  -45.7756 H         1 UNK         0.3000 
    201 H201       -1.1433  -28.1766  -46.4433 H         1 UNK         0.0600 
    202 H202        0.9975  -26.9893  -46.0809 H         1 UNK         0.0600 
    203 H203        0.7189  -25.9837  -47.5007 H         1 UNK         0.0600 
    204 H204        0.9818  -27.7145  -47.6815 H         1 UNK         0.0600 
    205 H205       -1.7363  -25.2522  -48.4146 H         1 UNK         0.3000 
    206 H206       -2.3048  -26.6935  -50.8627 H         1 UNK         0.0600 
    207 H207       -2.9237  -24.4295  -51.6785 H         1 UNK         0.0600 
    208 H208       -2.8715  -23.7959  -50.0358 H         1 UNK         0.0600 
    209 H209       -1.3969  -24.3661  -50.8145 H         1 UNK         0.0600 
    210 H210       -4.1415  -26.3209  -48.0336 H         1 UNK         0.3000 
    211 H211       -6.2550  -26.4778  -47.4076 H         1 UNK         0.0600 
    212 H212       -6.7754  -27.9142  -50.0669 H         1 UNK         0.0600 
    213 H213       -7.7813  -27.9878  -48.6269 H         1 UNK         0.0600 
    214 H214       -6.1664  -28.6773  -48.5988 H         1 UNK         0.0600 
    215 H215       -5.5151  -24.0837  -48.3557 H         1 UNK         0.3000 
    216 H216       -6.1235  -22.0632  -48.8928 H         1 UNK         0.0600 
    217 H217       -8.4693  -21.3515  -48.7518 H         1 UNK         0.0600 
    218 H218       -8.1454  -22.5306  -47.4929 H         1 UNK         0.0600 
    219 H219       -9.0364  -23.0030  -48.9399 H         1 UNK         0.0600 
    220 H220       -6.0700  -24.3502  -51.1725 H         1 UNK         0.3000 
    221 H221       -7.4127  -23.0104  -53.3636 H         1 UNK         0.0600 
    222 H222       -5.4416  -25.3450  -53.4551 H         1 UNK         0.0600 
    223 H223       -7.1673  -25.5214  -53.1302 H         1 UNK         0.0600 
    224 H224       -6.6185  -24.8959  -54.6773 H         1 UNK         0.0600 
    225 H225       -4.4877  -22.3019  -51.8635 H         1 UNK         0.3000 
    226 H226       -2.6991  -21.8198  -53.9970 H         1 UNK         0.0600 
    227 H227       -1.9243  -21.8963  -51.6691 H         1 UNK         0.0600 
    228 H228       -1.5405  -20.3202  -52.3328 H         1 UNK         0.0600 
    229 H229       -2.9072  -20.4982  -51.2402 H         1 UNK         0.0600 
    230 H230       -4.9812  -19.6058  -52.3906 H         1 UNK         0.3000 
    231 H231       -5.8627  -17.6157  -52.8615 H         1 UNK         0.0600 
    232 H232       -6.0280  -18.8481  -55.6681 H         1 UNK         0.0600 
    233 H233       -7.0769  -17.5769  -55.0307 H         1 UNK         0.0600 
    234 H234       -7.1229  -19.1829  -54.3345 H         1 UNK         0.0600 
    235 H235       -5.4524  -16.7403  -55.9546 H         1 UNK         0.3000 
    236 H236       -3.2135  -14.8677  -55.5074 H         1 UNK         0.0600 
    237 H237       -5.2314  -14.0318  -56.6682 H         1 UNK         0.0600 
    238 H238       -3.8728  -14.0626  -57.7816 H         1 UNK         0.0600 
    239 H239       -5.1132  -15.3072  -57.8783 H         1 UNK         0.0600 
    240 H240       -1.6060  -16.4724  -55.1831 H         1 UNK         0.3000 
    241 H241       -1.2161  -18.6816  -56.8492 H         1 UNK         0.0600 
    242 H242       -0.2404  -15.5057  -57.7639 H         1 UNK         0.3800 
    243 H243        0.9363  -16.0096  -58.9493 H         1 UNK         0.3800 
    244 H244       -0.5544  -18.6369  -54.4821 H         1 UNK         0.0800 
    245 H245        0.7342  -19.1822  -55.5064 H         1 UNK         0.0800 
    246 H246       -0.6534  -16.0840  -53.4765 H         1 UNK         0.0800 
    247 H247        0.8309  -15.5191  -52.7565 H         1 UNK         0.0800 
@<TRIPOS>BOND
     1    1    2 1    
     2    1  127 1    
     3    1  128 1    
     4    1  129 1    
     5    2    3 2    
     6    2    4 am   BACKBONE|DICT|INTERRES
     7    4    5 1    
     8    4  130 1    
     9    5    6 1    
    10    5   65 1    
    11    5  131 1    
    12    6    7 1    
    13    6  132 1    
    14    6  133 1    
    15    7    8 1    
    16    8    9 1    
    17    8  134 1    
    18    8  135 1    
    19    9   10 ar   
    20    9   14 ar   
    21   10   11 ar   
    22   10  136 1    
    23   11   12 ar   
    24   11  126 1    
    25   12   13 ar   
    26   12  137 1    
    27   13   14 ar   
    28   13   15 1    
    29   14  138 1    
    30   15   16 1    
    31   15  139 1    
    32   15  140 1    
    33   16   17 1    
    34   17   18 1    
    35   17  141 1    
    36   17  142 1    
    37   18   19 1    
    38   18   67 1    
    39   18  143 1    
    40   19   20 am   BACKBONE|DICT|INTERRES
    41   19  144 1    
    42   20   21 2    
    43   20   22 1    
    44   22   23 1    
    45   22   24 1    
    46   22  145 1    
    47   23  146 1    
    48   23  147 1    
    49   23  148 1    
    50   24   25 am   BACKBONE|DICT|INTERRES
    51   24  149 1    
    52   25   26 2    
    53   25   27 1    
    54   27   28 1    
    55   27   29 1    
    56   27  150 1    
    57   28  151 1    
    58   28  152 1    
    59   28  153 1    
    60   29   30 am   BACKBONE|DICT|INTERRES
    61   29  154 1    
    62   30   31 2    
    63   30   32 1    
    64   32   33 1    
    65   32   34 1    
    66   32  155 1    
    67   33  156 1    
    68   33  157 1    
    69   33  158 1    
    70   34   35 am   BACKBONE|DICT|INTERRES
    71   34  159 1    
    72   35   36 2    
    73   35   37 1    
    74   37   38 1    
    75   37   39 1    
    76   37  160 1    
    77   38  161 1    
    78   38  162 1    
    79   38  163 1    
    80   39   40 am   BACKBONE|DICT|INTERRES
    81   39  164 1    
    82   40   41 2    
    83   40   42 1    
    84   42   43 1    
    85   42   44 1    
    86   42  165 1    
    87   43  166 1    
    88   43  167 1    
    89   43  168 1    
    90   44   45 am   BACKBONE|DICT|INTERRES
    91   44  169 1    
    92   45   46 2    
    93   45   47 1    
    94   47   48 1    
    95   47   49 1    
    96   47  170 1    
    97   48  171 1    
    98   48  172 1    
    99   48  173 1    
   100   49   50 am   BACKBONE|DICT|INTERRES
   101   49  174 1    
   102   50   51 2    
   103   50   52 1    
   104   52   53 1    
   105   52   54 1    
   106   52  175 1    
   107   53  176 1    
   108   53  177 1    
   109   53  178 1    
   110   54   55 am   BACKBONE|DICT|INTERRES
   111   54  179 1    
   112   55   56 2    
   113   55   57 1    
   114   57   58 1    
   115   57   59 1    
   116   57  180 1    
   117   58  181 1    
   118   58  182 1    
   119   58  183 1    
   120   59   60 am   BACKBONE|DICT|INTERRES
   121   59  184 1    
   122   60   61 2    
   123   60   62 1    
   124   62   63 1    
   125   62   64 1    
   126   62  185 1    
   127   63  186 1    
   128   63  187 1    
   129   63  188 1    
   130   64   65 am   BACKBONE|DICT|INTERRES
   131   64  189 1    
   132   65   66 2    
   133   67   68 2    
   134   67   69 am   BACKBONE|DICT|INTERRES
   135   69   70 1    
   136   69  190 1    
   137   70   71 1    
   138   70   72 1    
   139   70  191 1    
   140   71  192 1    
   141   71  193 1    
   142   71  194 1    
   143   72   73 2    
   144   72   74 am   BACKBONE|DICT|INTERRES
   145   74   75 1    
   146   74  195 1    
   147   75   76 1    
   148   75   77 1    
   149   75  196 1    
   150   76  197 1    
   151   76  198 1    
   152   76  199 1    
   153   77   78 2    
   154   77   79 am   BACKBONE|DICT|INTERRES
   155   79   80 1    
   156   79  200 1    
   157   80   81 1    
   158   80   82 1    
   159   80  201 1    
   160   81  202 1    
   161   81  203 1    
   162   81  204 1    
   163   82   83 2    
   164   82   84 am   BACKBONE|DICT|INTERRES
   165   84   85 1    
   166   84  205 1    
   167   85   86 1    
   168   85   87 1    
   169   85  206 1    
   170   86  207 1    
   171   86  208 1    
   172   86  209 1    
   173   87   88 2    
   174   87   89 am   BACKBONE|DICT|INTERRES
   175   89   90 1    
   176   89  210 1    
   177   90   91 1    
   178   90   92 1    
   179   90  211 1    
   180   91  212 1    
   181   91  213 1    
   182   91  214 1    
   183   92   93 2    
   184   92   94 am   BACKBONE|DICT|INTERRES
   185   94   95 1    
   186   94  215 1    
   187   95   96 1    
   188   95   97 1    
   189   95  216 1    
   190   96  217 1    
   191   96  218 1    
   192   96  219 1    
   193   97   98 2    
   194   97   99 am   BACKBONE|DICT|INTERRES
   195   99  100 1    
   196   99  220 1    
   197  100  101 1    
   198  100  102 1    
   199  100  221 1    
   200  101  222 1    
   201  101  223 1    
   202  101  224 1    
   203  102  103 2    
   204  102  104 am   BACKBONE|DICT|INTERRES
   205  104  105 1    
   206  104  225 1    
   207  105  106 1    
   208  105  107 1    
   209  105  226 1    
   210  106  227 1    
   211  106  228 1    
   212  106  229 1    
   213  107  108 2    
   214  107  109 am   BACKBONE|DICT|INTERRES
   215  109  110 1    
   216  109  230 1    
   217  110  111 1    
   218  110  112 1    
   219  110  231 1    
   220  111  232 1    
   221  111  233 1    
   222  111  234 1    
   223  112  113 2    
   224  112  114 am   BACKBONE|DICT|INTERRES
   225  114  115 1    
   226  114  235 1    
   227  115  116 1    
   228  115  117 1    
   229  115  236 1    
   230  116  237 1    
   231  116  238 1    
   232  116  239 1    
   233  117  118 2    
   234  117  119 am   BACKBONE|DICT|INTERRES
   235  119  120 1    
   236  119  240 1    
   237  120  121 1    
   238  120  124 1    
   239  120  241 1    
   240  121  122 am   BACKBONE|DICT|INTERRES
   241  121  123 2    
   242  122  242 1    
   243  122  243 1    
   244  124  125 1    
   245  124  244 1    
   246  124  245 1    
   247  125  126 1    
   248  126  246 1    
   249  126  247 1    
@<TRIPOS>SUBSTRUCTURE
     1 UNK         1 GROUP             0       ****    0 ROOT    
