@<TRIPOS>MOLECULE
3R540
247   249    1
SMALL
USER_CHARGES


@<TRIPOS>ATOM
      1 CA          6.6778  -15.3685  -45.2246 C.3       0 UNK        -0.1800 
      2 C           5.3651  -14.7267  -45.6477 C.2       0 UNK         0.5000 
      3 O           4.7123  -14.0777  -44.8342 O.2       0 UNK        -0.5000 
      4 N           4.9888  -14.8781  -46.9250 N.am      1 UNK        -0.5000 
      5 CA          3.7191  -14.4220  -47.5164 C.3       1 UNK         0.1400 
      6 C6          3.5415  -14.9989  -48.9471 C.3       23 UNK        -0.0398 
      7 S7          1.7985  -15.2591  -49.4365 S.3       23 UNK        -0.2404 
      8 C8          1.6113  -17.0657  -49.2857 C.3       23 UNK        -0.0205 
      9 C9          0.3842  -17.5581  -50.0400 C.ar      23 UNK        -0.0193 
     10 C10         0.5124  -18.0392  -51.3475 C.ar      23 UNK        -0.1150 
     11 C11        -0.6106  -18.4729  -52.0581 C.ar      23 UNK        -0.0193 
     12 C12        -1.8671  -18.4270  -51.4495 C.ar      23 UNK        -0.1150 
     13 C13        -2.0098  -17.9625  -50.1400 C.ar      23 UNK        -0.0193 
     14 C14        -0.8792  -17.5273  -49.4395 C.ar      23 UNK        -0.1150 
     15 C15        -3.3937  -17.9009  -49.5079 C.3       23 UNK        -0.0205 
     16 S16        -3.9436  -19.5189  -48.8736 S.3       23 UNK        -0.2404 
     17 C17        -2.8975  -19.7142  -47.3959 C.3       23 UNK        -0.0398 
     18 CA         -1.8697  -20.8710  -47.5166 C.3       11 UNK         0.1400 
     19 N          -0.6455  -20.5914  -46.7583 N.am      11 UNK        -0.5000 
     20 C           0.4397  -21.3760  -46.6930 C.2       10 UNK         0.5000 
     21 O           0.5609  -22.4353  -47.3053 O.2       10 UNK        -0.5000 
     22 CA          1.5605  -20.9336  -45.7353 C.3       10 UNK         0.1400 
     23 CB          2.4527  -19.8662  -46.3860 C.3       10 UNK        -0.1800 
     24 N           1.0490  -20.4414  -44.4552 N.am      10 UNK        -0.5000 
     25 C           0.3607  -21.1817  -43.5743 C.2       9 UNK         0.5000 
     26 O           0.1187  -22.3783  -43.7296 O.2       9 UNK        -0.5000 
     27 CA         -0.1992  -20.4546  -42.3380 C.3       9 UNK         0.1400 
     28 CB          0.8987  -20.2137  -41.2915 C.3       9 UNK        -0.1800 
     29 N          -0.8464  -19.1878  -42.6798 N.am      9 UNK        -0.5000 
     30 C          -1.9338  -19.0812  -43.4577 C.2       8 UNK         0.5000 
     31 O          -2.5386  -20.0457  -43.9295 O.2       8 UNK        -0.5000 
     32 CA         -2.3903  -17.6544  -43.8130 C.3       8 UNK         0.1400 
     33 CB         -3.2089  -17.0399  -42.6682 C.3       8 UNK        -0.1800 
     34 N          -1.2755  -16.7676  -44.1515 N.am      8 UNK        -0.5000 
     35 C          -0.4294  -16.9698  -45.1721 C.2       7 UNK         0.5000 
     36 O          -0.5055  -17.9169  -45.9483 O.2       7 UNK        -0.5000 
     37 CA          0.7332  -15.9832  -45.3255 C.3       7 UNK         0.1400 
     38 CB          0.2270  -14.6491  -45.8945 C.3       7 UNK        -0.1800 
     39 N           1.4394  -15.7710  -44.0648 N.am      7 UNK        -0.5000 
     40 C           2.0590  -16.7282  -43.3592 C.2       6 UNK         0.5000 
     41 O           2.1713  -17.8927  -43.7396 O.2       6 UNK        -0.5000 
     42 CA          2.5841  -16.3431  -41.9656 C.3       6 UNK         0.1400 
     43 CB          4.0054  -15.7721  -42.0310 C.3       6 UNK        -0.1800 
     44 N           1.7051  -15.3901  -41.2918 N.am      6 UNK        -0.5000 
     45 C           0.4989  -15.6989  -40.7988 C.2       5 UNK         0.5000 
     46 O           0.0133  -16.8307  -40.8316 O.2       5 UNK        -0.5000 
     47 CA         -0.3091  -14.5319  -40.2038 C.3       5 UNK         0.1400 
     48 CB          0.1782  -14.1966  -38.7860 C.3       5 UNK        -0.1800 
     49 N          -0.2505  -13.3287  -41.0381 N.am      5 UNK        -0.5000 
     50 C          -0.8205  -13.2319  -42.2467 C.2       4 UNK         0.5000 
     51 O          -1.4509  -14.1471  -42.7771 O.2       4 UNK        -0.5000 
     52 CA         -0.6414  -11.9002  -43.0016 C.3       4 UNK         0.1400 
     53 CB         -1.6937  -10.8791  -42.5436 C.3       4 UNK        -0.1800 
     54 N           0.6939  -11.2975  -42.9015 N.am      4 UNK        -0.5000 
     55 C           1.8360  -11.8933  -43.2686 C.2       3 UNK         0.5000 
     56 O           1.9168  -13.0810  -43.5744 O.2       3 UNK        -0.5000 
     57 CA          3.1030  -11.0298  -43.2972 C.3       3 UNK         0.1400 
     58 CB          4.0679  -11.4443  -42.1758 C.3       3 UNK        -0.1800 
     59 N           3.7643  -11.2129  -44.5891 N.am      3 UNK        -0.5000 
     60 C           3.7884  -10.3009  -45.5718 C.2       2 UNK         0.5000 
     61 O           3.2871   -9.1801  -45.4692 O.2       2 UNK        -0.5000 
     62 CA          4.4926  -10.6784  -46.8938 C.3       2 UNK         0.1400 
     63 CB          5.9241  -10.1204  -46.9143 C.3       2 UNK        -0.1800 
     64 N           4.5470  -12.1185  -47.1430 N.am      2 UNK        -0.5000 
     65 C           3.4962  -12.8853  -47.4651 C.2       1 UNK         0.5000 
     66 O           2.3800  -12.4207  -47.6970 O.2       1 UNK        -0.5000 
     67 C          -2.5029  -22.2161  -47.1040 C.2       11 UNK         0.5000 
     68 O          -2.8523  -23.0212  -47.9659 O.2       11 UNK        -0.5000 
     69 N          -2.5999  -22.4475  -45.7867 N.am      12 UNK        -0.5000 
     70 CA         -3.0890  -23.6938  -45.2036 C.3       12 UNK         0.1400 
     71 CB         -3.3396  -23.4921  -43.7013 C.3       12 UNK        -0.1800 
     72 C          -2.1359  -24.8774  -45.4530 C.2       12 UNK         0.5000 
     73 O          -2.5933  -25.9421  -45.8689 O.2       12 UNK        -0.5000 
     74 N          -0.8338  -24.6707  -45.2091 N.am      13 UNK        -0.5000 
     75 CA          0.2130  -25.6879  -45.3367 C.3       13 UNK         0.1400 
     76 CB          1.5282  -25.1472  -44.7557 C.3       13 UNK        -0.1800 
     77 C           0.4237  -26.1814  -46.7794 C.2       13 UNK         0.5000 
     78 O           0.5761  -27.3848  -46.9926 O.2       13 UNK        -0.5000 
     79 N           0.4140  -25.2520  -47.7431 N.am      14 UNK        -0.5000 
     80 CA          0.5651  -25.5370  -49.1716 C.3       14 UNK         0.1400 
     81 CB          1.1225  -24.2848  -49.8689 C.3       14 UNK        -0.1800 
     82 C          -0.7498  -25.9743  -49.8452 C.2       14 UNK         0.5000 
     83 O          -0.7284  -26.3182  -51.0275 O.2       14 UNK        -0.5000 
     84 N          -1.8748  -25.8907  -49.1200 N.am      15 UNK        -0.5000 
     85 CA         -3.2709  -26.0898  -49.5356 C.3       15 UNK         0.1400 
     86 CB         -3.5078  -27.5004  -50.1061 C.3       15 UNK        -0.1800 
     87 C          -3.8056  -25.0017  -50.4886 C.2       15 UNK         0.5000 
     88 O          -4.9835  -24.6555  -50.3963 O.2       15 UNK        -0.5000 
     89 N          -2.9401  -24.4728  -51.3653 N.am      16 UNK        -0.5000 
     90 CA         -3.1098  -23.2750  -52.1921 C.3       16 UNK         0.1400 
     91 CB         -3.0664  -22.0210  -51.2993 C.3       16 UNK        -0.1800 
     92 C          -4.3445  -23.3061  -53.1133 C.2       16 UNK         0.5000 
     93 O          -4.9847  -22.2737  -53.3171 O.2       16 UNK        -0.5000 
     94 N          -4.6522  -24.4936  -53.6551 N.am      17 UNK        -0.5000 
     95 CA         -5.8233  -24.7940  -54.4877 C.3       17 UNK         0.1400 
     96 CB         -5.7440  -24.0519  -55.8398 C.3       17 UNK        -0.1800 
     97 C          -7.1482  -24.5574  -53.7288 C.2       17 UNK         0.5000 
     98 O          -8.0653  -23.9279  -54.2570 O.2       17 UNK        -0.5000 
     99 N          -7.1965  -25.0705  -52.4899 N.am      18 UNK        -0.5000 
    100 CA        -8.2657  -24.9277  -51.4964 C.3       18 UNK         0.1400 
    101 CB        -9.6034  -25.5062  -52.0064 C.3       18 UNK        -0.1800 
    102 C         -8.3717  -23.4806  -50.9758 C.2       18 UNK         0.5000 
    103 O         -9.4545  -22.8918  -50.9832 O.2       18 UNK        -0.5000 
    104 N         -7.2244  -22.9504  -50.5261 N.am      19 UNK        -0.5000 
    105 CA        -7.0152  -21.6147  -49.9575 C.3       19 UNK         0.1400 
    106 CB        -7.6840  -21.5054  -48.5719 C.3       19 UNK        -0.1800 
    107 C         -7.4156  -20.4777  -50.9208 C.2       19 UNK         0.5000 
    108 O         -8.0828  -19.5230  -50.5154 O.2       19 UNK        -0.5000 
    109 N         -7.0149  -20.6213  -52.1880 N.am      20 UNK        -0.5000 
    110 CA        -7.2600  -19.6784  -53.2704 C.3       20 UNK         0.1400 
    111 CB        -7.8907  -20.4437  -54.4513 C.3       20 UNK        -0.1800 
    112 C         -5.9422  -18.9591  -53.6171 C.2       20 UNK         0.5000 
    113 O         -5.2509  -18.4889  -52.7125 O.2       20 UNK        -0.5000 
    114 N         -5.6239  -18.8626  -54.9131 N.am      21 UNK        -0.5000 
    115 CA        -4.4701  -18.1413  -55.4531 C.3       21 UNK         0.1400 
    116 CB        -4.9606  -17.2373  -56.5989 C.3       21 UNK        -0.1800 
    117 C         -3.3438  -19.0871  -55.9171 C.2       21 UNK         0.5000 
    118 O         -2.5070  -18.6708  -56.7195 O.2       21 UNK        -0.5000 
    119 N         -3.3323  -20.3341  -55.4221 N.am      22 UNK        -0.5000 
    120 CA        -2.3559  -21.3890  -55.7674 C.3       22 UNK         0.1400 
    121 C         -2.4735  -21.9327  -57.2260 C.2       22 UNK         0.5000 
    122 N         -3.5634  -21.6830  -57.9416 N.am      22 UNK        -0.7600 
    123 O         -1.5818  -22.6245  -57.7100 O.2       22 UNK        -0.5000 
    124 C124       -0.8873  -21.0370  -55.3769 C.3       23 UNK        -0.0398 
    125 S125       -0.6680  -20.7745  -53.5844 S.3       23 UNK        -0.2404 
    126 C126       -0.4827  -18.9677  -53.4902 C.3       23 UNK        -0.0205 
    127 H127        7.1681  -15.8765  -46.0553 H         1 UNK         0.0600 
    128 H128        6.4987  -16.0993  -44.4362 H         1 UNK         0.0600 
    129 H129        7.3585  -14.6097  -44.8388 H         1 UNK         0.0600 
    130 H130        5.5956  -15.3933  -47.5468 H         1 UNK         0.3000 
    131 H131        2.9455  -14.8571  -46.8856 H         1 UNK         0.0600 
    132 H132        4.0193  -14.3546  -49.6874 H         1 UNK         0.0800 
    133 H133        4.0547  -15.9573  -49.0322 H         1 UNK         0.0800 
    134 H134        2.5011  -17.5676  -49.6687 H         1 UNK         0.0800 
    135 H135        1.5326  -17.3347  -48.2330 H         1 UNK         0.0800 
    136 H136        1.4860  -18.0637  -51.8165 H         1 UNK         0.1150 
    137 H137       -2.7385  -18.7556  -51.9979 H         1 UNK         0.1150 
    138 H138       -0.9814  -17.1506  -48.4321 H         1 UNK         0.1150 
    139 H139       -3.4210  -17.1603  -48.7072 H         1 UNK         0.0800 
    140 H140       -4.1129  -17.5620  -50.2553 H         1 UNK         0.0800 
    141 H141       -3.5392  -19.8287  -46.5205 H         1 UNK         0.0800 
    142 H142       -2.3868  -18.7680  -47.2441 H         1 UNK         0.0800 
    143 H143       -1.5596  -20.9558  -48.5602 H         1 UNK         0.0600 
    144 H144       -0.6213  -19.7023  -46.2630 H         1 UNK         0.3000 
    145 H145        2.1808  -21.8078  -45.5291 H         1 UNK         0.0600 
    146 H146        2.8278  -20.2029  -47.3532 H         1 UNK         0.0600 
    147 H147        1.9106  -18.9357  -46.5474 H         1 UNK         0.0600 
    148 H148        3.3165  -19.6419  -45.7601 H         1 UNK         0.0600 
    149 H149        1.2410  -19.4670  -44.2362 H         1 UNK         0.3000 
    150 H150       -0.9562  -21.1012  -41.8892 H         1 UNK         0.0600 
    151 H151        0.4924  -19.7460  -40.3944 H         1 UNK         0.0600 
    152 H152        1.6895  -19.5694  -41.6747 H         1 UNK         0.0600 
    153 H153        1.3603  -21.1542  -40.9887 H         1 UNK         0.0600 
    154 H154       -0.4262  -18.3429  -42.3097 H         1 UNK         0.3000 
    155 H155       -3.0345  -17.7240  -44.6918 H         1 UNK         0.0600 
    156 H156       -2.6058  -16.9010  -41.7704 H         1 UNK         0.0600 
    157 H157       -4.0526  -17.6786  -42.4036 H         1 UNK         0.0600 
    158 H158       -3.6127  -16.0678  -42.9516 H         1 UNK         0.0600 
    159 H159       -1.1610  -15.9392  -43.5747 H         1 UNK         0.3000 
    160 H160        1.4478  -16.4123  -46.0287 H         1 UNK         0.0600 
    161 H161       -0.1593  -14.7820  -46.9057 H         1 UNK         0.0600 
    162 H162        1.0208  -13.9069  -45.9445 H         1 UNK         0.0600 
    163 H163       -0.5761  -14.2270  -45.2923 H         1 UNK         0.0600 
    164 H164        1.4757  -14.8124  -43.7225 H         1 UNK         0.3000 
    165 H165        2.6214  -17.2565  -41.3685 H         1 UNK         0.0600 
    166 H166        4.4338  -15.6690  -41.0341 H         1 UNK         0.0600 
    167 H167        4.6663  -16.4214  -42.6063 H         1 UNK         0.0600 
    168 H168        4.0146  -14.7897  -42.4989 H         1 UNK         0.0600 
    169 H169        2.0016  -14.4255  -41.2833 H         1 UNK         0.3000 
    170 H170       -1.3516  -14.8508  -40.1374 H         1 UNK         0.0600 
    171 H171       -0.4433  -13.4270  -38.3279 H         1 UNK         0.0600 
    172 H172        0.1338  -15.0752  -38.1409 H         1 UNK         0.0600 
    173 H173        1.2090  -13.8404  -38.7853 H         1 UNK         0.0600 
    174 H174        0.2557  -12.5349  -40.6742 H         1 UNK         0.3000 
    175 H175       -0.8172  -12.1072  -44.0590 H         1 UNK         0.0600 
    176 H176       -1.5433  -10.5842  -41.5044 H         1 UNK         0.0600 
    177 H177       -2.7005  -11.2912  -42.6256 H         1 UNK         0.0600 
    178 H178       -1.6633   -9.9782  -43.1567 H         1 UNK         0.0600 
    179 H179        0.7197  -10.3219  -42.6420 H         1 UNK         0.3000 
    180 H180        2.8282   -9.9847  -43.1413 H         1 UNK         0.0600 
    181 H181        3.5921  -11.3630  -41.1978 H         1 UNK         0.0600 
    182 H182        4.9504  -10.8046  -42.1635 H         1 UNK         0.0600 
    183 H183        4.4069  -12.4736  -42.2946 H         1 UNK         0.0600 
    184 H184        4.1199  -12.1488  -44.7658 H         1 UNK         0.3000 
    185 H185        3.9342  -10.2118  -47.7081 H         1 UNK         0.0600 
    186 H186        6.5392  -10.5626  -46.1295 H         1 UNK         0.0600 
    187 H187        6.4096  -10.3127  -47.8713 H         1 UNK         0.0600 
    188 H188        5.9250   -9.0401  -46.7625 H         1 UNK         0.0600 
    189 H189        5.4247  -12.5785  -46.9512 H         1 UNK         0.3000 
    190 H190       -2.3103  -21.7220  -45.1389 H         1 UNK         0.3000 
    191 H191       -4.0450  -23.9321  -45.6747 H         1 UNK         0.0600 
    192 H192       -2.4271  -23.2179  -43.1712 H         1 UNK         0.0600 
    193 H193       -3.7249  -24.4040  -43.2435 H         1 UNK         0.0600 
    194 H194       -4.0733  -22.7047  -43.5277 H         1 UNK         0.0600 
    195 H195       -0.5423  -23.7692  -44.8387 H         1 UNK         0.3000 
    196 H196       -0.0904  -26.5484  -44.7369 H         1 UNK         0.0600 
    197 H197        2.3225  -25.8916  -44.8237 H         1 UNK         0.0600 
    198 H198        1.4165  -24.8867  -43.7031 H         1 UNK         0.0600 
    199 H199        1.8649  -24.2567  -45.2871 H         1 UNK         0.0600 
    200 H200        0.3200  -24.2702  -47.4879 H         1 UNK         0.3000 
    201 H201        1.2864  -26.3465  -49.3003 H         1 UNK         0.0600 
    202 H202        2.0515  -23.9535  -49.4046 H         1 UNK         0.0600 
    203 H203        0.4143  -23.4557  -49.8306 H         1 UNK         0.0600 
    204 H204        1.3376  -24.4824  -50.9198 H         1 UNK         0.0600 
    205 H205       -1.7722  -25.5508  -48.1728 H         1 UNK         0.3000 
    206 H206       -3.8556  -26.0052  -48.6182 H         1 UNK         0.0600 
    207 H207       -4.5705  -27.6724  -50.2810 H         1 UNK         0.0600 
    208 H208       -2.9955  -27.6515  -51.0563 H         1 UNK         0.0600 
    209 H209       -3.1644  -28.2680  -49.4126 H         1 UNK         0.0600 
    210 H210       -2.0228  -24.9058  -51.3997 H         1 UNK         0.3000 
    211 H211       -2.2458  -23.2385  -52.8556 H         1 UNK         0.0600 
    212 H212       -3.8535  -22.0386  -50.5482 H         1 UNK         0.0600 
    213 H213       -3.1870  -21.1065  -51.8800 H         1 UNK         0.0600 
    214 H214       -2.1129  -21.9459  -50.7770 H         1 UNK         0.0600 
    215 H215       -4.0623  -25.2804  -53.4228 H         1 UNK         0.3000 
    216 H216       -5.7841  -25.8630  -54.7018 H         1 UNK         0.0600 
    217 H217       -6.5559  -24.3580  -56.5002 H         1 UNK         0.0600 
    218 H218       -4.8084  -24.2708  -56.3544 H         1 UNK         0.0600 
    219 H219       -5.8125  -22.9710  -55.7210 H         1 UNK         0.0600 
    220 H220       -6.3545  -25.5062  -52.1391 H         1 UNK         0.3000 
    221 H221       -7.9618  -25.5329  -50.6408 H         1 UNK         0.0600 
    222 H222      -10.0215  -24.9178  -52.8232 H         1 UNK         0.0600 
    223 H223       -9.4817  -26.5307  -52.3577 H         1 UNK         0.0600 
    224 H224      -10.3460  -25.5229  -51.2080 H         1 UNK         0.0600 
    225 H225       -6.3930  -23.5395  -50.5564 H         1 UNK         0.3000 
    226 H226       -5.9418  -21.5181  -49.8041 H         1 UNK         0.0600 
    227 H227       -7.3469  -22.3023  -47.9090 H         1 UNK         0.0600 
    228 H228       -7.4326  -20.5587  -48.0922 H         1 UNK         0.0600 
    229 H229       -8.7708  -21.5612  -48.6407 H         1 UNK         0.0600 
    230 H230       -6.4050  -21.3980  -52.4303 H         1 UNK         0.3000 
    231 H231       -7.9664  -18.9081  -52.9559 H         1 UNK         0.0600 
    232 H232       -7.2116  -21.1942  -54.8572 H         1 UNK         0.0600 
    233 H233       -8.7957  -20.9637  -54.1358 H         1 UNK         0.0600 
    234 H234       -8.1777  -19.7700  -55.2593 H         1 UNK         0.0600 
    235 H235       -6.2369  -19.2945  -55.5896 H         1 UNK         0.3000 
    236 H236       -4.0360  -17.4967  -54.6861 H         1 UNK         0.0600 
    237 H237       -5.3529  -17.8212  -57.4323 H         1 UNK         0.0600 
    238 H238       -5.7491  -16.5653  -56.2597 H         1 UNK         0.0600 
    239 H239       -4.1533  -16.6135  -56.9846 H         1 UNK         0.0600 
    240 H240       -4.0525  -20.6002  -54.7632 H         1 UNK         0.3000 
    241 H241       -2.6400  -22.2464  -55.1603 H         1 UNK         0.0600 
    242 H242       -3.6345  -22.0480  -58.8783 H         1 UNK         0.3800 
    243 H243       -4.3103  -21.1249  -57.5629 H         1 UNK         0.3800 
    244 H244       -0.2172  -21.8547  -55.6466 H         1 UNK         0.0800 
    245 H245       -0.5273  -20.1697  -55.9309 H         1 UNK         0.0800 
    246 H246       -1.2438  -18.4814  -54.0989 H         1 UNK         0.0800 
    247 H247        0.4808  -18.6827  -53.9154 H         1 UNK         0.0800 
@<TRIPOS>BOND
     1    1    2 1    
     2    1  127 1    
     3    1  128 1    
     4    1  129 1    
     5    2    3 2    
     6    2    4 am   BACKBONE|DICT|INTERRES
     7    4    5 1    
     8    4  130 1    
     9    5    6 1    
    10    5   65 1    
    11    5  131 1    
    12    6    7 1    
    13    6  132 1    
    14    6  133 1    
    15    7    8 1    
    16    8    9 1    
    17    8  134 1    
    18    8  135 1    
    19    9   10 ar   
    20    9   14 ar   
    21   10   11 ar   
    22   10  136 1    
    23   11   12 ar   
    24   11  126 1    
    25   12   13 ar   
    26   12  137 1    
    27   13   14 ar   
    28   13   15 1    
    29   14  138 1    
    30   15   16 1    
    31   15  139 1    
    32   15  140 1    
    33   16   17 1    
    34   17   18 1    
    35   17  141 1    
    36   17  142 1    
    37   18   19 1    
    38   18   67 1    
    39   18  143 1    
    40   19   20 am   BACKBONE|DICT|INTERRES
    41   19  144 1    
    42   20   21 2    
    43   20   22 1    
    44   22   23 1    
    45   22   24 1    
    46   22  145 1    
    47   23  146 1    
    48   23  147 1    
    49   23  148 1    
    50   24   25 am   BACKBONE|DICT|INTERRES
    51   24  149 1    
    52   25   26 2    
    53   25   27 1    
    54   27   28 1    
    55   27   29 1    
    56   27  150 1    
    57   28  151 1    
    58   28  152 1    
    59   28  153 1    
    60   29   30 am   BACKBONE|DICT|INTERRES
    61   29  154 1    
    62   30   31 2    
    63   30   32 1    
    64   32   33 1    
    65   32   34 1    
    66   32  155 1    
    67   33  156 1    
    68   33  157 1    
    69   33  158 1    
    70   34   35 am   BACKBONE|DICT|INTERRES
    71   34  159 1    
    72   35   36 2    
    73   35   37 1    
    74   37   38 1    
    75   37   39 1    
    76   37  160 1    
    77   38  161 1    
    78   38  162 1    
    79   38  163 1    
    80   39   40 am   BACKBONE|DICT|INTERRES
    81   39  164 1    
    82   40   41 2    
    83   40   42 1    
    84   42   43 1    
    85   42   44 1    
    86   42  165 1    
    87   43  166 1    
    88   43  167 1    
    89   43  168 1    
    90   44   45 am   BACKBONE|DICT|INTERRES
    91   44  169 1    
    92   45   46 2    
    93   45   47 1    
    94   47   48 1    
    95   47   49 1    
    96   47  170 1    
    97   48  171 1    
    98   48  172 1    
    99   48  173 1    
   100   49   50 am   BACKBONE|DICT|INTERRES
   101   49  174 1    
   102   50   51 2    
   103   50   52 1    
   104   52   53 1    
   105   52   54 1    
   106   52  175 1    
   107   53  176 1    
   108   53  177 1    
   109   53  178 1    
   110   54   55 am   BACKBONE|DICT|INTERRES
   111   54  179 1    
   112   55   56 2    
   113   55   57 1    
   114   57   58 1    
   115   57   59 1    
   116   57  180 1    
   117   58  181 1    
   118   58  182 1    
   119   58  183 1    
   120   59   60 am   BACKBONE|DICT|INTERRES
   121   59  184 1    
   122   60   61 2    
   123   60   62 1    
   124   62   63 1    
   125   62   64 1    
   126   62  185 1    
   127   63  186 1    
   128   63  187 1    
   129   63  188 1    
   130   64   65 am   BACKBONE|DICT|INTERRES
   131   64  189 1    
   132   65   66 2    
   133   67   68 2    
   134   67   69 am   BACKBONE|DICT|INTERRES
   135   69   70 1    
   136   69  190 1    
   137   70   71 1    
   138   70   72 1    
   139   70  191 1    
   140   71  192 1    
   141   71  193 1    
   142   71  194 1    
   143   72   73 2    
   144   72   74 am   BACKBONE|DICT|INTERRES
   145   74   75 1    
   146   74  195 1    
   147   75   76 1    
   148   75   77 1    
   149   75  196 1    
   150   76  197 1    
   151   76  198 1    
   152   76  199 1    
   153   77   78 2    
   154   77   79 am   BACKBONE|DICT|INTERRES
   155   79   80 1    
   156   79  200 1    
   157   80   81 1    
   158   80   82 1    
   159   80  201 1    
   160   81  202 1    
   161   81  203 1    
   162   81  204 1    
   163   82   83 2    
   164   82   84 am   BACKBONE|DICT|INTERRES
   165   84   85 1    
   166   84  205 1    
   167   85   86 1    
   168   85   87 1    
   169   85  206 1    
   170   86  207 1    
   171   86  208 1    
   172   86  209 1    
   173   87   88 2    
   174   87   89 am   BACKBONE|DICT|INTERRES
   175   89   90 1    
   176   89  210 1    
   177   90   91 1    
   178   90   92 1    
   179   90  211 1    
   180   91  212 1    
   181   91  213 1    
   182   91  214 1    
   183   92   93 2    
   184   92   94 am   BACKBONE|DICT|INTERRES
   185   94   95 1    
   186   94  215 1    
   187   95   96 1    
   188   95   97 1    
   189   95  216 1    
   190   96  217 1    
   191   96  218 1    
   192   96  219 1    
   193   97   98 2    
   194   97   99 am   BACKBONE|DICT|INTERRES
   195   99  100 1    
   196   99  220 1    
   197  100  101 1    
   198  100  102 1    
   199  100  221 1    
   200  101  222 1    
   201  101  223 1    
   202  101  224 1    
   203  102  103 2    
   204  102  104 am   BACKBONE|DICT|INTERRES
   205  104  105 1    
   206  104  225 1    
   207  105  106 1    
   208  105  107 1    
   209  105  226 1    
   210  106  227 1    
   211  106  228 1    
   212  106  229 1    
   213  107  108 2    
   214  107  109 am   BACKBONE|DICT|INTERRES
   215  109  110 1    
   216  109  230 1    
   217  110  111 1    
   218  110  112 1    
   219  110  231 1    
   220  111  232 1    
   221  111  233 1    
   222  111  234 1    
   223  112  113 2    
   224  112  114 am   BACKBONE|DICT|INTERRES
   225  114  115 1    
   226  114  235 1    
   227  115  116 1    
   228  115  117 1    
   229  115  236 1    
   230  116  237 1    
   231  116  238 1    
   232  116  239 1    
   233  117  118 2    
   234  117  119 am   BACKBONE|DICT|INTERRES
   235  119  120 1    
   236  119  240 1    
   237  120  121 1    
   238  120  124 1    
   239  120  241 1    
   240  121  122 am   BACKBONE|DICT|INTERRES
   241  121  123 2    
   242  122  242 1    
   243  122  243 1    
   244  124  125 1    
   245  124  244 1    
   246  124  245 1    
   247  125  126 1    
   248  126  246 1    
   249  126  247 1    
@<TRIPOS>SUBSTRUCTURE
     1 UNK         1 GROUP             0       ****    0 ROOT    
