@<TRIPOS>MOLECULE
3R540
247   249    1
SMALL
USER_CHARGES


@<TRIPOS>ATOM
      1 CA          2.3356  -11.3209  -45.5747 C.3       0 UNK        -0.1800 
      2 C           1.4756  -12.1331  -46.5321 C.2       0 UNK         0.5000 
      3 O           0.5046  -12.7561  -46.1072 O.2       0 UNK        -0.5000 
      4 N           1.8232  -12.1102  -47.8257 N.am      1 UNK        -0.5000 
      5 CA          1.1500  -12.8176  -48.9276 C.3       1 UNK         0.1400 
      6 C6          2.0550  -12.7951  -50.1881 C.3       23 UNK        -0.0398 
      7 S7          1.5878  -13.9397  -51.5337 S.3       23 UNK        -0.2404 
      8 C8          2.3745  -15.5042  -51.0316 C.3       23 UNK        -0.0205 
      9 C9          1.3512  -16.4691  -50.4536 C.ar      23 UNK        -0.0193 
     10 C10         0.5611  -17.2442  -51.3085 C.ar      23 UNK        -0.1150 
     11 C11        -0.3959  -18.1225  -50.7915 C.ar      23 UNK        -0.0193 
     12 C12        -0.5608  -18.2179  -49.4075 C.ar      23 UNK        -0.1150 
     13 C13         0.2264  -17.4532  -48.5429 C.ar      23 UNK        -0.0193 
     14 C14         1.1866  -16.5865  -49.0711 C.ar      23 UNK        -0.1150 
     15 C15         0.0279  -17.5592  -47.0416 C.3       23 UNK        -0.0205 
     16 S16         1.2092  -18.7282  -46.3114 S.3       23 UNK        -0.2404 
     17 C17         0.2077  -19.4858  -44.9912 C.3       23 UNK        -0.0398 
     18 CA         -0.6265  -20.6916  -45.4881 C.3       11 UNK         0.1400 
     19 N           0.1537  -21.6547  -46.2732 N.am      11 UNK        -0.5000 
     20 C          -0.3571  -22.6754  -46.9739 C.2       10 UNK         0.5000 
     21 O          -1.5589  -22.9286  -47.0269 O.2       10 UNK        -0.5000 
     22 CA          0.6424  -23.5894  -47.7024 C.3       10 UNK         0.1400 
     23 CB          1.0621  -22.9645  -49.0399 C.3       10 UNK        -0.1800 
     24 N           1.8284  -23.8633  -46.8913 N.am      10 UNK        -0.5000 
     25 C           1.8196  -24.5949  -45.7670 C.2       9 UNK         0.5000 
     26 O           0.8271  -25.1882  -45.3460 O.2       9 UNK        -0.5000 
     27 CA          3.1258  -24.6218  -44.9479 C.3       9 UNK         0.1400 
     28 CB          4.0335  -25.7688  -45.4161 C.3       9 UNK        -0.1800 
     29 N           3.8724  -23.3589  -44.9973 N.am      9 UNK        -0.5000 
     30 C           3.3953  -22.1788  -44.5795 C.2       8 UNK         0.5000 
     31 O           2.2660  -22.0376  -44.1018 O.2       8 UNK        -0.5000 
     32 CA          4.3102  -20.9555  -44.7886 C.3       8 UNK         0.1400 
     33 CB          4.4629  -20.6392  -46.2861 C.3       8 UNK        -0.1800 
     34 N           3.7810  -19.7720  -44.1108 N.am      8 UNK        -0.5000 
     35 C           3.8376  -19.5681  -42.7886 C.2       7 UNK         0.5000 
     36 O           4.4533  -20.3068  -42.0169 O.2       7 UNK        -0.5000 
     37 CA          3.0584  -18.3543  -42.2353 C.3       7 UNK         0.1400 
     38 CB          3.6120  -17.8572  -40.8838 C.3       7 UNK        -0.1800 
     39 N           2.9170  -17.2285  -43.1663 N.am      7 UNK        -0.5000 
     40 C           3.9005  -16.5032  -43.7257 C.2       6 UNK         0.5000 
     41 O           5.0970  -16.7809  -43.6390 O.2       6 UNK        -0.5000 
     42 CA          3.4820  -15.2237  -44.4836 C.3       6 UNK         0.1400 
     43 CB          3.3986  -15.4867  -45.9933 C.3       6 UNK        -0.1800 
     44 N           2.2107  -14.6630  -44.0156 N.am      6 UNK        -0.5000 
     45 C           2.0114  -14.1587  -42.7892 C.2       5 UNK         0.5000 
     46 O           2.9140  -13.9995  -41.9666 O.2       5 UNK        -0.5000 
     47 CA          0.5685  -13.7902  -42.3905 C.3       5 UNK         0.1400 
     48 CB          0.3731  -12.2660  -42.3950 C.3       5 UNK        -0.1800 
     49 N          -0.4937  -14.3971  -43.1975 N.am      5 UNK        -0.5000 
     50 C          -0.7385  -15.7051  -43.3662 C.2       4 UNK         0.5000 
     51 O           0.0077  -16.5959  -42.9582 O.2       4 UNK        -0.5000 
     52 CA         -2.0426  -16.0859  -44.1015 C.3       4 UNK         0.1400 
     53 CB         -2.9611  -16.9118  -43.1871 C.3       4 UNK        -0.1800 
     54 N          -2.7820  -14.9147  -44.5838 N.am      4 UNK        -0.5000 
     55 C          -2.5646  -14.3092  -45.7583 C.2       3 UNK         0.5000 
     56 O          -1.7973  -14.7525  -46.6134 O.2       3 UNK        -0.5000 
     57 CA         -3.3130  -12.9874  -46.0135 C.3       3 UNK         0.1400 
     58 CB         -3.6396  -12.1985  -44.7272 C.3       3 UNK        -0.1800 
     59 N          -2.5090  -12.1545  -46.9014 N.am      3 UNK        -0.5000 
     60 C          -2.9876  -11.2916  -47.8062 C.2       2 UNK         0.5000 
     61 O          -4.1895  -11.0688  -47.9609 O.2       2 UNK        -0.5000 
     62 CA         -1.9671  -10.5364  -48.6874 C.3       2 UNK         0.1400 
     63 CB         -1.8676   -9.0656  -48.2526 C.3       2 UNK        -0.1800 
     64 N          -0.6235  -11.1183  -48.6701 N.am      2 UNK        -0.5000 
     65 C          -0.2857  -12.3009  -49.2041 C.2       1 UNK         0.5000 
     66 O          -1.0720  -12.9854  -49.8587 O.2       1 UNK        -0.5000 
     67 C          -1.3344  -21.3811  -44.3080 C.2       11 UNK         0.5000 
     68 O          -2.5204  -21.1391  -44.0835 O.2       11 UNK        -0.5000 
     69 N          -0.6064  -22.2798  -43.6291 N.am      12 UNK        -0.5000 
     70 CA         -1.1070  -23.1508  -42.5634 C.3       12 UNK         0.1400 
     71 CB          0.0770  -23.9011  -41.9358 C.3       12 UNK        -0.1800 
     72 C          -2.1909  -24.1412  -43.0387 C.2       12 UNK         0.5000 
     73 O          -3.0535  -24.5203  -42.2470 O.2       12 UNK        -0.5000 
     74 N          -2.1611  -24.4989  -44.3293 N.am      13 UNK        -0.5000 
     75 CA         -3.1655  -25.3057  -45.0238 C.3       13 UNK         0.1400 
     76 CB         -2.4612  -26.1643  -46.0901 C.3       13 UNK        -0.1800 
     77 C          -4.2958  -24.4421  -45.6289 C.2       13 UNK         0.5000 
     78 O          -4.8985  -24.8434  -46.6254 O.2       13 UNK        -0.5000 
     79 N          -4.5604  -23.2691  -45.0324 N.am      14 UNK        -0.5000 
     80 CA         -5.5865  -22.2891  -45.4043 C.3       14 UNK         0.1400 
     81 CB         -7.0002  -22.8653  -45.1767 C.3       14 UNK        -0.1800 
     82 C          -5.3823  -21.7381  -46.8286 C.2       14 UNK         0.5000 
     83 O          -6.3212  -21.7140  -47.6256 O.2       14 UNK        -0.5000 
     84 N          -4.1362  -21.3421  -47.1252 N.am      15 UNK        -0.5000 
     85 CA         -3.6463  -20.8824  -48.4304 C.3       15 UNK         0.1400 
     86 CB         -4.2756  -19.5247  -48.8059 C.3       15 UNK        -0.1800 
     87 C          -3.8236  -21.9641  -49.5145 C.2       15 UNK         0.5000 
     88 O          -4.3945  -21.6980  -50.5721 O.2       15 UNK        -0.5000 
     89 N          -3.3677  -23.1812  -49.1834 N.am      16 UNK        -0.5000 
     90 CA         -3.4775  -24.4224  -49.9549 C.3       16 UNK         0.1400 
     91 CB         -2.5210  -24.3836  -51.1638 C.3       16 UNK        -0.1800 
     92 C          -4.9381  -24.7536  -50.3318 C.2       16 UNK         0.5000 
     93 O          -5.2316  -25.0423  -51.4928 O.2       16 UNK        -0.5000 
     94 N          -5.8247  -24.6773  -49.3280 N.am      17 UNK        -0.5000 
     95 CA         -7.2826  -24.7992  -49.4135 C.3       17 UNK         0.1400 
     96 CB         -7.6921  -26.2419  -49.7767 C.3       17 UNK        -0.1800 
     97 C          -7.9069  -23.7313  -50.3382 C.2       17 UNK         0.5000 
     98 O          -8.6930  -24.0619  -51.2284 O.2       17 UNK        -0.5000 
     99 N          -7.5328  -22.4666  -50.0951 N.am      18 UNK        -0.5000 
    100 CA        -7.9384  -21.2544  -50.8120 C.3       18 UNK         0.1400 
    101 CB        -9.4217  -20.9353  -50.5320 C.3       18 UNK        -0.1800 
    102 C         -7.5979  -21.2969  -52.3172 C.2       18 UNK         0.5000 
    103 O         -8.4611  -21.0412  -53.1605 O.2       18 UNK        -0.5000 
    104 N         -6.3400  -21.6311  -52.6277 N.am      19 UNK        -0.5000 
    105 CA        -5.7955  -21.6535  -53.9833 C.3       19 UNK         0.1400 
    106 CB        -4.4699  -22.4281  -53.9741 C.3       19 UNK        -0.1800 
    107 C         -5.5757  -20.2339  -54.5380 C.2       19 UNK         0.5000 
    108 O         -5.3697  -19.2895  -53.7711 O.2       19 UNK        -0.5000 
    109 N         -5.5858  -20.1178  -55.8725 N.am      20 UNK        -0.5000 
    110 CA        -5.3178  -18.8717  -56.5978 C.3       20 UNK         0.1400 
    111 CB        -5.7657  -19.0358  -58.0584 C.3       20 UNK        -0.1800 
    112 C         -3.8392  -18.4378  -56.5327 C.2       20 UNK         0.5000 
    113 O         -3.5518  -17.2440  -56.6290 O.2       20 UNK        -0.5000 
    114 N         -2.9355  -19.4083  -56.3619 N.am      21 UNK        -0.5000 
    115 CA        -1.5025  -19.2276  -56.1757 C.3       21 UNK         0.1400 
    116 CB        -0.8075  -19.0593  -57.5382 C.3       21 UNK        -0.1800 
    117 C         -0.9661  -20.4529  -55.4242 C.2       21 UNK         0.5000 
    118 O         -1.5291  -21.5424  -55.5605 O.2       21 UNK        -0.5000 
    119 N          0.1085  -20.2491  -54.6574 N.am      22 UNK        -0.5000 
    120 CA         0.7551  -21.2716  -53.8144 C.3       22 UNK         0.1400 
    121 C          2.1805  -21.6588  -54.3083 C.2       22 UNK         0.5000 
    122 N          2.6505  -21.1652  -55.4481 N.am      22 UNK        -0.7600 
    123 O          2.8715  -22.4380  -53.6579 O.2       22 UNK        -0.5000 
    124 C124        0.7636  -20.8465  -52.3217 C.3       23 UNK        -0.0398 
    125 S125       -0.9159  -20.7331  -51.6124 S.3       23 UNK        -0.2404 
    126 C126       -1.2682  -18.9495  -51.7252 C.3       23 UNK        -0.0205 
    127 H127        3.1429  -10.8040  -46.0938 H         1 UNK         0.0600 
    128 H128        2.7807  -11.9702  -44.8220 H         1 UNK         0.0600 
    129 H129        1.7271  -10.5732  -45.0665 H         1 UNK         0.0600 
    130 H130        2.6281  -11.5625  -48.0960 H         1 UNK         0.3000 
    131 H131        1.0384  -13.8526  -48.6063 H         1 UNK         0.0600 
    132 H132        2.0848  -11.7870  -50.6052 H         1 UNK         0.0800 
    133 H133        3.0852  -13.0206  -49.9091 H         1 UNK         0.0800 
    134 H134        3.1800  -15.3235  -50.3185 H         1 UNK         0.0800 
    135 H135        2.8434  -15.9565  -51.9067 H         1 UNK         0.0800 
    136 H136        0.6866  -17.1527  -52.3782 H         1 UNK         0.1150 
    137 H137       -1.3020  -18.8910  -49.0045 H         1 UNK         0.1150 
    138 H138        1.8005  -15.9990  -48.4058 H         1 UNK         0.1150 
    139 H139        0.1530  -16.5811  -46.5758 H         1 UNK         0.0800 
    140 H140       -0.9953  -17.8746  -46.8351 H         1 UNK         0.0800 
    141 H141       -0.4419  -18.7291  -44.5514 H         1 UNK         0.0800 
    142 H142        0.8885  -19.7885  -44.1955 H         1 UNK         0.0800 
    143 H143       -1.4038  -20.3006  -46.1470 H         1 UNK         0.0600 
    144 H144        1.1548  -21.5364  -46.2436 H         1 UNK         0.3000 
    145 H145        0.1407  -24.5369  -47.9103 H         1 UNK         0.0600 
    146 H146        1.5745  -22.0113  -48.9017 H         1 UNK         0.0600 
    147 H147        1.7258  -23.6268  -49.5959 H         1 UNK         0.0600 
    148 H148        0.1901  -22.7791  -49.6675 H         1 UNK         0.0600 
    149 H149        2.6902  -23.4196  -47.1711 H         1 UNK         0.3000 
    150 H150        2.8543  -24.8047  -43.9062 H         1 UNK         0.0600 
    151 H151        3.5096  -26.7246  -45.3700 H         1 UNK         0.0600 
    152 H152        4.9184  -25.8547  -44.7852 H         1 UNK         0.0600 
    153 H153        4.3661  -25.6259  -46.4450 H         1 UNK         0.0600 
    154 H154        4.8049  -23.4033  -45.3825 H         1 UNK         0.3000 
    155 H155        5.2950  -21.1863  -44.3772 H         1 UNK         0.0600 
    156 H156        4.9802  -21.4445  -46.8085 H         1 UNK         0.0600 
    157 H157        5.0468  -19.7314  -46.4401 H         1 UNK         0.0600 
    158 H158        3.4985  -20.5024  -46.7749 H         1 UNK         0.0600 
    159 H159        3.2383  -19.1322  -44.6727 H         1 UNK         0.3000 
    160 H160        2.0446  -18.7151  -42.0558 H         1 UNK         0.0600 
    161 H161        3.0261  -17.0202  -40.5031 H         1 UNK         0.0600 
    162 H162        4.6483  -17.5290  -40.9691 H         1 UNK         0.0600 
    163 H163        3.5776  -18.6441  -40.1295 H         1 UNK         0.0600 
    164 H164        1.9624  -16.9054  -43.2926 H         1 UNK         0.3000 
    165 H165        4.2599  -14.4764  -44.3138 H         1 UNK         0.0600 
    166 H166        2.6011  -16.1881  -46.2276 H         1 UNK         0.0600 
    167 H167        3.2138  -14.5680  -46.5486 H         1 UNK         0.0600 
    168 H168        4.3300  -15.9111  -46.3703 H         1 UNK         0.0600 
    169 H169        1.4201  -14.7169  -44.6426 H         1 UNK         0.3000 
    170 H170        0.4322  -14.1440  -41.3667 H         1 UNK         0.0600 
    171 H171        0.3989  -11.8621  -43.4068 H         1 UNK         0.0600 
    172 H172       -0.5834  -11.9906  -41.9506 H         1 UNK         0.0600 
    173 H173        1.1525  -11.7647  -41.8195 H         1 UNK         0.0600 
    174 H174       -1.1416  -13.7505  -43.6200 H         1 UNK         0.3000 
    175 H175       -1.7696  -16.7139  -44.9487 H         1 UNK         0.0600 
    176 H176       -3.2603  -16.3493  -42.3019 H         1 UNK         0.0600 
    177 H177       -3.8656  -17.2195  -43.7120 H         1 UNK         0.0600 
    178 H178       -2.4627  -17.8206  -42.8465 H         1 UNK         0.0600 
    179 H179       -3.4413  -14.5035  -43.9383 H         1 UNK         0.3000 
    180 H180       -4.2470  -13.2524  -46.5129 H         1 UNK         0.0600 
    181 H181       -2.7392  -11.9727  -44.1543 H         1 UNK         0.0600 
    182 H182       -4.3232  -12.7483  -44.0798 H         1 UNK         0.0600 
    183 H183       -4.1258  -11.2513  -44.9615 H         1 UNK         0.0600 
    184 H184       -1.5117  -12.3409  -46.8702 H         1 UNK         0.3000 
    185 H185       -2.3382  -10.5662  -49.7139 H         1 UNK         0.0600 
    186 H186       -1.2042   -8.5029  -48.9098 H         1 UNK         0.0600 
    187 H187       -2.8438   -8.5800  -48.2870 H         1 UNK         0.0600 
    188 H188       -1.4909   -8.9727  -47.2332 H         1 UNK         0.0600 
    189 H189        0.0760  -10.6227  -48.1375 H         1 UNK         0.3000 
    190 H190        0.3769  -22.3784  -43.8699 H         1 UNK         0.3000 
    191 H191       -1.5553  -22.5145  -41.7977 H         1 UNK         0.0600 
    192 H192        0.5667  -24.5540  -42.6586 H         1 UNK         0.0600 
    193 H193        0.8253  -23.2074  -41.5516 H         1 UNK         0.0600 
    194 H194       -0.2514  -24.5221  -41.1015 H         1 UNK         0.0600 
    195 H195       -1.4142  -24.1373  -44.9073 H         1 UNK         0.3000 
    196 H196       -3.6358  -25.9854  -44.3108 H         1 UNK         0.0600 
    197 H197       -1.6649  -26.7641  -45.6489 H         1 UNK         0.0600 
    198 H198       -2.0195  -25.5518  -46.8756 H         1 UNK         0.0600 
    199 H199       -3.1593  -26.8544  -46.5653 H         1 UNK         0.0600 
    200 H200       -3.9707  -22.9978  -44.2571 H         1 UNK         0.3000 
    201 H201       -5.4627  -21.4420  -44.7282 H         1 UNK         0.0600 
    202 H202       -7.7627  -22.1036  -45.3434 H         1 UNK         0.0600 
    203 H203       -7.1191  -23.2243  -44.1545 H         1 UNK         0.0600 
    204 H204       -7.2162  -23.6948  -45.8506 H         1 UNK         0.0600 
    205 H205       -3.4282  -21.4853  -46.4178 H         1 UNK         0.3000 
    206 H206       -2.5719  -20.7307  -48.3281 H         1 UNK         0.0600 
    207 H207       -5.3546  -19.5978  -48.9419 H         1 UNK         0.0600 
    208 H208       -3.8584  -19.1461  -49.7384 H         1 UNK         0.0600 
    209 H209       -4.0836  -18.7764  -48.0372 H         1 UNK         0.0600 
    210 H210       -2.8973  -23.2622  -48.2854 H         1 UNK         0.3000 
    211 H211       -3.1441  -25.2256  -49.2962 H         1 UNK         0.0600 
    212 H212       -1.4906  -24.2319  -50.8437 H         1 UNK         0.0600 
    213 H213       -2.5528  -25.3197  -51.7221 H         1 UNK         0.0600 
    214 H214       -2.7743  -23.5794  -51.8536 H         1 UNK         0.0600 
    215 H215       -5.4646  -24.4894  -48.3948 H         1 UNK         0.3000 
    216 H216       -7.6616  -24.5941  -48.4111 H         1 UNK         0.0600 
    217 H217       -8.7748  -26.3628  -49.7277 H         1 UNK         0.0600 
    218 H218       -7.3789  -26.5129  -50.7853 H         1 UNK         0.0600 
    219 H219       -7.2539  -26.9609  -49.0846 H         1 UNK         0.0600 
    220 H220       -6.9023  -22.3024  -49.3131 H         1 UNK         0.3000 
    221 H221       -7.3439  -20.4427  -50.3903 H         1 UNK         0.0600 
    222 H222      -10.0854  -21.6957  -50.9448 H         1 UNK         0.0600 
    223 H223       -9.6136  -20.8680  -49.4611 H         1 UNK         0.0600 
    224 H224       -9.7051  -19.9788  -50.9726 H         1 UNK         0.0600 
    225 H225       -5.6697  -21.7674  -51.8721 H         1 UNK         0.3000 
    226 H226       -6.5022  -22.1794  -54.6287 H         1 UNK         0.0600 
    227 H227       -4.6038  -23.4353  -53.5809 H         1 UNK         0.0600 
    228 H228       -4.0650  -22.5274  -54.9814 H         1 UNK         0.0600 
    229 H229       -3.7163  -21.9255  -53.3656 H         1 UNK         0.0600 
    230 H230       -5.7620  -20.9369  -56.4366 H         1 UNK         0.3000 
    231 H231       -5.9148  -18.0767  -56.1457 H         1 UNK         0.0600 
    232 H232       -5.6052  -18.1154  -58.6215 H         1 UNK         0.0600 
    233 H233       -6.8280  -19.2724  -58.1216 H         1 UNK         0.0600 
    234 H234       -5.2129  -19.8294  -58.5627 H         1 UNK         0.0600 
    235 H235       -3.2460  -20.3657  -56.2553 H         1 UNK         0.3000 
    236 H236       -1.3302  -18.3399  -55.5632 H         1 UNK         0.0600 
    237 H237       -1.1802  -18.1824  -58.0677 H         1 UNK         0.0600 
    238 H238        0.2684  -18.9302  -57.4163 H         1 UNK         0.0600 
    239 H239       -0.9652  -19.9284  -58.1782 H         1 UNK         0.0600 
    240 H240        0.5264  -19.3307  -54.6262 H         1 UNK         0.3000 
    241 H241        0.1890  -22.2028  -53.8758 H         1 UNK         0.0600 
    242 H242        3.5720  -21.4309  -55.7591 H         1 UNK         0.3800 
    243 H243        2.0889  -20.5524  -56.0165 H         1 UNK         0.3800 
    244 H244        1.3045  -21.5777  -51.7192 H         1 UNK         0.0800 
    245 H245        1.2948  -19.9034  -52.1914 H         1 UNK         0.0800 
    246 H246       -2.3160  -18.7839  -51.4748 H         1 UNK         0.0800 
    247 H247       -1.1544  -18.6201  -52.7580 H         1 UNK         0.0800 
@<TRIPOS>BOND
     1    1    2 1    
     2    1  127 1    
     3    1  128 1    
     4    1  129 1    
     5    2    3 2    
     6    2    4 am   BACKBONE|DICT|INTERRES
     7    4    5 1    
     8    4  130 1    
     9    5    6 1    
    10    5   65 1    
    11    5  131 1    
    12    6    7 1    
    13    6  132 1    
    14    6  133 1    
    15    7    8 1    
    16    8    9 1    
    17    8  134 1    
    18    8  135 1    
    19    9   10 ar   
    20    9   14 ar   
    21   10   11 ar   
    22   10  136 1    
    23   11   12 ar   
    24   11  126 1    
    25   12   13 ar   
    26   12  137 1    
    27   13   14 ar   
    28   13   15 1    
    29   14  138 1    
    30   15   16 1    
    31   15  139 1    
    32   15  140 1    
    33   16   17 1    
    34   17   18 1    
    35   17  141 1    
    36   17  142 1    
    37   18   19 1    
    38   18   67 1    
    39   18  143 1    
    40   19   20 am   BACKBONE|DICT|INTERRES
    41   19  144 1    
    42   20   21 2    
    43   20   22 1    
    44   22   23 1    
    45   22   24 1    
    46   22  145 1    
    47   23  146 1    
    48   23  147 1    
    49   23  148 1    
    50   24   25 am   BACKBONE|DICT|INTERRES
    51   24  149 1    
    52   25   26 2    
    53   25   27 1    
    54   27   28 1    
    55   27   29 1    
    56   27  150 1    
    57   28  151 1    
    58   28  152 1    
    59   28  153 1    
    60   29   30 am   BACKBONE|DICT|INTERRES
    61   29  154 1    
    62   30   31 2    
    63   30   32 1    
    64   32   33 1    
    65   32   34 1    
    66   32  155 1    
    67   33  156 1    
    68   33  157 1    
    69   33  158 1    
    70   34   35 am   BACKBONE|DICT|INTERRES
    71   34  159 1    
    72   35   36 2    
    73   35   37 1    
    74   37   38 1    
    75   37   39 1    
    76   37  160 1    
    77   38  161 1    
    78   38  162 1    
    79   38  163 1    
    80   39   40 am   BACKBONE|DICT|INTERRES
    81   39  164 1    
    82   40   41 2    
    83   40   42 1    
    84   42   43 1    
    85   42   44 1    
    86   42  165 1    
    87   43  166 1    
    88   43  167 1    
    89   43  168 1    
    90   44   45 am   BACKBONE|DICT|INTERRES
    91   44  169 1    
    92   45   46 2    
    93   45   47 1    
    94   47   48 1    
    95   47   49 1    
    96   47  170 1    
    97   48  171 1    
    98   48  172 1    
    99   48  173 1    
   100   49   50 am   BACKBONE|DICT|INTERRES
   101   49  174 1    
   102   50   51 2    
   103   50   52 1    
   104   52   53 1    
   105   52   54 1    
   106   52  175 1    
   107   53  176 1    
   108   53  177 1    
   109   53  178 1    
   110   54   55 am   BACKBONE|DICT|INTERRES
   111   54  179 1    
   112   55   56 2    
   113   55   57 1    
   114   57   58 1    
   115   57   59 1    
   116   57  180 1    
   117   58  181 1    
   118   58  182 1    
   119   58  183 1    
   120   59   60 am   BACKBONE|DICT|INTERRES
   121   59  184 1    
   122   60   61 2    
   123   60   62 1    
   124   62   63 1    
   125   62   64 1    
   126   62  185 1    
   127   63  186 1    
   128   63  187 1    
   129   63  188 1    
   130   64   65 am   BACKBONE|DICT|INTERRES
   131   64  189 1    
   132   65   66 2    
   133   67   68 2    
   134   67   69 am   BACKBONE|DICT|INTERRES
   135   69   70 1    
   136   69  190 1    
   137   70   71 1    
   138   70   72 1    
   139   70  191 1    
   140   71  192 1    
   141   71  193 1    
   142   71  194 1    
   143   72   73 2    
   144   72   74 am   BACKBONE|DICT|INTERRES
   145   74   75 1    
   146   74  195 1    
   147   75   76 1    
   148   75   77 1    
   149   75  196 1    
   150   76  197 1    
   151   76  198 1    
   152   76  199 1    
   153   77   78 2    
   154   77   79 am   BACKBONE|DICT|INTERRES
   155   79   80 1    
   156   79  200 1    
   157   80   81 1    
   158   80   82 1    
   159   80  201 1    
   160   81  202 1    
   161   81  203 1    
   162   81  204 1    
   163   82   83 2    
   164   82   84 am   BACKBONE|DICT|INTERRES
   165   84   85 1    
   166   84  205 1    
   167   85   86 1    
   168   85   87 1    
   169   85  206 1    
   170   86  207 1    
   171   86  208 1    
   172   86  209 1    
   173   87   88 2    
   174   87   89 am   BACKBONE|DICT|INTERRES
   175   89   90 1    
   176   89  210 1    
   177   90   91 1    
   178   90   92 1    
   179   90  211 1    
   180   91  212 1    
   181   91  213 1    
   182   91  214 1    
   183   92   93 2    
   184   92   94 am   BACKBONE|DICT|INTERRES
   185   94   95 1    
   186   94  215 1    
   187   95   96 1    
   188   95   97 1    
   189   95  216 1    
   190   96  217 1    
   191   96  218 1    
   192   96  219 1    
   193   97   98 2    
   194   97   99 am   BACKBONE|DICT|INTERRES
   195   99  100 1    
   196   99  220 1    
   197  100  101 1    
   198  100  102 1    
   199  100  221 1    
   200  101  222 1    
   201  101  223 1    
   202  101  224 1    
   203  102  103 2    
   204  102  104 am   BACKBONE|DICT|INTERRES
   205  104  105 1    
   206  104  225 1    
   207  105  106 1    
   208  105  107 1    
   209  105  226 1    
   210  106  227 1    
   211  106  228 1    
   212  106  229 1    
   213  107  108 2    
   214  107  109 am   BACKBONE|DICT|INTERRES
   215  109  110 1    
   216  109  230 1    
   217  110  111 1    
   218  110  112 1    
   219  110  231 1    
   220  111  232 1    
   221  111  233 1    
   222  111  234 1    
   223  112  113 2    
   224  112  114 am   BACKBONE|DICT|INTERRES
   225  114  115 1    
   226  114  235 1    
   227  115  116 1    
   228  115  117 1    
   229  115  236 1    
   230  116  237 1    
   231  116  238 1    
   232  116  239 1    
   233  117  118 2    
   234  117  119 am   BACKBONE|DICT|INTERRES
   235  119  120 1    
   236  119  240 1    
   237  120  121 1    
   238  120  124 1    
   239  120  241 1    
   240  121  122 am   BACKBONE|DICT|INTERRES
   241  121  123 2    
   242  122  242 1    
   243  122  243 1    
   244  124  125 1    
   245  124  244 1    
   246  124  245 1    
   247  125  126 1    
   248  126  246 1    
   249  126  247 1    
@<TRIPOS>SUBSTRUCTURE
     1 UNK         1 GROUP             0       ****    0 ROOT    
