@<TRIPOS>MOLECULE
3R540
247   249    1
SMALL
USER_CHARGES


@<TRIPOS>ATOM
      1 CA         -5.4880  -11.4199  -45.3402 C.3       0 UNK        -0.1800 
      2 C          -4.0784  -11.8010  -45.7661 C.2       0 UNK         0.5000 
      3 O          -3.1354  -11.0550  -45.5042 O.2       0 UNK        -0.5000 
      4 N          -3.9201  -12.9680  -46.4033 N.am      1 UNK        -0.5000 
      5 CA         -2.6380  -13.4929  -46.8910 C.3       1 UNK         0.1400 
      6 C6         -2.8144  -14.7115  -47.8278 C.3       23 UNK        -0.0398 
      7 S7         -3.8224  -16.0684  -47.1306 S.3       23 UNK        -0.2404 
      8 C8         -4.0704  -17.1145  -48.6011 C.3       23 UNK        -0.0205 
      9 C9         -2.7807  -17.7779  -49.0651 C.ar      23 UNK        -0.0193 
     10 C10        -1.9633  -17.1422  -50.0035 C.ar      23 UNK        -0.1150 
     11 C11        -0.7904  -17.7519  -50.4680 C.ar      23 UNK        -0.0193 
     12 C12        -0.4348  -19.0023  -49.9551 C.ar      23 UNK        -0.1150 
     13 C13        -1.2510  -19.6604  -49.0305 C.ar      23 UNK        -0.0193 
     14 C14        -2.4231  -19.0411  -48.5868 C.ar      23 UNK        -0.1150 
     15 C15        -0.8874  -21.0632  -48.5698 C.3       23 UNK        -0.0205 
     16 S16        -0.0328  -21.0576  -46.9670 S.3       23 UNK        -0.2404 
     17 C17        -1.4263  -21.2828  -45.8082 C.3       23 UNK        -0.0398 
     18 CA         -1.5230  -22.7432  -45.3116 C.3       11 UNK         0.1400 
     19 N          -0.3066  -23.1795  -44.6115 N.am      11 UNK        -0.5000 
     20 C          -0.0072  -24.4520  -44.3111 C.2       10 UNK         0.5000 
     21 O          -0.7671  -25.3918  -44.5453 O.2       10 UNK        -0.5000 
     22 CA          1.3355  -24.7328  -43.6083 C.3       10 UNK         0.1400 
     23 CB          2.3696  -25.2332  -44.6273 C.3       10 UNK        -0.1800 
     24 N           1.8878  -23.5765  -42.9018 N.am      10 UNK        -0.5000 
     25 C           1.3438  -22.9920  -41.8247 C.2       9 UNK         0.5000 
     26 O           0.3224  -23.3992  -41.2703 O.2       9 UNK        -0.5000 
     27 CA          2.0337  -21.7083  -41.3141 C.3       9 UNK         0.1400 
     28 CB          3.0272  -22.0430  -40.1914 C.3       9 UNK        -0.1800 
     29 N           2.7291  -20.9478  -42.3626 N.am      9 UNK        -0.5000 
     30 C           2.1329  -20.4306  -43.4453 C.2       8 UNK         0.5000 
     31 O           0.9257  -20.5484  -43.6667 O.2       8 UNK        -0.5000 
     32 CA          3.0381  -19.7207  -44.4671 C.3       8 UNK         0.1400 
     33 CB          3.9433  -20.7399  -45.1794 C.3       8 UNK        -0.1800 
     34 N           2.2036  -19.0716  -45.4740 N.am      8 UNK        -0.5000 
     35 C           2.0334  -17.7568  -45.6246 C.2       7 UNK         0.5000 
     36 O           2.6598  -16.8983  -44.9973 O.2       7 UNK        -0.5000 
     37 CA          0.9276  -17.3478  -46.6124 C.3       7 UNK         0.1400 
     38 CB         -0.4403  -17.3861  -45.9190 C.3       7 UNK        -0.1800 
     39 N           1.1492  -16.0049  -47.1366 N.am      7 UNK        -0.5000 
     40 C           1.9863  -15.7075  -48.1386 C.2       6 UNK         0.5000 
     41 O           2.6054  -16.5469  -48.7929 O.2       6 UNK        -0.5000 
     42 CA          2.1772  -14.2118  -48.4433 C.3       6 UNK         0.1400 
     43 CB          1.0726  -13.7000  -49.3817 C.3       6 UNK        -0.1800 
     44 N           2.1612  -13.4267  -47.2117 N.am      6 UNK        -0.5000 
     45 C           3.2070  -13.2661  -46.3911 C.2       5 UNK         0.5000 
     46 O           4.3450  -13.6598  -46.6531 O.2       5 UNK        -0.5000 
     47 CA          2.9175  -12.5606  -45.0483 C.3       5 UNK         0.1400 
     48 CB          4.1671  -11.9075  -44.4219 C.3       5 UNK        -0.1800 
     49 N           1.8041  -11.6085  -45.1263 N.am      5 UNK        -0.5000 
     50 C           1.7351  -10.4771  -45.8453 C.2       4 UNK         0.5000 
     51 O           2.6590  -10.0397  -46.5318 O.2       4 UNK        -0.5000 
     52 CA          0.3954   -9.7111  -45.8155 C.3       4 UNK         0.1400 
     53 CB         -0.3445   -9.8910  -47.1503 C.3       4 UNK        -0.1800 
     54 N          -0.4931  -10.1315  -44.7299 N.am      4 UNK        -0.5000 
     55 C          -0.3090   -9.8582  -43.4309 C.2       3 UNK         0.5000 
     56 O           0.5986   -9.1458  -43.0012 O.2       3 UNK        -0.5000 
     57 CA         -1.2776  -10.5385  -42.4471 C.3       3 UNK         0.1400 
     58 CB         -2.5637   -9.7143  -42.2814 C.3       3 UNK        -0.1800 
     59 N          -1.6175  -11.9004  -42.8677 N.am      3 UNK        -0.5000 
     60 C          -0.7825  -12.9474  -42.7958 C.2       2 UNK         0.5000 
     61 O           0.3582  -12.8803  -42.3390 O.2       2 UNK        -0.5000 
     62 CA         -1.2910  -14.2852  -43.3622 C.3       2 UNK         0.1400 
     63 CB         -2.1015  -15.0533  -42.3084 C.3       2 UNK        -0.1800 
     64 N          -2.1065  -14.1059  -44.5633 N.am      2 UNK        -0.5000 
     65 C          -1.6180  -13.7775  -45.7669 C.2       1 UNK         0.5000 
     66 O          -0.4143  -13.6673  -46.0048 O.2       1 UNK        -0.5000 
     67 C          -2.8148  -22.9672  -44.4955 C.2       11 UNK         0.5000 
     68 O          -3.9008  -22.9502  -45.0743 O.2       11 UNK        -0.5000 
     69 N          -2.6837  -23.2074  -43.1831 N.am      12 UNK        -0.5000 
     70 CA         -3.7730  -23.6397  -42.3089 C.3       12 UNK         0.1400 
     71 CB         -3.3337  -23.4615  -40.8476 C.3       12 UNK        -0.1800 
     72 C          -4.2098  -25.0981  -42.5661 C.2       12 UNK         0.5000 
     73 O          -5.3531  -25.4404  -42.2614 O.2       12 UNK        -0.5000 
     74 N          -3.3029  -25.9268  -43.1038 N.am      13 UNK        -0.5000 
     75 CA         -3.5292  -27.3430  -43.3941 C.3       13 UNK         0.1400 
     76 CB         -2.3622  -28.1585  -42.8143 C.3       13 UNK        -0.1800 
     77 C          -3.6673  -27.6124  -44.9028 C.2       13 UNK         0.5000 
     78 O          -4.4289  -28.5024  -45.2848 O.2       13 UNK        -0.5000 
     79 N          -2.9208  -26.8677  -45.7306 N.am      14 UNK        -0.5000 
     80 CA         -2.8862  -27.0089  -47.1873 C.3       14 UNK         0.1400 
     81 CB         -1.7370  -26.1553  -47.7462 C.3       14 UNK        -0.1800 
     82 C          -4.2148  -26.6334  -47.8739 C.2       14 UNK         0.5000 
     83 O          -4.9926  -25.8352  -47.3450 O.2       14 UNK        -0.5000 
     84 N          -4.4286  -27.2102  -49.0620 N.am      15 UNK        -0.5000 
     85 CA         -5.5705  -26.9453  -49.9364 C.3       15 UNK         0.1400 
     86 CB         -5.6622  -28.0859  -50.9645 C.3       15 UNK        -0.1800 
     87 C          -5.4566  -25.5858  -50.6537 C.2       15 UNK         0.5000 
     88 O          -4.3830  -24.9783  -50.6786 O.2       15 UNK        -0.5000 
     89 N          -6.5582  -25.1651  -51.2921 N.am      16 UNK        -0.5000 
     90 CA         -6.6830  -23.9231  -52.0674 C.3       16 UNK         0.1400 
     91 CB         -8.1284  -23.7889  -52.5685 C.3       16 UNK        -0.1800 
     92 C          -5.6932  -23.7904  -53.2442 C.2       16 UNK         0.5000 
     93 O          -5.4111  -22.6719  -53.6724 O.2       16 UNK        -0.5000 
     94 N          -5.1373  -24.9167  -53.7112 N.am      17 UNK        -0.5000 
     95 CA         -4.0445  -24.9748  -54.6835 C.3       17 UNK         0.1400 
     96 CB         -3.7709  -26.4436  -55.0395 C.3       17 UNK        -0.1800 
     97 C          -2.7508  -24.2875  -54.1967 C.2       17 UNK         0.5000 
     98 O          -1.9977  -23.7746  -55.0243 O.2       17 UNK        -0.5000 
     99 N          -2.5255  -24.2592  -52.8736 N.am      18 UNK        -0.5000 
    100 CA        -1.4162  -23.5358  -52.2525 C.3       18 UNK         0.1400 
    101 CB        -1.1576  -24.0945  -50.8456 C.3       18 UNK        -0.1800 
    102 C         -1.6791  -22.0204  -52.2039 C.2       18 UNK         0.5000 
    103 O         -0.7454  -21.2426  -52.3871 O.2       18 UNK        -0.5000 
    104 N         -2.9438  -21.6234  -51.9975 N.am      19 UNK        -0.5000 
    105 CA        -3.3811  -20.2242  -52.0208 C.3       19 UNK         0.1400 
    106 CB        -4.7761  -20.1019  -51.3900 C.3       19 UNK        -0.1800 
    107 C         -3.3461  -19.6164  -53.4343 C.2       19 UNK         0.5000 
    108 O         -3.0567  -18.4308  -53.5857 O.2       19 UNK        -0.5000 
    109 N         -3.5896  -20.4545  -54.4498 N.am      20 UNK        -0.5000 
    110 CA        -3.5056  -20.1164  -55.8712 C.3       20 UNK         0.1400 
    111 CB        -4.1680  -21.2432  -56.6802 C.3       20 UNK        -0.1800 
    112 C         -2.0707  -19.8482  -56.3796 C.2       20 UNK         0.5000 
    113 O         -1.9163  -19.4018  -57.5172 O.2       20 UNK        -0.5000 
    114 N         -1.0468  -20.1218  -55.5561 N.am      21 UNK        -0.5000 
    115 CA         0.3649  -19.8940  -55.8744 C.3       21 UNK         0.1400 
    116 CB         1.2383  -20.6904  -54.8934 C.3       21 UNK        -0.1800 
    117 C          0.7758  -18.4065  -55.8715 C.2       21 UNK         0.5000 
    118 O          1.8381  -18.0854  -56.4068 O.2       21 UNK        -0.5000 
    119 N         -0.0483  -17.5321  -55.2820 N.am      22 UNK        -0.5000 
    120 CA         0.1318  -16.0738  -55.2615 C.3       22 UNK         0.1400 
    121 C         -1.1073  -15.3298  -55.8373 C.2       22 UNK         0.5000 
    122 N         -1.0040  -14.0266  -56.0643 N.am      22 UNK        -0.7600 
    123 O         -2.1597  -15.9122  -56.0923 O.2       22 UNK        -0.5000 
    124 C124        0.5578  -15.5643  -53.8565 C.3       23 UNK        -0.0398 
    125 S125       -0.6891  -15.8284  -52.5475 S.3       23 UNK        -0.2404 
    126 C126        0.1083  -17.1192  -51.5321 C.3       23 UNK        -0.0205 
    127 H127       -5.5285  -11.2836  -44.2595 H         1 UNK         0.0600 
    128 H128       -6.2152  -12.1839  -45.6158 H         1 UNK         0.0600 
    129 H129       -5.7807  -10.4830  -45.8140 H         1 UNK         0.0600 
    130 H130       -4.7236  -13.5551  -46.5795 H         1 UNK         0.3000 
    131 H131       -2.1931  -12.7003  -47.4956 H         1 UNK         0.0600 
    132 H132       -3.2883  -14.3806  -48.7529 H         1 UNK         0.0800 
    133 H133       -1.8408  -15.1085  -48.1192 H         1 UNK         0.0800 
    134 H134       -4.8120  -17.8791  -48.3652 H         1 UNK         0.0800 
    135 H135       -4.5004  -16.5181  -49.4072 H         1 UNK         0.0800 
    136 H136       -2.2600  -16.1741  -50.3776 H         1 UNK         0.1150 
    137 H137        0.4635  -19.4871  -50.3114 H         1 UNK         0.1150 
    138 H138       -3.0689  -19.5444  -47.8830 H         1 UNK         0.1150 
    139 H139       -1.7774  -21.6931  -48.5305 H         1 UNK         0.0800 
    140 H140       -0.2267  -21.5271  -49.3027 H         1 UNK         0.0800 
    141 H141       -2.3529  -20.9820  -46.2968 H         1 UNK         0.0800 
    142 H142       -1.3017  -20.6017  -44.9663 H         1 UNK         0.0800 
    143 H143       -1.6203  -23.3742  -46.1955 H         1 UNK         0.0600 
    144 H144        0.3369  -22.4407  -44.3512 H         1 UNK         0.3000 
    145 H145        1.1611  -25.5247  -42.8770 H         1 UNK         0.0600 
    146 H146        3.3019  -25.5158  -44.1381 H         1 UNK         0.0600 
    147 H147        2.0025  -26.1135  -45.1570 H         1 UNK         0.0600 
    148 H148        2.5983  -24.4722  -45.3748 H         1 UNK         0.0600 
    149 H149        2.7269  -23.1704  -43.2879 H         1 UNK         0.3000 
    150 H150        1.2544  -21.0650  -40.9004 H         1 UNK         0.0600 
    151 H151        3.8492  -22.6623  -40.5526 H         1 UNK         0.0600 
    152 H152        2.5356  -22.5879  -39.3842 H         1 UNK         0.0600 
    153 H153        3.4528  -21.1379  -39.7577 H         1 UNK         0.0600 
    154 H154        3.7241  -20.8228  -42.2419 H         1 UNK         0.3000 
    155 H155        3.6558  -18.9916  -43.9391 H         1 UNK         0.0600 
    156 H156        3.3617  -21.5178  -45.6767 H         1 UNK         0.0600 
    157 H157        4.6197  -21.2303  -44.4786 H         1 UNK         0.0600 
    158 H158        4.5611  -20.2534  -45.9346 H         1 UNK         0.0600 
    159 H159        1.5720  -19.6940  -45.9633 H         1 UNK         0.3000 
    160 H160        0.9158  -18.0568  -47.4430 H         1 UNK         0.0600 
    161 H161       -0.5004  -16.6725  -45.0991 H         1 UNK         0.0600 
    162 H162       -0.6480  -18.3728  -45.5070 H         1 UNK         0.0600 
    163 H163       -1.2347  -17.1593  -46.6253 H         1 UNK         0.0600 
    164 H164        0.7162  -15.2436  -46.6277 H         1 UNK         0.3000 
    165 H165        3.1394  -14.0833  -48.9435 H         1 UNK         0.0600 
    166 H166        1.0691  -14.2556  -50.3200 H         1 UNK         0.0600 
    167 H167        0.0830  -13.8014  -48.9361 H         1 UNK         0.0600 
    168 H168        1.2218  -12.6485  -49.6272 H         1 UNK         0.0600 
    169 H169        1.2497  -13.1361  -46.8733 H         1 UNK         0.3000 
    170 H170        2.5863  -13.3470  -44.3683 H         1 UNK         0.0600 
    171 H171        4.9344  -12.6539  -44.2137 H         1 UNK         0.0600 
    172 H172        4.6100  -11.1608  -45.0813 H         1 UNK         0.0600 
    173 H173        3.9248  -11.4210  -43.4770 H         1 UNK         0.0600 
    174 H174        0.9758  -11.8763  -44.6137 H         1 UNK         0.3000 
    175 H175        0.6218   -8.6510  -45.6856 H         1 UNK         0.0600 
    176 H176       -1.2859   -9.3412  -47.1589 H         1 UNK         0.0600 
    177 H177        0.2552   -9.5228  -47.9836 H         1 UNK         0.0600 
    178 H178       -0.5665  -10.9402  -47.3456 H         1 UNK         0.0600 
    179 H179       -1.3222  -10.6551  -44.9983 H         1 UNK         0.3000 
    180 H180       -0.7832  -10.5917  -41.4747 H         1 UNK         0.0600 
    181 H181       -3.1102   -9.6197  -43.2201 H         1 UNK         0.0600 
    182 H182       -2.3366   -8.7061  -41.9327 H         1 UNK         0.0600 
    183 H183       -3.2312  -10.1683  -41.5490 H         1 UNK         0.0600 
    184 H184       -2.5176  -12.0251  -43.3071 H         1 UNK         0.3000 
    185 H185       -0.4149  -14.8839  -43.6189 H         1 UNK         0.0600 
    186 H186       -1.5116  -15.2168  -41.4055 H         1 UNK         0.0600 
    187 H187       -3.0034  -14.5129  -42.0187 H         1 UNK         0.0600 
    188 H188       -2.4015  -16.0329  -42.6814 H         1 UNK         0.0600 
    189 H189       -3.1067  -14.1954  -44.4597 H         1 UNK         0.3000 
    190 H190       -1.7571  -23.1900  -42.7783 H         1 UNK         0.3000 
    191 H191       -4.6376  -22.9969  -42.4874 H         1 UNK         0.0600 
    192 H192       -3.0789  -22.4229  -40.6358 H         1 UNK         0.0600 
    193 H193       -4.1321  -23.7467  -40.1614 H         1 UNK         0.0600 
    194 H194       -2.4627  -24.0747  -40.6122 H         1 UNK         0.0600 
    195 H195       -2.3955  -25.5590  -43.3645 H         1 UNK         0.3000 
    196 H196       -4.4473  -27.6885  -42.9144 H         1 UNK         0.0600 
    197 H197       -2.4980  -29.2242  -43.0030 H         1 UNK         0.0600 
    198 H198       -2.2888  -28.0265  -41.7347 H         1 UNK         0.0600 
    199 H199       -1.4073  -27.8657  -43.2529 H         1 UNK         0.0600 
    200 H200       -2.2737  -26.1961  -45.3301 H         1 UNK         0.3000 
    201 H201       -2.6713  -28.0572  -47.4052 H         1 UNK         0.0600 
    202 H202       -1.5868  -26.3568  -48.8069 H         1 UNK         0.0600 
    203 H203       -1.9430  -25.0905  -47.6453 H         1 UNK         0.0600 
    204 H204       -0.7952  -26.3688  -47.2401 H         1 UNK         0.0600 
    205 H205       -3.7176  -27.8192  -49.4389 H         1 UNK         0.3000 
    206 H206       -6.4800  -26.9395  -49.3320 H         1 UNK         0.0600 
    207 H207       -5.7506  -29.0542  -50.4711 H         1 UNK         0.0600 
    208 H208       -6.5366  -27.9747  -51.6068 H         1 UNK         0.0600 
    209 H209       -4.7831  -28.1186  -51.6098 H         1 UNK         0.0600 
    210 H210       -7.3915  -25.7333  -51.2378 H         1 UNK         0.3000 
    211 H211       -6.4798  -23.0937  -51.3871 H         1 UNK         0.0600 
    212 H212       -8.4022  -24.6114  -53.2305 H         1 UNK         0.0600 
    213 H213       -8.2654  -22.8603  -53.1247 H         1 UNK         0.0600 
    214 H214       -8.8351  -23.7745  -51.7385 H         1 UNK         0.0600 
    215 H215       -5.4299  -25.7930  -53.3062 H         1 UNK         0.3000 
    216 H216       -4.3735  -24.4567  -55.5865 H         1 UNK         0.0600 
    217 H217       -2.9758  -26.5239  -55.7820 H         1 UNK         0.0600 
    218 H218       -4.6565  -26.9194  -55.4612 H         1 UNK         0.0600 
    219 H219       -3.4635  -27.0189  -54.1652 H         1 UNK         0.0600 
    220 H220       -3.2001  -24.6787  -52.2408 H         1 UNK         0.3000 
    221 H221       -0.5157  -23.7010  -52.8482 H         1 UNK         0.0600 
    222 H222       -1.9873  -23.8922  -50.1675 H         1 UNK         0.0600 
    223 H223       -1.0024  -25.1728  -50.8752 H         1 UNK         0.0600 
    224 H224       -0.2613  -23.6520  -50.4106 H         1 UNK         0.0600 
    225 H225       -3.6608  -22.3248  -51.8871 H         1 UNK         0.3000 
    226 H226       -2.6899  -19.6451  -51.4135 H         1 UNK         0.0600 
    227 H227       -5.0845  -19.0571  -51.3376 H         1 UNK         0.0600 
    228 H228       -5.5318  -20.6379  -51.9637 H         1 UNK         0.0600 
    229 H229       -4.7831  -20.4922  -50.3721 H         1 UNK         0.0600 
    230 H230       -3.8955  -21.3949  -54.2254 H         1 UNK         0.3000 
    231 H231       -4.0781  -19.2005  -56.0310 H         1 UNK         0.0600 
    232 H232       -3.6239  -22.1822  -56.5783 H         1 UNK         0.0600 
    233 H233       -4.2005  -20.9970  -57.7422 H         1 UNK         0.0600 
    234 H234       -5.1948  -21.4133  -56.3554 H         1 UNK         0.0600 
    235 H235       -1.2475  -20.4865  -54.6346 H         1 UNK         0.3000 
    236 H236        0.5493  -20.2817  -56.8785 H         1 UNK         0.0600 
    237 H237        2.2865  -20.6598  -55.1931 H         1 UNK         0.0600 
    238 H238        1.1786  -20.2836  -53.8835 H         1 UNK         0.0600 
    239 H239        0.9411  -21.7388  -54.8544 H         1 UNK         0.0600 
    240 H240       -0.9282  -17.8590  -54.9031 H         1 UNK         0.3000 
    241 H241        0.9405  -15.8172  -55.9480 H         1 UNK         0.0600 
    242 H242       -0.1533  -13.5184  -55.8785 H         1 UNK         0.3800 
    243 H243       -1.7998  -13.5337  -56.4390 H         1 UNK         0.3800 
    244 H244        0.7815  -14.4974  -53.8937 H         1 UNK         0.0800 
    245 H245        1.4943  -16.0421  -53.5663 H         1 UNK         0.0800 
    246 H246        0.4625  -17.9041  -52.2029 H         1 UNK         0.0800 
    247 H247        0.9890  -16.6988  -51.0463 H         1 UNK         0.0800 
@<TRIPOS>BOND
     1    1    2 1    
     2    1  127 1    
     3    1  128 1    
     4    1  129 1    
     5    2    3 2    
     6    2    4 am   BACKBONE|DICT|INTERRES
     7    4    5 1    
     8    4  130 1    
     9    5    6 1    
    10    5   65 1    
    11    5  131 1    
    12    6    7 1    
    13    6  132 1    
    14    6  133 1    
    15    7    8 1    
    16    8    9 1    
    17    8  134 1    
    18    8  135 1    
    19    9   10 ar   
    20    9   14 ar   
    21   10   11 ar   
    22   10  136 1    
    23   11   12 ar   
    24   11  126 1    
    25   12   13 ar   
    26   12  137 1    
    27   13   14 ar   
    28   13   15 1    
    29   14  138 1    
    30   15   16 1    
    31   15  139 1    
    32   15  140 1    
    33   16   17 1    
    34   17   18 1    
    35   17  141 1    
    36   17  142 1    
    37   18   19 1    
    38   18   67 1    
    39   18  143 1    
    40   19   20 am   BACKBONE|DICT|INTERRES
    41   19  144 1    
    42   20   21 2    
    43   20   22 1    
    44   22   23 1    
    45   22   24 1    
    46   22  145 1    
    47   23  146 1    
    48   23  147 1    
    49   23  148 1    
    50   24   25 am   BACKBONE|DICT|INTERRES
    51   24  149 1    
    52   25   26 2    
    53   25   27 1    
    54   27   28 1    
    55   27   29 1    
    56   27  150 1    
    57   28  151 1    
    58   28  152 1    
    59   28  153 1    
    60   29   30 am   BACKBONE|DICT|INTERRES
    61   29  154 1    
    62   30   31 2    
    63   30   32 1    
    64   32   33 1    
    65   32   34 1    
    66   32  155 1    
    67   33  156 1    
    68   33  157 1    
    69   33  158 1    
    70   34   35 am   BACKBONE|DICT|INTERRES
    71   34  159 1    
    72   35   36 2    
    73   35   37 1    
    74   37   38 1    
    75   37   39 1    
    76   37  160 1    
    77   38  161 1    
    78   38  162 1    
    79   38  163 1    
    80   39   40 am   BACKBONE|DICT|INTERRES
    81   39  164 1    
    82   40   41 2    
    83   40   42 1    
    84   42   43 1    
    85   42   44 1    
    86   42  165 1    
    87   43  166 1    
    88   43  167 1    
    89   43  168 1    
    90   44   45 am   BACKBONE|DICT|INTERRES
    91   44  169 1    
    92   45   46 2    
    93   45   47 1    
    94   47   48 1    
    95   47   49 1    
    96   47  170 1    
    97   48  171 1    
    98   48  172 1    
    99   48  173 1    
   100   49   50 am   BACKBONE|DICT|INTERRES
   101   49  174 1    
   102   50   51 2    
   103   50   52 1    
   104   52   53 1    
   105   52   54 1    
   106   52  175 1    
   107   53  176 1    
   108   53  177 1    
   109   53  178 1    
   110   54   55 am   BACKBONE|DICT|INTERRES
   111   54  179 1    
   112   55   56 2    
   113   55   57 1    
   114   57   58 1    
   115   57   59 1    
   116   57  180 1    
   117   58  181 1    
   118   58  182 1    
   119   58  183 1    
   120   59   60 am   BACKBONE|DICT|INTERRES
   121   59  184 1    
   122   60   61 2    
   123   60   62 1    
   124   62   63 1    
   125   62   64 1    
   126   62  185 1    
   127   63  186 1    
   128   63  187 1    
   129   63  188 1    
   130   64   65 am   BACKBONE|DICT|INTERRES
   131   64  189 1    
   132   65   66 2    
   133   67   68 2    
   134   67   69 am   BACKBONE|DICT|INTERRES
   135   69   70 1    
   136   69  190 1    
   137   70   71 1    
   138   70   72 1    
   139   70  191 1    
   140   71  192 1    
   141   71  193 1    
   142   71  194 1    
   143   72   73 2    
   144   72   74 am   BACKBONE|DICT|INTERRES
   145   74   75 1    
   146   74  195 1    
   147   75   76 1    
   148   75   77 1    
   149   75  196 1    
   150   76  197 1    
   151   76  198 1    
   152   76  199 1    
   153   77   78 2    
   154   77   79 am   BACKBONE|DICT|INTERRES
   155   79   80 1    
   156   79  200 1    
   157   80   81 1    
   158   80   82 1    
   159   80  201 1    
   160   81  202 1    
   161   81  203 1    
   162   81  204 1    
   163   82   83 2    
   164   82   84 am   BACKBONE|DICT|INTERRES
   165   84   85 1    
   166   84  205 1    
   167   85   86 1    
   168   85   87 1    
   169   85  206 1    
   170   86  207 1    
   171   86  208 1    
   172   86  209 1    
   173   87   88 2    
   174   87   89 am   BACKBONE|DICT|INTERRES
   175   89   90 1    
   176   89  210 1    
   177   90   91 1    
   178   90   92 1    
   179   90  211 1    
   180   91  212 1    
   181   91  213 1    
   182   91  214 1    
   183   92   93 2    
   184   92   94 am   BACKBONE|DICT|INTERRES
   185   94   95 1    
   186   94  215 1    
   187   95   96 1    
   188   95   97 1    
   189   95  216 1    
   190   96  217 1    
   191   96  218 1    
   192   96  219 1    
   193   97   98 2    
   194   97   99 am   BACKBONE|DICT|INTERRES
   195   99  100 1    
   196   99  220 1    
   197  100  101 1    
   198  100  102 1    
   199  100  221 1    
   200  101  222 1    
   201  101  223 1    
   202  101  224 1    
   203  102  103 2    
   204  102  104 am   BACKBONE|DICT|INTERRES
   205  104  105 1    
   206  104  225 1    
   207  105  106 1    
   208  105  107 1    
   209  105  226 1    
   210  106  227 1    
   211  106  228 1    
   212  106  229 1    
   213  107  108 2    
   214  107  109 am   BACKBONE|DICT|INTERRES
   215  109  110 1    
   216  109  230 1    
   217  110  111 1    
   218  110  112 1    
   219  110  231 1    
   220  111  232 1    
   221  111  233 1    
   222  111  234 1    
   223  112  113 2    
   224  112  114 am   BACKBONE|DICT|INTERRES
   225  114  115 1    
   226  114  235 1    
   227  115  116 1    
   228  115  117 1    
   229  115  236 1    
   230  116  237 1    
   231  116  238 1    
   232  116  239 1    
   233  117  118 2    
   234  117  119 am   BACKBONE|DICT|INTERRES
   235  119  120 1    
   236  119  240 1    
   237  120  121 1    
   238  120  124 1    
   239  120  241 1    
   240  121  122 am   BACKBONE|DICT|INTERRES
   241  121  123 2    
   242  122  242 1    
   243  122  243 1    
   244  124  125 1    
   245  124  244 1    
   246  124  245 1    
   247  125  126 1    
   248  126  246 1    
   249  126  247 1    
@<TRIPOS>SUBSTRUCTURE
     1 UNK         1 GROUP             0       ****    0 ROOT    
