@<TRIPOS>MOLECULE
3R540
247   249    1
SMALL
USER_CHARGES


@<TRIPOS>ATOM
      1 CA         -0.3784  -19.4739  -49.6616 C.3       0 UNK        -0.1800 
      2 C           0.2414  -18.0983  -49.7829 C.2       0 UNK         0.5000 
      3 O          -0.1859  -17.3060  -50.6189 O.2       0 UNK        -0.5000 
      4 N           1.2430  -17.8049  -48.9477 N.am      1 UNK        -0.5000 
      5 CA          2.0015  -16.5480  -48.9749 C.3       1 UNK         0.1400 
      6 C6          3.4321  -16.7481  -48.3969 C.3       23 UNK        -0.0398 
      7 S7          4.7190  -16.2458  -49.5906 S.3       23 UNK        -0.2404 
      8 C8          5.2074  -17.8448  -50.3349 C.3       23 UNK        -0.0205 
      9 C9          4.0925  -18.5626  -51.0969 C.ar      23 UNK        -0.0193 
     10 C10         3.2355  -17.8673  -51.9579 C.ar      23 UNK        -0.1150 
     11 C11         2.2084  -18.5331  -52.6322 C.ar      23 UNK        -0.0193 
     12 C12         2.0709  -19.9143  -52.4819 C.ar      23 UNK        -0.1150 
     13 C13         2.9324  -20.6340  -51.6501 C.ar      23 UNK        -0.0193 
     14 C14         3.9403  -19.9473  -50.9594 C.ar      23 UNK        -0.1150 
     15 C15         2.7753  -22.1523  -51.5668 C.3       23 UNK        -0.0205 
     16 S16         3.2054  -22.8897  -49.9550 S.3       23 UNK        -0.2404 
     17 C17         1.8270  -22.3170  -48.9067 C.3       23 UNK        -0.0398 
     18 CA          1.8414  -23.0045  -47.5178 C.3       11 UNK         0.1400 
     19 N           3.0882  -22.7109  -46.7964 N.am      11 UNK        -0.5000 
     20 C           3.6583  -23.4783  -45.8603 C.2       10 UNK         0.5000 
     21 O           3.1792  -24.5488  -45.4868 O.2       10 UNK        -0.5000 
     22 CA          4.9274  -22.9415  -45.1676 C.3       10 UNK         0.1400 
     23 CB          6.1478  -23.7768  -45.5837 C.3       10 UNK        -0.1800 
     24 N           5.2240  -21.5265  -45.4269 N.am      10 UNK        -0.5000 
     25 C           4.6020  -20.4348  -44.9533 C.2       9 UNK         0.5000 
     26 O           5.0346  -19.3086  -45.1987 O.2       9 UNK        -0.5000 
     27 CA          3.3444  -20.5758  -44.0586 C.3       9 UNK         0.1400 
     28 CB          3.7346  -20.5351  -42.5734 C.3       9 UNK        -0.1800 
     29 N           2.3344  -19.5451  -44.2965 N.am      9 UNK        -0.5000 
     30 C           1.8282  -19.1553  -45.4757 C.2       8 UNK         0.5000 
     31 O           2.1404  -19.6325  -46.5687 O.2       8 UNK        -0.5000 
     32 CA          0.7671  -18.0443  -45.4390 C.3       8 UNK         0.1400 
     33 CB         -0.6162  -18.6295  -45.7528 C.3       8 UNK        -0.1800 
     34 N           0.6984  -17.3117  -44.1762 N.am      8 UNK        -0.5000 
     35 C           1.6080  -16.4329  -43.7335 C.2       7 UNK         0.5000 
     36 O           2.6396  -16.1532  -44.3434 O.2       7 UNK        -0.5000 
     37 CA          1.3176  -15.7561  -42.3805 C.3       7 UNK         0.1400 
     38 CB          0.6501  -14.3864  -42.5768 C.3       7 UNK        -0.1800 
     39 N           0.4600  -16.5786  -41.5273 N.am      7 UNK        -0.5000 
     40 C           0.9058  -17.5340  -40.7018 C.2       6 UNK         0.5000 
     41 O           2.0972  -17.7989  -40.5397 O.2       6 UNK        -0.5000 
     42 CA         -0.1629  -18.3399  -39.9387 C.3       6 UNK         0.1400 
     43 CB         -0.5306  -17.6372  -38.6231 C.3       6 UNK        -0.1800 
     44 N          -1.3815  -18.5682  -40.7188 N.am      6 UNK        -0.5000 
     45 C          -1.4417  -19.3366  -41.8146 C.2       5 UNK         0.5000 
     46 O          -0.4715  -19.9231  -42.2926 O.2       5 UNK        -0.5000 
     47 CA         -2.8094  -19.4403  -42.5146 C.3       5 UNK         0.1400 
     48 CB         -3.6602  -20.5438  -41.8694 C.3       5 UNK        -0.1800 
     49 N          -3.5864  -18.1947  -42.5532 N.am      5 UNK        -0.5000 
     50 C          -3.1676  -17.0252  -43.0552 C.2       4 UNK         0.5000 
     51 O          -2.0105  -16.8043  -43.4145 O.2       4 UNK        -0.5000 
     52 CA         -4.2028  -15.8975  -43.1495 C.3       4 UNK         0.1400 
     53 CB         -3.9006  -14.8126  -42.1041 C.3       4 UNK        -0.1800 
     54 N          -4.1429  -15.3032  -44.4839 N.am      4 UNK        -0.5000 
     55 C          -4.9870  -15.5747  -45.4891 C.2       3 UNK         0.5000 
     56 O          -5.9555  -16.3268  -45.3823 O.2       3 UNK        -0.5000 
     57 CA         -4.7216  -14.8847  -46.8439 C.3       3 UNK         0.1400 
     58 CB         -5.6712  -13.6927  -47.0366 C.3       3 UNK        -0.1800 
     59 N          -3.3392  -14.4231  -46.9955 N.am      3 UNK        -0.5000 
     60 C          -2.3226  -15.2235  -47.3364 C.2       2 UNK         0.5000 
     61 O          -2.4582  -16.4167  -47.6166 O.2       2 UNK        -0.5000 
     62 CA         -0.9220  -14.5911  -47.3393 C.3       2 UNK         0.1400 
     63 CB         -0.4939  -14.2216  -45.9084 C.3       2 UNK        -0.1800 
     64 N           0.0041  -15.5614  -47.9075 N.am      2 UNK        -0.5000 
     65 C           1.2456  -15.3436  -48.3563 C.2       1 UNK         0.5000 
     66 O           1.7947  -14.2422  -48.3103 O.2       1 UNK        -0.5000 
     67 C           0.6005  -22.6581  -46.6547 C.2       11 UNK         0.5000 
     68 O          -0.3272  -21.9960  -47.1200 O.2       11 UNK        -0.5000 
     69 N           0.6216  -23.0937  -45.3880 N.am      12 UNK        -0.5000 
     70 CA         -0.3571  -22.7530  -44.3569 C.3       12 UNK         0.1400 
     71 CB          0.2529  -23.0473  -42.9781 C.3       12 UNK        -0.1800 
     72 C          -1.7026  -23.4820  -44.5047 C.2       12 UNK         0.5000 
     73 O          -2.7052  -22.9770  -44.0006 O.2       12 UNK        -0.5000 
     74 N          -1.7043  -24.6466  -45.1713 N.am      13 UNK        -0.5000 
     75 CA         -2.8534  -25.5350  -45.3781 C.3       13 UNK         0.1400 
     76 CB         -2.3972  -26.7512  -46.2006 C.3       13 UNK        -0.1800 
     77 C          -4.0387  -24.8158  -46.0502 C.2       13 UNK         0.5000 
     78 O          -4.0038  -24.5818  -47.2598 O.2       13 UNK        -0.5000 
     79 N          -5.0185  -24.4023  -45.2305 N.am      14 UNK        -0.5000 
     80 CA         -6.1682  -23.5494  -45.5707 C.3       14 UNK         0.1400 
     81 CB         -7.1560  -24.3168  -46.4741 C.3       14 UNK        -0.1800 
     82 C          -5.7631  -22.1846  -46.1758 C.2       14 UNK         0.5000 
     83 O          -6.5269  -21.6063  -46.9513 O.2       14 UNK        -0.5000 
     84 N          -4.5362  -21.7316  -45.8687 N.am      15 UNK        -0.5000 
     85 CA         -3.8198  -20.6127  -46.4906 C.3       15 UNK         0.1400 
     86 CB         -4.4419  -19.2749  -46.0455 C.3       15 UNK        -0.1800 
     87 C          -3.7263  -20.7360  -48.0290 C.2       15 UNK         0.5000 
     88 O          -3.7894  -19.7222  -48.7220 O.2       15 UNK        -0.5000 
     89 N          -3.6615  -21.9771  -48.5398 N.am      16 UNK        -0.5000 
     90 CA         -3.7624  -22.3651  -49.9517 C.3       16 UNK         0.1400 
     91 CB         -2.4856  -21.9802  -50.7204 C.3       16 UNK        -0.1800 
     92 C          -5.0478  -21.8301  -50.6201 C.2       16 UNK         0.5000 
     93 O          -4.9912  -21.2846  -51.7236 O.2       16 UNK        -0.5000 
     94 N          -6.1735  -21.9570  -49.9002 N.am      17 UNK        -0.5000 
     95 CA         -7.5009  -21.4227  -50.2213 C.3       17 UNK         0.1400 
     96 CB         -8.1003  -22.1295  -51.4542 C.3       17 UNK        -0.1800 
     97 C          -7.4956  -19.8830  -50.3286 C.2       17 UNK         0.5000 
     98 O          -8.0687  -19.3216  -51.2629 O.2       17 UNK        -0.5000 
     99 N          -6.8257  -19.2429  -49.3592 N.am      18 UNK        -0.5000 
    100 CA        -6.5669  -17.8045  -49.2481 C.3       18 UNK         0.1400 
    101 CB        -7.8722  -17.0224  -48.9956 C.3       18 UNK        -0.1800 
    102 C         -5.7474  -17.2651  -50.4390 C.2       18 UNK         0.5000 
    103 O         -6.2025  -16.3763  -51.1614 O.2       18 UNK        -0.5000 
    104 N         -4.5434  -17.8288  -50.6038 N.am      19 UNK        -0.5000 
    105 CA        -3.5101  -17.4739  -51.5816 C.3       19 UNK         0.1400 
    106 CB        -3.0241  -16.0248  -51.3631 C.3       19 UNK        -0.1800 
    107 C         -3.8953  -17.7510  -53.0496 C.2       19 UNK         0.5000 
    108 O         -3.3428  -17.1202  -53.9536 O.2       19 UNK        -0.5000 
    109 N         -4.8040  -18.7101  -53.2828 N.am      20 UNK        -0.5000 
    110 CA        -5.2808  -19.0870  -54.6177 C.3       20 UNK         0.1400 
    111 CB        -6.5092  -19.9980  -54.4920 C.3       20 UNK        -0.1800 
    112 C         -4.1995  -19.7620  -55.4821 C.2       20 UNK         0.5000 
    113 O         -4.2632  -19.6723  -56.7088 O.2       20 UNK        -0.5000 
    114 N         -3.2047  -20.3838  -54.8323 N.am      21 UNK        -0.5000 
    115 CA        -2.0446  -21.0316  -55.4525 C.3       21 UNK         0.1400 
    116 CB        -1.1969  -21.6880  -54.3522 C.3       21 UNK        -0.1800 
    117 C         -1.1738  -20.1019  -56.3249 C.2       21 UNK         0.5000 
    118 O         -0.5118  -20.5917  -57.2409 O.2       21 UNK        -0.5000 
    119 N         -1.2073  -18.7931  -56.0448 N.am      22 UNK        -0.5000 
    120 CA        -0.5589  -17.7396  -56.8437 C.3       22 UNK         0.1400 
    121 C         -1.5665  -16.9394  -57.7235 C.2       22 UNK         0.5000 
    122 N         -2.8222  -17.3515  -57.8586 N.am      22 UNK        -0.7600 
    123 O         -1.2002  -15.9311  -58.3214 O.2       22 UNK        -0.5000 
    124 C124        0.3133  -16.8078  -55.9615 C.3       23 UNK        -0.0398 
    125 S125        1.7353  -17.6841  -55.2222 S.3       23 UNK        -0.2404 
    126 C126        1.2164  -17.7585  -53.4850 C.3       23 UNK        -0.0205 
    127 H127       -1.4555  -19.3693  -49.5726 H         1 UNK         0.0600 
    128 H128       -0.1536  -20.0700  -50.5452 H         1 UNK         0.0600 
    129 H129       -0.0201  -20.0043  -48.7829 H         1 UNK         0.0600 
    130 H130        1.5589  -18.5012  -48.2818 H         1 UNK         0.3000 
    131 H131        2.0939  -16.2727  -50.0265 H         1 UNK         0.0600 
    132 H132        3.5814  -16.1874  -47.4719 H         1 UNK         0.0800 
    133 H133        3.6115  -17.7892  -48.1228 H         1 UNK         0.0800 
    134 H134        6.0325  -17.6668  -51.0255 H         1 UNK         0.0800 
    135 H135        5.6030  -18.4846  -49.5444 H         1 UNK         0.0800 
    136 H136        3.3486  -16.8000  -52.0835 H         1 UNK         0.1150 
    137 H137        1.2887  -20.4299  -53.0194 H         1 UNK         0.1150 
    138 H138        4.6199  -20.4931  -50.3209 H         1 UNK         0.1150 
    139 H139        1.7541  -22.4437  -51.8186 H         1 UNK         0.0800 
    140 H140        3.4165  -22.5984  -52.3278 H         1 UNK         0.0800 
    141 H141        0.8900  -22.5171  -49.4291 H         1 UNK         0.0800 
    142 H142        1.9076  -21.2351  -48.7993 H         1 UNK         0.0800 
    143 H143        1.7914  -24.0816  -47.6918 H         1 UNK         0.0600 
    144 H144        3.5151  -21.8215  -47.0154 H         1 UNK         0.3000 
    145 H145        4.7877  -23.0702  -44.0928 H         1 UNK         0.0600 
    146 H146        6.3539  -23.6837  -46.6509 H         1 UNK         0.0600 
    147 H147        7.0416  -23.4689  -45.0404 H         1 UNK         0.0600 
    148 H148        5.9913  -24.8354  -45.3713 H         1 UNK         0.0600 
    149 H149        6.0319  -21.3717  -46.0117 H         1 UNK         0.3000 
    150 H150        2.8423  -21.5196  -44.2467 H         1 UNK         0.0600 
    151 H151        4.4567  -21.3159  -42.3325 H         1 UNK         0.0600 
    152 H152        2.8662  -20.6864  -41.9313 H         1 UNK         0.0600 
    153 H153        4.1837  -19.5778  -42.3045 H         1 UNK         0.0600 
    154 H154        1.9777  -19.0791  -43.4749 H         1 UNK         0.3000 
    155 H155        1.0299  -17.3287  -46.2138 H         1 UNK         0.0600 
    156 H156       -0.6384  -19.0945  -46.7370 H         1 UNK         0.0600 
    157 H157       -1.3865  -17.8609  -45.7423 H         1 UNK         0.0600 
    158 H158       -0.8940  -19.3925  -45.0286 H         1 UNK         0.0600 
    159 H159       -0.1670  -17.4061  -43.6547 H         1 UNK         0.3000 
    160 H160        2.2771  -15.5922  -41.8852 H         1 UNK         0.0600 
    161 H161       -0.3605  -14.4825  -42.9736 H         1 UNK         0.0600 
    162 H162        1.2215  -13.7640  -43.2666 H         1 UNK         0.0600 
    163 H163        0.5834  -13.8465  -41.6322 H         1 UNK         0.0600 
    164 H164       -0.5375  -16.4644  -41.6454 H         1 UNK         0.3000 
    165 H165        0.2695  -19.3131  -39.6962 H         1 UNK         0.0600 
    166 H166       -1.2242  -18.2385  -38.0351 H         1 UNK         0.0600 
    167 H167        0.3552  -17.4712  -38.0084 H         1 UNK         0.0600 
    168 H168       -0.9940  -16.6658  -38.8004 H         1 UNK         0.0600 
    169 H169       -2.2245  -18.1142  -40.3995 H         1 UNK         0.3000 
    170 H170       -2.6172  -19.7354  -43.5465 H         1 UNK         0.0600 
    171 H171       -3.9841  -20.2687  -40.8651 H         1 UNK         0.0600 
    172 H172       -4.5479  -20.7554  -42.4659 H         1 UNK         0.0600 
    173 H173       -3.0987  -21.4754  -41.7873 H         1 UNK         0.0600 
    174 H174       -4.5479  -18.2701  -42.2542 H         1 UNK         0.3000 
    175 H175       -5.1993  -16.2989  -42.9534 H         1 UNK         0.0600 
    176 H176       -3.9376  -15.2219  -41.0938 H         1 UNK         0.0600 
    177 H177       -2.9109  -14.3762  -42.2460 H         1 UNK         0.0600 
    178 H178       -4.6313  -14.0053  -42.1544 H         1 UNK         0.0600 
    179 H179       -3.3360  -14.7291  -44.6753 H         1 UNK         0.3000 
    180 H180       -4.9369  -15.6118  -47.6292 H         1 UNK         0.0600 
    181 H181       -5.5413  -13.2408  -48.0202 H         1 UNK         0.0600 
    182 H182       -5.5056  -12.9195  -46.2854 H         1 UNK         0.0600 
    183 H183       -6.7130  -14.0071  -46.9607 H         1 UNK         0.0600 
    184 H184       -3.1611  -13.4498  -46.7928 H         1 UNK         0.3000 
    185 H185       -0.9367  -13.7012  -47.9713 H         1 UNK         0.0600 
    186 H186       -1.1119  -13.4199  -45.5038 H         1 UNK         0.0600 
    187 H187       -0.5923  -15.0783  -45.2430 H         1 UNK         0.0600 
    188 H188        0.5406  -13.8810  -45.8673 H         1 UNK         0.0600 
    189 H189       -0.4174  -16.4720  -48.0508 H         1 UNK         0.3000 
    190 H190        1.4071  -23.6699  -45.1055 H         1 UNK         0.3000 
    191 H191       -0.5588  -21.6823  -44.4181 H         1 UNK         0.0600 
    192 H192        0.5297  -24.0970  -42.8735 H         1 UNK         0.0600 
    193 H193       -0.4530  -22.8113  -42.1804 H         1 UNK         0.0600 
    194 H194        1.1425  -22.4437  -42.8024 H         1 UNK         0.0600 
    195 H195       -0.8288  -24.9565  -45.5654 H         1 UNK         0.3000 
    196 H196       -3.1759  -25.8948  -44.3991 H         1 UNK         0.0600 
    197 H197       -3.2285  -27.4339  -46.3817 H         1 UNK         0.0600 
    198 H198       -1.6238  -27.3142  -45.6777 H         1 UNK         0.0600 
    199 H199       -1.9980  -26.4555  -47.1718 H         1 UNK         0.0600 
    200 H200       -4.9122  -24.5961  -44.2439 H         1 UNK         0.3000 
    201 H201       -6.6772  -23.3256  -44.6324 H         1 UNK         0.0600 
    202 H202       -7.4359  -25.2717  -46.0293 H         1 UNK         0.0600 
    203 H203       -6.7330  -24.5173  -47.4590 H         1 UNK         0.0600 
    204 H204       -8.0754  -23.7492  -46.6228 H         1 UNK         0.0600 
    205 H205       -3.9900  -22.2754  -45.2047 H         1 UNK         0.3000 
    206 H206       -2.7966  -20.6543  -46.1161 H         1 UNK         0.0600 
    207 H207       -4.5410  -19.2232  -44.9633 H         1 UNK         0.0600 
    208 H208       -3.8248  -18.4320  -46.3576 H         1 UNK         0.0600 
    209 H209       -5.4353  -19.1293  -46.4693 H         1 UNK         0.0600 
    210 H210       -3.6508  -22.7606  -47.8933 H         1 UNK         0.3000 
    211 H211       -3.8374  -23.4534  -49.9595 H         1 UNK         0.0600 
    212 H212       -2.4544  -20.9134  -50.9380 H         1 UNK         0.0600 
    213 H213       -2.4449  -22.5057  -51.6733 H         1 UNK         0.0600 
    214 H214       -1.5875  -22.2448  -50.1623 H         1 UNK         0.0600 
    215 H215       -6.0907  -22.3411  -48.9674 H         1 UNK         0.3000 
    216 H216       -8.1387  -21.6615  -49.3689 H         1 UNK         0.0600 
    217 H217       -9.1256  -21.8030  -51.6312 H         1 UNK         0.0600 
    218 H218       -8.1239  -23.2101  -51.3143 H         1 UNK         0.0600 
    219 H219       -7.5317  -21.9226  -52.3593 H         1 UNK         0.0600 
    220 H220       -6.3778  -19.8173  -48.6568 H         1 UNK         0.3000 
    221 H221       -5.9402  -17.6784  -48.3646 H         1 UNK         0.0600 
    222 H222       -8.5557  -17.0821  -49.8429 H         1 UNK         0.0600 
    223 H223       -8.3928  -17.4010  -48.1160 H         1 UNK         0.0600 
    224 H224       -7.6627  -15.9668  -48.8185 H         1 UNK         0.0600 
    225 H225       -4.2719  -18.5569  -49.9408 H         1 UNK         0.3000 
    226 H226       -2.6702  -18.1359  -51.3710 H         1 UNK         0.0600 
    227 H227       -3.7905  -15.2930  -51.6186 H         1 UNK         0.0600 
    228 H228       -2.7325  -15.8614  -50.3264 H         1 UNK         0.0600 
    229 H229       -2.1490  -15.8090  -51.9771 H         1 UNK         0.0600 
    230 H230       -5.1673  -19.2457  -52.5028 H         1 UNK         0.3000 
    231 H231       -5.5889  -18.1734  -55.1303 H         1 UNK         0.0600 
    232 H232       -6.9454  -20.1994  -55.4711 H         1 UNK         0.0600 
    233 H233       -7.2845  -19.5388  -53.8790 H         1 UNK         0.0600 
    234 H234       -6.2493  -20.9587  -54.0487 H         1 UNK         0.0600 
    235 H235       -3.2609  -20.4209  -53.8245 H         1 UNK         0.3000 
    236 H236       -2.4208  -21.8193  -56.1082 H         1 UNK         0.0600 
    237 H237       -0.9348  -20.9763  -53.5689 H         1 UNK         0.0600 
    238 H238       -1.7342  -22.5161  -53.8917 H         1 UNK         0.0600 
    239 H239       -0.2680  -22.0946  -54.7547 H         1 UNK         0.0600 
    240 H240       -1.8083  -18.4700  -55.2987 H         1 UNK         0.3000 
    241 H241        0.1139  -18.2013  -57.5682 H         1 UNK         0.0600 
    242 H242       -3.4503  -16.8202  -58.4404 H         1 UNK         0.3800 
    243 H243       -3.1553  -18.2012  -57.4160 H         1 UNK         0.3800 
    244 H244       -0.2926  -16.3400  -55.1836 H         1 UNK         0.0800 
    245 H245        0.7261  -15.9899  -56.5541 H         1 UNK         0.0800 
    246 H246        1.1025  -16.7455  -53.0954 H         1 UNK         0.0800 
    247 H247        0.2312  -18.2231  -53.4177 H         1 UNK         0.0800 
@<TRIPOS>BOND
     1    1    2 1    
     2    1  127 1    
     3    1  128 1    
     4    1  129 1    
     5    2    3 2    
     6    2    4 am   BACKBONE|DICT|INTERRES
     7    4    5 1    
     8    4  130 1    
     9    5    6 1    
    10    5   65 1    
    11    5  131 1    
    12    6    7 1    
    13    6  132 1    
    14    6  133 1    
    15    7    8 1    
    16    8    9 1    
    17    8  134 1    
    18    8  135 1    
    19    9   10 ar   
    20    9   14 ar   
    21   10   11 ar   
    22   10  136 1    
    23   11   12 ar   
    24   11  126 1    
    25   12   13 ar   
    26   12  137 1    
    27   13   14 ar   
    28   13   15 1    
    29   14  138 1    
    30   15   16 1    
    31   15  139 1    
    32   15  140 1    
    33   16   17 1    
    34   17   18 1    
    35   17  141 1    
    36   17  142 1    
    37   18   19 1    
    38   18   67 1    
    39   18  143 1    
    40   19   20 am   BACKBONE|DICT|INTERRES
    41   19  144 1    
    42   20   21 2    
    43   20   22 1    
    44   22   23 1    
    45   22   24 1    
    46   22  145 1    
    47   23  146 1    
    48   23  147 1    
    49   23  148 1    
    50   24   25 am   BACKBONE|DICT|INTERRES
    51   24  149 1    
    52   25   26 2    
    53   25   27 1    
    54   27   28 1    
    55   27   29 1    
    56   27  150 1    
    57   28  151 1    
    58   28  152 1    
    59   28  153 1    
    60   29   30 am   BACKBONE|DICT|INTERRES
    61   29  154 1    
    62   30   31 2    
    63   30   32 1    
    64   32   33 1    
    65   32   34 1    
    66   32  155 1    
    67   33  156 1    
    68   33  157 1    
    69   33  158 1    
    70   34   35 am   BACKBONE|DICT|INTERRES
    71   34  159 1    
    72   35   36 2    
    73   35   37 1    
    74   37   38 1    
    75   37   39 1    
    76   37  160 1    
    77   38  161 1    
    78   38  162 1    
    79   38  163 1    
    80   39   40 am   BACKBONE|DICT|INTERRES
    81   39  164 1    
    82   40   41 2    
    83   40   42 1    
    84   42   43 1    
    85   42   44 1    
    86   42  165 1    
    87   43  166 1    
    88   43  167 1    
    89   43  168 1    
    90   44   45 am   BACKBONE|DICT|INTERRES
    91   44  169 1    
    92   45   46 2    
    93   45   47 1    
    94   47   48 1    
    95   47   49 1    
    96   47  170 1    
    97   48  171 1    
    98   48  172 1    
    99   48  173 1    
   100   49   50 am   BACKBONE|DICT|INTERRES
   101   49  174 1    
   102   50   51 2    
   103   50   52 1    
   104   52   53 1    
   105   52   54 1    
   106   52  175 1    
   107   53  176 1    
   108   53  177 1    
   109   53  178 1    
   110   54   55 am   BACKBONE|DICT|INTERRES
   111   54  179 1    
   112   55   56 2    
   113   55   57 1    
   114   57   58 1    
   115   57   59 1    
   116   57  180 1    
   117   58  181 1    
   118   58  182 1    
   119   58  183 1    
   120   59   60 am   BACKBONE|DICT|INTERRES
   121   59  184 1    
   122   60   61 2    
   123   60   62 1    
   124   62   63 1    
   125   62   64 1    
   126   62  185 1    
   127   63  186 1    
   128   63  187 1    
   129   63  188 1    
   130   64   65 am   BACKBONE|DICT|INTERRES
   131   64  189 1    
   132   65   66 2    
   133   67   68 2    
   134   67   69 am   BACKBONE|DICT|INTERRES
   135   69   70 1    
   136   69  190 1    
   137   70   71 1    
   138   70   72 1    
   139   70  191 1    
   140   71  192 1    
   141   71  193 1    
   142   71  194 1    
   143   72   73 2    
   144   72   74 am   BACKBONE|DICT|INTERRES
   145   74   75 1    
   146   74  195 1    
   147   75   76 1    
   148   75   77 1    
   149   75  196 1    
   150   76  197 1    
   151   76  198 1    
   152   76  199 1    
   153   77   78 2    
   154   77   79 am   BACKBONE|DICT|INTERRES
   155   79   80 1    
   156   79  200 1    
   157   80   81 1    
   158   80   82 1    
   159   80  201 1    
   160   81  202 1    
   161   81  203 1    
   162   81  204 1    
   163   82   83 2    
   164   82   84 am   BACKBONE|DICT|INTERRES
   165   84   85 1    
   166   84  205 1    
   167   85   86 1    
   168   85   87 1    
   169   85  206 1    
   170   86  207 1    
   171   86  208 1    
   172   86  209 1    
   173   87   88 2    
   174   87   89 am   BACKBONE|DICT|INTERRES
   175   89   90 1    
   176   89  210 1    
   177   90   91 1    
   178   90   92 1    
   179   90  211 1    
   180   91  212 1    
   181   91  213 1    
   182   91  214 1    
   183   92   93 2    
   184   92   94 am   BACKBONE|DICT|INTERRES
   185   94   95 1    
   186   94  215 1    
   187   95   96 1    
   188   95   97 1    
   189   95  216 1    
   190   96  217 1    
   191   96  218 1    
   192   96  219 1    
   193   97   98 2    
   194   97   99 am   BACKBONE|DICT|INTERRES
   195   99  100 1    
   196   99  220 1    
   197  100  101 1    
   198  100  102 1    
   199  100  221 1    
   200  101  222 1    
   201  101  223 1    
   202  101  224 1    
   203  102  103 2    
   204  102  104 am   BACKBONE|DICT|INTERRES
   205  104  105 1    
   206  104  225 1    
   207  105  106 1    
   208  105  107 1    
   209  105  226 1    
   210  106  227 1    
   211  106  228 1    
   212  106  229 1    
   213  107  108 2    
   214  107  109 am   BACKBONE|DICT|INTERRES
   215  109  110 1    
   216  109  230 1    
   217  110  111 1    
   218  110  112 1    
   219  110  231 1    
   220  111  232 1    
   221  111  233 1    
   222  111  234 1    
   223  112  113 2    
   224  112  114 am   BACKBONE|DICT|INTERRES
   225  114  115 1    
   226  114  235 1    
   227  115  116 1    
   228  115  117 1    
   229  115  236 1    
   230  116  237 1    
   231  116  238 1    
   232  116  239 1    
   233  117  118 2    
   234  117  119 am   BACKBONE|DICT|INTERRES
   235  119  120 1    
   236  119  240 1    
   237  120  121 1    
   238  120  124 1    
   239  120  241 1    
   240  121  122 am   BACKBONE|DICT|INTERRES
   241  121  123 2    
   242  122  242 1    
   243  122  243 1    
   244  124  125 1    
   245  124  244 1    
   246  124  245 1    
   247  125  126 1    
   248  126  246 1    
   249  126  247 1    
@<TRIPOS>SUBSTRUCTURE
     1 UNK         1 GROUP             0       ****    0 ROOT    
