@<TRIPOS>MOLECULE
3R540
247   249    1
SMALL
USER_CHARGES


@<TRIPOS>ATOM
      1 CA         -2.7921  -16.8204  -41.6182 C.3       0 UNK        -0.1800 
      2 C          -3.0112  -15.8535  -42.7734 C.2       0 UNK         0.5000 
      3 O          -4.0081  -15.9619  -43.4842 O.2       0 UNK        -0.5000 
      4 N          -2.0846  -14.9114  -42.9651 N.am      1 UNK        -0.5000 
      5 CA         -2.1069  -13.9127  -44.0285 C.3       1 UNK         0.1400 
      6 C6         -1.5212  -14.4787  -45.3475 C.3       23 UNK        -0.0398 
      7 S7         -1.6173  -13.3293  -46.7655 S.3       23 UNK        -0.2404 
      8 C8         -3.2017  -13.7791  -47.5471 C.3       23 UNK        -0.0205 
      9 C9         -3.2450  -15.2283  -48.0111 C.ar      23 UNK        -0.0193 
     10 C10        -2.2961  -15.7158  -48.9140 C.ar      23 UNK        -0.1150 
     11 C11        -2.3070  -17.0592  -49.3136 C.ar      23 UNK        -0.0193 
     12 C12        -3.2947  -17.9068  -48.8030 C.ar      23 UNK        -0.1150 
     13 C13        -4.2569  -17.4283  -47.9087 C.ar      23 UNK        -0.0193 
     14 C14        -4.2307  -16.0871  -47.5222 C.ar      23 UNK        -0.1150 
     15 C15        -5.3020  -18.3686  -47.3279 C.3       23 UNK        -0.0205 
     16 S16        -5.1259  -18.5861  -45.5236 S.3       23 UNK        -0.2404 
     17 C17        -3.3608  -19.0229  -45.3416 C.3       23 UNK        -0.0398 
     18 CA         -3.0702  -20.4782  -45.7713 C.3       11 UNK         0.1400 
     19 N          -1.6895  -20.6631  -46.2297 N.am      11 UNK        -0.5000 
     20 C          -1.2155  -21.7915  -46.7769 C.2       10 UNK         0.5000 
     21 O          -1.9042  -22.7908  -46.9723 O.2       10 UNK        -0.5000 
     22 CA          0.2828  -21.8439  -47.1101 C.3       10 UNK         0.1400 
     23 CB          0.5827  -21.0909  -48.4141 C.3       10 UNK        -0.1800 
     24 N           1.0994  -21.3240  -46.0145 N.am      10 UNK        -0.5000 
     25 C           1.1617  -21.8852  -44.7972 C.2       9 UNK         0.5000 
     26 O           0.6165  -22.9502  -44.5089 O.2       9 UNK        -0.5000 
     27 CA          1.9168  -21.1093  -43.7047 C.3       9 UNK         0.1400 
     28 CB          3.4238  -21.3934  -43.7832 C.3       9 UNK        -0.1800 
     29 N           1.6798  -19.6661  -43.7649 N.am      9 UNK        -0.5000 
     30 C           0.4904  -19.0749  -43.5800 C.2       8 UNK         0.5000 
     31 O          -0.5421  -19.6845  -43.3001 O.2       8 UNK        -0.5000 
     32 CA          0.4323  -17.5515  -43.7998 C.3       8 UNK         0.1400 
     33 CB          0.9805  -16.7888  -42.5852 C.3       8 UNK        -0.1800 
     34 N           1.1463  -17.1327  -45.0052 N.am      8 UNK        -0.5000 
     35 C           0.7933  -17.4861  -46.2492 C.2       7 UNK         0.5000 
     36 O          -0.2000  -18.1631  -46.5120 O.2       7 UNK        -0.5000 
     37 CA          1.7472  -17.0615  -47.3770 C.3       7 UNK         0.1400 
     38 CB          1.4987  -15.6033  -47.7917 C.3       7 UNK        -0.1800 
     39 N           3.1477  -17.2385  -46.9892 N.am      7 UNK        -0.5000 
     40 C           3.7394  -18.4337  -46.8437 C.2       6 UNK         0.5000 
     41 O           3.1710  -19.5044  -47.0528 O.2       6 UNK        -0.5000 
     42 CA          5.1972  -18.4399  -46.3460 C.3       6 UNK         0.1400 
     43 CB          6.1689  -18.2621  -47.5221 C.3       6 UNK        -0.1800 
     44 N           5.4636  -17.4110  -45.3409 N.am      6 UNK        -0.5000 
     45 C           4.9009  -17.3648  -44.1248 C.2       5 UNK         0.5000 
     46 O           4.1255  -18.2181  -43.6988 O.2       5 UNK        -0.5000 
     47 CA          5.2122  -16.1281  -43.2608 C.3       5 UNK         0.1400 
     48 CB          6.4366  -16.3867  -42.3710 C.3       5 UNK        -0.1800 
     49 N           5.4314  -14.9119  -44.0492 N.am      5 UNK        -0.5000 
     50 C           4.5203  -14.3582  -44.8598 C.2       4 UNK         0.5000 
     51 O           3.3899  -14.8219  -45.0356 O.2       4 UNK        -0.5000 
     52 CA          4.9884  -13.1318  -45.6641 C.3       4 UNK         0.1400 
     53 CB          5.6903  -13.5874  -46.9535 C.3       4 UNK        -0.1800 
     54 N           3.8799  -12.2506  -46.0245 N.am      4 UNK        -0.5000 
     55 C           3.1566  -11.5328  -45.1571 C.2       3 UNK         0.5000 
     56 O           3.4026  -11.4751  -43.9495 O.2       3 UNK        -0.5000 
     57 CA          1.9671  -10.7396  -45.7258 C.3       3 UNK         0.1400 
     58 CB          1.4791  -11.2377  -47.1044 C.3       3 UNK        -0.1800 
     59 N           0.8766  -10.7935  -44.7601 N.am      3 UNK        -0.5000 
     60 C          -0.0915   -9.8860  -44.6117 C.2       2 UNK         0.5000 
     61 O          -0.1761   -8.8613  -45.2916 O.2       2 UNK        -0.5000 
     62 CA         -1.1584  -10.2096  -43.5444 C.3       2 UNK         0.1400 
     63 CB         -2.2395   -9.1194  -43.4303 C.3       2 UNK        -0.1800 
     64 N          -1.8091  -11.4880  -43.8370 N.am      2 UNK        -0.5000 
     65 C          -1.3278  -12.6933  -43.5111 C.2       1 UNK         0.5000 
     66 O          -0.2970  -12.8641  -42.8542 O.2       1 UNK        -0.5000 
     67 C          -3.4744  -21.4890  -44.6778 C.2       11 UNK         0.5000 
     68 O          -4.5476  -22.0858  -44.7725 O.2       11 UNK        -0.5000 
     69 N          -2.5760  -21.7261  -43.7112 N.am      12 UNK        -0.5000 
     70 CA         -2.7200  -22.7410  -42.6626 C.3       12 UNK         0.1400 
     71 CB         -1.5760  -22.5843  -41.6499 C.3       12 UNK        -0.1800 
     72 C          -2.7828  -24.1877  -43.2005 C.2       12 UNK         0.5000 
     73 O          -3.3767  -25.0487  -42.5514 O.2       12 UNK        -0.5000 
     74 N          -2.2133  -24.4181  -44.3905 N.am      13 UNK        -0.5000 
     75 CA         -2.2704  -25.6679  -45.1488 C.3       13 UNK         0.1400 
     76 CB         -0.9050  -25.8943  -45.8233 C.3       13 UNK        -0.1800 
     77 C          -3.4290  -25.6808  -46.1727 C.2       13 UNK         0.5000 
     78 O          -3.3690  -26.4418  -47.1392 O.2       13 UNK        -0.5000 
     79 N          -4.4538  -24.8394  -45.9575 N.am      14 UNK        -0.5000 
     80 CA         -5.6587  -24.6633  -46.7771 C.3       14 UNK         0.1400 
     81 CB         -6.5131  -25.9486  -46.7905 C.3       14 UNK        -0.1800 
     82 C          -5.3280  -24.1375  -48.1871 C.2       14 UNK         0.5000 
     83 O          -5.7388  -24.7291  -49.1865 O.2       14 UNK        -0.5000 
     84 N          -4.5391  -23.0536  -48.2274 N.am      15 UNK        -0.5000 
     85 CA         -3.9585  -22.4189  -49.4195 C.3       15 UNK         0.1400 
     86 CB         -5.0569  -21.7783  -50.2917 C.3       15 UNK        -0.1800 
     87 C          -3.0490  -23.3944  -50.1961 C.2       15 UNK         0.5000 
     88 O          -3.1016  -23.4620  -51.4222 O.2       15 UNK        -0.5000 
     89 N          -2.2792  -24.1946  -49.4437 N.am      16 UNK        -0.5000 
     90 CA         -1.4396  -25.3113  -49.8945 C.3       16 UNK         0.1400 
     91 CB         -0.2087  -24.7724  -50.6517 C.3       16 UNK        -0.1800 
     92 C          -2.2081  -26.3890  -50.6987 C.2       16 UNK         0.5000 
     93 O          -1.5970  -27.1164  -51.4833 O.2       16 UNK        -0.5000 
     94 N          -3.5348  -26.4542  -50.5014 N.am      17 UNK        -0.5000 
     95 CA         -4.5173  -27.2563  -51.2331 C.3       17 UNK         0.1400 
     96 CB         -4.3112  -28.7598  -50.9540 C.3       17 UNK        -0.1800 
     97 C          -4.5903  -26.9223  -52.7418 C.2       17 UNK         0.5000 
     98 O          -4.9323  -27.7983  -53.5391 O.2       17 UNK        -0.5000 
     99 N          -4.2782  -25.6728  -53.1149 N.am      18 UNK        -0.5000 
    100 CA        -4.2805  -25.1814  -54.4901 C.3       18 UNK         0.1400 
    101 CB        -2.8322  -24.8815  -54.9093 C.3       18 UNK        -0.1800 
    102 C         -5.1391  -23.9131  -54.5960 C.2       18 UNK         0.5000 
    103 O         -5.1475  -23.0920  -53.6787 O.2       18 UNK        -0.5000 
    104 N         -5.8203  -23.7498  -55.7362 N.am      19 UNK        -0.5000 
    105 CA        -6.6208  -22.5611  -56.0453 C.3       19 UNK         0.1400 
    106 CB        -7.6659  -22.9274  -57.1108 C.3       19 UNK        -0.1800 
    107 C         -5.7624  -21.3726  -56.5227 C.2       19 UNK         0.5000 
    108 O         -6.1859  -20.2246  -56.3869 O.2       19 UNK        -0.5000 
    109 N         -4.5837  -21.6684  -57.0879 N.am      20 UNK        -0.5000 
    110 CA        -3.6632  -20.6884  -57.6677 C.3       20 UNK         0.1400 
    111 CB        -2.7988  -21.3972  -58.7227 C.3       20 UNK        -0.1800 
    112 C         -2.7664  -19.9861  -56.6300 C.2       20 UNK         0.5000 
    113 O         -2.1684  -18.9588  -56.9578 O.2       20 UNK        -0.5000 
    114 N         -2.6620  -20.5497  -55.4169 N.am      21 UNK        -0.5000 
    115 CA        -1.8221  -20.0551  -54.3244 C.3       21 UNK         0.1400 
    116 CB        -1.9238  -21.0107  -53.1282 C.3       21 UNK        -0.1800 
    117 C         -2.1900  -18.6175  -53.9155 C.2       21 UNK         0.5000 
    118 O         -3.3181  -18.3759  -53.4819 O.2       21 UNK        -0.5000 
    119 N         -1.2314  -17.7004  -54.0926 N.am      22 UNK        -0.5000 
    120 CA        -1.3683  -16.2474  -53.8862 C.3       22 UNK         0.1400 
    121 C         -2.3360  -15.5402  -54.8874 C.2       22 UNK         0.5000 
    122 N         -2.7009  -16.1538  -56.0081 N.am      22 UNK        -0.7600 
    123 O         -2.7375  -14.4002  -54.6689 O.2       22 UNK        -0.5000 
    124 C124       -1.6397  -15.8571  -52.4050 C.3       23 UNK        -0.0398 
    125 S125       -0.3334  -16.4499  -51.2729 S.3       23 UNK        -0.2404 
    126 C126       -1.2533  -17.6519  -50.2510 C.3       23 UNK        -0.0205 
    127 H127       -1.9581  -16.5140  -40.9866 H         1 UNK         0.0600 
    128 H128       -2.5822  -17.8199  -41.9995 H         1 UNK         0.0600 
    129 H129       -3.6857  -16.8723  -40.9963 H         1 UNK         0.0600 
    130 H130       -1.3043  -14.8105  -42.3278 H         1 UNK         0.3000 
    131 H131       -3.1415  -13.6076  -44.2009 H         1 UNK         0.0600 
    132 H132       -0.4717  -14.7417  -45.2067 H         1 UNK         0.0800 
    133 H133       -2.0209  -15.4122  -45.6075 H         1 UNK         0.0800 
    134 H134       -4.0106  -13.5702  -46.8454 H         1 UNK         0.0800 
    135 H135       -3.3657  -13.1299  -48.4080 H         1 UNK         0.0800 
    136 H136       -1.5375  -15.0401  -49.2795 H         1 UNK         0.1150 
    137 H137       -3.3032  -18.9485  -49.0907 H         1 UNK         0.1150 
    138 H138       -4.9638  -15.7233  -46.8156 H         1 UNK         0.1150 
    139 H139       -6.2950  -17.9693  -47.5382 H         1 UNK         0.0800 
    140 H140       -5.2598  -19.3442  -47.8137 H         1 UNK         0.0800 
    141 H141       -3.0593  -18.8470  -44.3078 H         1 UNK         0.0800 
    142 H142       -2.7683  -18.3209  -45.9271 H         1 UNK         0.0800 
    143 H143       -3.6876  -20.6977  -46.6431 H         1 UNK         0.0600 
    144 H144       -1.0674  -19.8644  -46.1372 H         1 UNK         0.3000 
    145 H145        0.5514  -22.8918  -47.2597 H         1 UNK         0.0600 
    146 H146        1.6262  -21.2110  -48.7051 H         1 UNK         0.0600 
    147 H147       -0.0293  -21.4689  -49.2343 H         1 UNK         0.0600 
    148 H148        0.3844  -20.0243  -48.3199 H         1 UNK         0.0600 
    149 H149        1.6323  -20.4808  -46.2007 H         1 UNK         0.3000 
    150 H150        1.5549  -21.4635  -42.7374 H         1 UNK         0.0600 
    151 H151        3.6236  -22.4640  -43.7239 H         1 UNK         0.0600 
    152 H152        3.9579  -20.9173  -42.9607 H         1 UNK         0.0600 
    153 H153        3.8531  -21.0295  -44.7169 H         1 UNK         0.0600 
    154 H154        2.4965  -19.0836  -43.9336 H         1 UNK         0.3000 
    155 H155       -0.6167  -17.2802  -43.9287 H         1 UNK         0.0600 
    156 H156        0.4323  -17.0514  -41.6800 H         1 UNK         0.0600 
    157 H157        0.8908  -15.7109  -42.7226 H         1 UNK         0.0600 
    158 H158        2.0316  -17.0151  -42.4070 H         1 UNK         0.0600 
    159 H159        1.9765  -16.5659  -44.8803 H         1 UNK         0.3000 
    160 H160        1.5478  -17.6963  -48.2428 H         1 UNK         0.0600 
    161 H161        1.6536  -14.9083  -46.9669 H         1 UNK         0.0600 
    162 H162        0.4732  -15.4712  -48.1342 H         1 UNK         0.0600 
    163 H163        2.1540  -15.3071  -48.6106 H         1 UNK         0.0600 
    164 H164        3.6531  -16.4048  -46.7253 H         1 UNK         0.3000 
    165 H165        5.3883  -19.4132  -45.8894 H         1 UNK         0.0600 
    166 H166        7.2050  -18.3477  -47.1941 H         1 UNK         0.0600 
    167 H167        6.0055  -19.0276  -48.2819 H         1 UNK         0.0600 
    168 H168        6.0473  -17.2906  -48.0030 H         1 UNK         0.0600 
    169 H169        6.0930  -16.6681  -45.6050 H         1 UNK         0.3000 
    170 H170        4.3495  -15.9540  -42.6145 H         1 UNK         0.0600 
    171 H171        6.2912  -17.2763  -41.7564 H         1 UNK         0.0600 
    172 H172        7.3401  -16.5403  -42.9624 H         1 UNK         0.0600 
    173 H173        6.6156  -15.5517  -41.6934 H         1 UNK         0.0600 
    174 H174        6.3414  -14.4816  -43.9667 H         1 UNK         0.3000 
    175 H175        5.6956  -12.5622  -45.0575 H         1 UNK         0.0600 
    176 H176        5.0200  -14.1592  -47.5971 H         1 UNK         0.0600 
    177 H177        6.0569  -12.7346  -47.5253 H         1 UNK         0.0600 
    178 H178        6.5511  -14.2197  -46.7321 H         1 UNK         0.0600 
    179 H179        3.5917  -12.2664  -46.9913 H         1 UNK         0.3000 
    180 H180        2.3006   -9.7048  -45.8250 H         1 UNK         0.0600 
    181 H181        0.5908  -10.6960  -47.4299 H         1 UNK         0.0600 
    182 H182        1.2268  -12.2985  -47.0818 H         1 UNK         0.0600 
    183 H183        2.2373  -11.0885  -47.8736 H         1 UNK         0.0600 
    184 H184        0.8952  -11.5856  -44.1263 H         1 UNK         0.3000 
    185 H185       -0.6483  -10.2730  -42.5809 H         1 UNK         0.0600 
    186 H186       -2.7927   -8.9994  -44.3627 H         1 UNK         0.0600 
    187 H187       -2.9561   -9.3567  -42.6438 H         1 UNK         0.0600 
    188 H188       -1.7966   -8.1538  -43.1830 H         1 UNK         0.0600 
    189 H189       -2.6334  -11.4362  -44.4184 H         1 UNK         0.3000 
    190 H190       -1.7305  -21.1617  -43.6840 H         1 UNK         0.3000 
    191 H191       -3.6610  -22.5462  -42.1443 H         1 UNK         0.0600 
    192 H192       -0.6046  -22.7661  -42.1093 H         1 UNK         0.0600 
    193 H193       -1.5613  -21.5814  -41.2226 H         1 UNK         0.0600 
    194 H194       -1.6855  -23.2888  -40.8246 H         1 UNK         0.0600 
    195 H195       -1.7471  -23.6484  -44.8545 H         1 UNK         0.3000 
    196 H196       -2.4445  -26.5011  -44.4654 H         1 UNK         0.0600 
    197 H197       -0.0995  -25.8907  -45.0887 H         1 UNK         0.0600 
    198 H198       -0.6843  -25.1218  -46.5595 H         1 UNK         0.0600 
    199 H199       -0.8705  -26.8568  -46.3349 H         1 UNK         0.0600 
    200 H200       -4.3786  -24.2017  -45.1741 H         1 UNK         0.3000 
    201 H201       -6.2486  -23.8847  -46.2913 H         1 UNK         0.0600 
    202 H202       -7.4620  -25.7784  -47.3003 H         1 UNK         0.0600 
    203 H203       -6.7437  -26.2788  -45.7777 H         1 UNK         0.0600 
    204 H204       -6.0114  -26.7688  -47.3048 H         1 UNK         0.0600 
    205 H205       -4.1784  -22.7204  -47.3437 H         1 UNK         0.3000 
    206 H206       -3.3133  -21.6145  -49.0652 H         1 UNK         0.0600 
    207 H207       -5.6914  -21.1143  -49.7052 H         1 UNK         0.0600 
    208 H208       -5.6953  -22.5298  -50.7574 H         1 UNK         0.0600 
    209 H209       -4.6207  -21.1837  -51.0944 H         1 UNK         0.0600 
    210 H210       -2.2936  -24.0309  -48.4416 H         1 UNK         0.3000 
    211 H211       -1.0842  -25.8084  -48.9913 H         1 UNK         0.0600 
    212 H212        0.3242  -24.0294  -50.0584 H         1 UNK         0.0600 
    213 H213        0.4971  -25.5728  -50.8760 H         1 UNK         0.0600 
    214 H214       -0.4896  -24.3083  -51.5978 H         1 UNK         0.0600 
    215 H215       -3.9380  -25.8081  -49.8331 H         1 UNK         0.3000 
    216 H216       -5.4893  -26.9804  -50.8225 H         1 UNK         0.0600 
    217 H217       -5.1325  -29.3502  -51.3616 H         1 UNK         0.0600 
    218 H218       -3.3886  -29.1324  -51.3996 H         1 UNK         0.0600 
    219 H219       -4.2715  -28.9589  -49.8829 H         1 UNK         0.0600 
    220 H220       -4.0315  -24.9785  -52.4138 H         1 UNK         0.3000 
    221 H221       -4.6920  -25.9307  -55.1692 H         1 UNK         0.0600 
    222 H222       -2.3724  -24.1396  -54.2553 H         1 UNK         0.0600 
    223 H223       -2.2191  -25.7821  -54.8711 H         1 UNK         0.0600 
    224 H224       -2.7862  -24.4983  -55.9293 H         1 UNK         0.0600 
    225 H225       -5.7810  -24.4672  -56.4464 H         1 UNK         0.3000 
    226 H226       -7.1528  -22.2452  -55.1451 H         1 UNK         0.0600 
    227 H227       -8.3204  -23.7267  -56.7626 H         1 UNK         0.0600 
    228 H228       -8.2989  -22.0710  -57.3475 H         1 UNK         0.0600 
    229 H229       -7.1978  -23.2559  -58.0396 H         1 UNK         0.0600 
    230 H230       -4.3184  -22.6388  -57.1636 H         1 UNK         0.3000 
    231 H231       -4.2444  -19.9135  -58.1722 H         1 UNK         0.0600 
    232 H232       -2.1189  -20.6956  -59.2081 H         1 UNK         0.0600 
    233 H233       -3.4154  -21.8415  -59.5044 H         1 UNK         0.0600 
    234 H234       -2.1926  -22.1891  -58.2810 H         1 UNK         0.0600 
    235 H235       -3.2284  -21.3604  -55.2169 H         1 UNK         0.3000 
    236 H236       -0.7878  -20.0688  -54.6744 H         1 UNK         0.0600 
    237 H237       -2.9552  -21.1131  -52.7905 H         1 UNK         0.0600 
    238 H238       -1.5557  -22.0045  -53.3817 H         1 UNK         0.0600 
    239 H239       -1.3339  -20.6525  -52.2836 H         1 UNK         0.0600 
    240 H240       -0.3451  -17.9958  -54.4759 H         1 UNK         0.3000 
    241 H241       -0.3908  -15.8365  -54.1407 H         1 UNK         0.0600 
    242 H242       -3.3143  -15.6790  -56.6512 H         1 UNK         0.3800 
    243 H243       -2.3850  -17.0942  -56.2216 H         1 UNK         0.3800 
    244 H244       -1.6788  -14.7722  -52.2976 H         1 UNK         0.0800 
    245 H245       -2.6153  -16.2222  -52.0815 H         1 UNK         0.0800 
    246 H246       -1.7193  -18.3837  -50.9120 H         1 UNK         0.0800 
    247 H247       -0.5340  -18.2000  -49.6426 H         1 UNK         0.0800 
@<TRIPOS>BOND
     1    1    2 1    
     2    1  127 1    
     3    1  128 1    
     4    1  129 1    
     5    2    3 2    
     6    2    4 am   BACKBONE|DICT|INTERRES
     7    4    5 1    
     8    4  130 1    
     9    5    6 1    
    10    5   65 1    
    11    5  131 1    
    12    6    7 1    
    13    6  132 1    
    14    6  133 1    
    15    7    8 1    
    16    8    9 1    
    17    8  134 1    
    18    8  135 1    
    19    9   10 ar   
    20    9   14 ar   
    21   10   11 ar   
    22   10  136 1    
    23   11   12 ar   
    24   11  126 1    
    25   12   13 ar   
    26   12  137 1    
    27   13   14 ar   
    28   13   15 1    
    29   14  138 1    
    30   15   16 1    
    31   15  139 1    
    32   15  140 1    
    33   16   17 1    
    34   17   18 1    
    35   17  141 1    
    36   17  142 1    
    37   18   19 1    
    38   18   67 1    
    39   18  143 1    
    40   19   20 am   BACKBONE|DICT|INTERRES
    41   19  144 1    
    42   20   21 2    
    43   20   22 1    
    44   22   23 1    
    45   22   24 1    
    46   22  145 1    
    47   23  146 1    
    48   23  147 1    
    49   23  148 1    
    50   24   25 am   BACKBONE|DICT|INTERRES
    51   24  149 1    
    52   25   26 2    
    53   25   27 1    
    54   27   28 1    
    55   27   29 1    
    56   27  150 1    
    57   28  151 1    
    58   28  152 1    
    59   28  153 1    
    60   29   30 am   BACKBONE|DICT|INTERRES
    61   29  154 1    
    62   30   31 2    
    63   30   32 1    
    64   32   33 1    
    65   32   34 1    
    66   32  155 1    
    67   33  156 1    
    68   33  157 1    
    69   33  158 1    
    70   34   35 am   BACKBONE|DICT|INTERRES
    71   34  159 1    
    72   35   36 2    
    73   35   37 1    
    74   37   38 1    
    75   37   39 1    
    76   37  160 1    
    77   38  161 1    
    78   38  162 1    
    79   38  163 1    
    80   39   40 am   BACKBONE|DICT|INTERRES
    81   39  164 1    
    82   40   41 2    
    83   40   42 1    
    84   42   43 1    
    85   42   44 1    
    86   42  165 1    
    87   43  166 1    
    88   43  167 1    
    89   43  168 1    
    90   44   45 am   BACKBONE|DICT|INTERRES
    91   44  169 1    
    92   45   46 2    
    93   45   47 1    
    94   47   48 1    
    95   47   49 1    
    96   47  170 1    
    97   48  171 1    
    98   48  172 1    
    99   48  173 1    
   100   49   50 am   BACKBONE|DICT|INTERRES
   101   49  174 1    
   102   50   51 2    
   103   50   52 1    
   104   52   53 1    
   105   52   54 1    
   106   52  175 1    
   107   53  176 1    
   108   53  177 1    
   109   53  178 1    
   110   54   55 am   BACKBONE|DICT|INTERRES
   111   54  179 1    
   112   55   56 2    
   113   55   57 1    
   114   57   58 1    
   115   57   59 1    
   116   57  180 1    
   117   58  181 1    
   118   58  182 1    
   119   58  183 1    
   120   59   60 am   BACKBONE|DICT|INTERRES
   121   59  184 1    
   122   60   61 2    
   123   60   62 1    
   124   62   63 1    
   125   62   64 1    
   126   62  185 1    
   127   63  186 1    
   128   63  187 1    
   129   63  188 1    
   130   64   65 am   BACKBONE|DICT|INTERRES
   131   64  189 1    
   132   65   66 2    
   133   67   68 2    
   134   67   69 am   BACKBONE|DICT|INTERRES
   135   69   70 1    
   136   69  190 1    
   137   70   71 1    
   138   70   72 1    
   139   70  191 1    
   140   71  192 1    
   141   71  193 1    
   142   71  194 1    
   143   72   73 2    
   144   72   74 am   BACKBONE|DICT|INTERRES
   145   74   75 1    
   146   74  195 1    
   147   75   76 1    
   148   75   77 1    
   149   75  196 1    
   150   76  197 1    
   151   76  198 1    
   152   76  199 1    
   153   77   78 2    
   154   77   79 am   BACKBONE|DICT|INTERRES
   155   79   80 1    
   156   79  200 1    
   157   80   81 1    
   158   80   82 1    
   159   80  201 1    
   160   81  202 1    
   161   81  203 1    
   162   81  204 1    
   163   82   83 2    
   164   82   84 am   BACKBONE|DICT|INTERRES
   165   84   85 1    
   166   84  205 1    
   167   85   86 1    
   168   85   87 1    
   169   85  206 1    
   170   86  207 1    
   171   86  208 1    
   172   86  209 1    
   173   87   88 2    
   174   87   89 am   BACKBONE|DICT|INTERRES
   175   89   90 1    
   176   89  210 1    
   177   90   91 1    
   178   90   92 1    
   179   90  211 1    
   180   91  212 1    
   181   91  213 1    
   182   91  214 1    
   183   92   93 2    
   184   92   94 am   BACKBONE|DICT|INTERRES
   185   94   95 1    
   186   94  215 1    
   187   95   96 1    
   188   95   97 1    
   189   95  216 1    
   190   96  217 1    
   191   96  218 1    
   192   96  219 1    
   193   97   98 2    
   194   97   99 am   BACKBONE|DICT|INTERRES
   195   99  100 1    
   196   99  220 1    
   197  100  101 1    
   198  100  102 1    
   199  100  221 1    
   200  101  222 1    
   201  101  223 1    
   202  101  224 1    
   203  102  103 2    
   204  102  104 am   BACKBONE|DICT|INTERRES
   205  104  105 1    
   206  104  225 1    
   207  105  106 1    
   208  105  107 1    
   209  105  226 1    
   210  106  227 1    
   211  106  228 1    
   212  106  229 1    
   213  107  108 2    
   214  107  109 am   BACKBONE|DICT|INTERRES
   215  109  110 1    
   216  109  230 1    
   217  110  111 1    
   218  110  112 1    
   219  110  231 1    
   220  111  232 1    
   221  111  233 1    
   222  111  234 1    
   223  112  113 2    
   224  112  114 am   BACKBONE|DICT|INTERRES
   225  114  115 1    
   226  114  235 1    
   227  115  116 1    
   228  115  117 1    
   229  115  236 1    
   230  116  237 1    
   231  116  238 1    
   232  116  239 1    
   233  117  118 2    
   234  117  119 am   BACKBONE|DICT|INTERRES
   235  119  120 1    
   236  119  240 1    
   237  120  121 1    
   238  120  124 1    
   239  120  241 1    
   240  121  122 am   BACKBONE|DICT|INTERRES
   241  121  123 2    
   242  122  242 1    
   243  122  243 1    
   244  124  125 1    
   245  124  244 1    
   246  124  245 1    
   247  125  126 1    
   248  126  246 1    
   249  126  247 1    
@<TRIPOS>SUBSTRUCTURE
     1 UNK         1 GROUP             0       ****    0 ROOT    
