@<TRIPOS>MOLECULE
3R540
247   249    1
SMALL
USER_CHARGES


@<TRIPOS>ATOM
      1 CA          5.3073  -10.3541  -44.1150 C.3       0 UNK        -0.1800 
      2 C           4.3959  -11.3612  -44.8026 C.2       0 UNK         0.5000 
      3 O           3.1805  -11.1678  -44.8276 O.2       0 UNK        -0.5000 
      4 N           4.9783  -12.4348  -45.3514 N.am      1 UNK        -0.5000 
      5 CA          4.2798  -13.4742  -46.1129 C.3       1 UNK         0.1400 
      6 C6          5.1803  -14.7213  -46.2959 C.3       23 UNK        -0.0398 
      7 S7          4.2180  -16.2266  -46.6425 S.3       23 UNK        -0.2404 
      8 C8          4.4861  -16.4072  -48.4302 C.3       23 UNK        -0.0205 
      9 C9          3.4693  -17.3669  -49.0180 C.ar      23 UNK        -0.0193 
     10 C10         2.2033  -16.9024  -49.3735 C.ar      23 UNK        -0.1150 
     11 C11         1.2280  -17.7684  -49.8731 C.ar      23 UNK        -0.0193 
     12 C12         1.5495  -19.1261  -50.0303 C.ar      23 UNK        -0.1150 
     13 C13         2.8243  -19.6014  -49.6956 C.ar      23 UNK        -0.0193 
     14 C14         3.7786  -18.7157  -49.1891 C.ar      23 UNK        -0.1150 
     15 C15         3.1917  -21.0664  -49.8903 C.3       23 UNK        -0.0205 
     16 S16         3.4767  -21.9155  -48.3029 S.3       23 UNK        -0.2404 
     17 C17         1.7776  -22.0384  -47.6632 C.3       23 UNK        -0.0398 
     18 CA          1.4902  -23.4217  -47.0334 C.3       11 UNK         0.1400 
     19 N           2.2593  -23.6550  -45.8115 N.am      11 UNK        -0.5000 
     20 C           2.5326  -24.8628  -45.3008 C.2       10 UNK         0.5000 
     21 O           2.2271  -25.9228  -45.8468 O.2       10 UNK        -0.5000 
     22 CA          3.2567  -24.8936  -43.9408 C.3       10 UNK         0.1400 
     23 CB          4.7783  -24.9484  -44.1439 C.3       10 UNK        -0.1800 
     24 N           2.9289  -23.7464  -43.0922 N.am      10 UNK        -0.5000 
     25 C           1.7298  -23.5302  -42.5334 C.2       9 UNK         0.5000 
     26 O           0.7758  -24.3011  -42.6376 O.2       9 UNK        -0.5000 
     27 CA          1.5580  -22.2019  -41.7702 C.3       9 UNK         0.1400 
     28 CB          1.9963  -22.3603  -40.3067 C.3       9 UNK        -0.1800 
     29 N           2.2782  -21.0736  -42.3743 N.am      9 UNK        -0.5000 
     30 C           2.0638  -20.6155  -43.6144 C.2       8 UNK         0.5000 
     31 O           1.2789  -21.1432  -44.4056 O.2       8 UNK        -0.5000 
     32 CA          2.8977  -19.4033  -44.0683 C.3       8 UNK         0.1400 
     33 CB          4.2385  -19.8716  -44.6543 C.3       8 UNK        -0.1800 
     34 N           2.1887  -18.6323  -45.0880 N.am      8 UNK        -0.5000 
     35 C           1.0760  -17.9234  -44.8663 C.2       7 UNK         0.5000 
     36 O           0.5967  -17.7272  -43.7457 O.2       7 UNK        -0.5000 
     37 CA          0.3544  -17.4072  -46.1223 C.3       7 UNK         0.1400 
     38 CB         -0.4922  -18.5335  -46.7410 C.3       7 UNK        -0.1800 
     39 N          -0.5246  -16.2802  -45.8280 N.am      7 UNK        -0.5000 
     40 C          -0.1269  -15.0269  -45.5745 C.2       6 UNK         0.5000 
     41 O           1.0540  -14.6768  -45.5746 O.2       6 UNK        -0.5000 
     42 CA         -1.2423  -13.9888  -45.3176 C.3       6 UNK         0.1400 
     43 CB         -0.7922  -12.5433  -45.5992 C.3       6 UNK        -0.1800 
     44 N          -2.4359  -14.2773  -46.1185 N.am      6 UNK        -0.5000 
     45 C          -3.4768  -15.0160  -45.7141 C.2       5 UNK         0.5000 
     46 O          -3.5574  -15.4975  -44.5837 O.2       5 UNK        -0.5000 
     47 CA         -4.5740  -15.3328  -46.7526 C.3       5 UNK         0.1400 
     48 CB         -5.9781  -15.4168  -46.1173 C.3       5 UNK        -0.1800 
     49 N          -4.5779  -14.4597  -47.9330 N.am      5 UNK        -0.5000 
     50 C          -4.8738  -13.1519  -47.9909 C.2       4 UNK         0.5000 
     51 O          -5.1307  -12.4531  -47.0099 O.2       4 UNK        -0.5000 
     52 CA         -4.8812  -12.5502  -49.4099 C.3       4 UNK         0.1400 
     53 CB         -5.0848  -11.0200  -49.4452 C.3       4 UNK        -0.1800 
     54 N          -3.7046  -12.9822  -50.1726 N.am      4 UNK        -0.5000 
     55 C          -2.4356  -12.5928  -49.9999 C.2       3 UNK         0.5000 
     56 O          -2.0922  -11.6934  -49.2292 O.2       3 UNK        -0.5000 
     57 CA         -1.3807  -13.3468  -50.8406 C.3       3 UNK         0.1400 
     58 CB         -1.5831  -13.1006  -52.3452 C.3       3 UNK        -0.1800 
     59 N          -0.0175  -12.9511  -50.4804 N.am      3 UNK        -0.5000 
     60 C           0.5881  -13.2945  -49.3378 C.2       2 UNK         0.5000 
     61 O           0.1369  -14.1344  -48.5595 O.2       2 UNK        -0.5000 
     62 CA          1.8930  -12.5527  -49.0089 C.3       2 UNK         0.1400 
     63 CB          1.6294  -11.0453  -48.8041 C.3       2 UNK        -0.1800 
     64 N           2.5220  -13.1081  -47.8094 N.am      2 UNK        -0.5000 
     65 C           3.8002  -12.9070  -47.4672 C.2       1 UNK         0.5000 
     66 O           4.6055  -12.2955  -48.1749 O.2       1 UNK        -0.5000 
     67 C          -0.0095  -23.5904  -46.7424 C.2       11 UNK         0.5000 
     68 O          -0.6719  -24.3684  -47.4244 O.2       11 UNK        -0.5000 
     69 N          -0.5073  -22.8925  -45.7115 N.am      12 UNK        -0.5000 
     70 CA         -1.9151  -22.8555  -45.3007 C.3       12 UNK         0.1400 
     71 CB         -2.0618  -21.8590  -44.1412 C.3       12 UNK        -0.1800 
     72 C          -2.5147  -24.2243  -44.9167 C.2       12 UNK         0.5000 
     73 O          -3.7353  -24.3799  -44.9474 O.2       12 UNK        -0.5000 
     74 N          -1.6533  -25.1919  -44.5764 N.am      13 UNK        -0.5000 
     75 CA         -2.0047  -26.5918  -44.3481 C.3       13 UNK         0.1400 
     76 CB         -0.7963  -27.3069  -43.7241 C.3       13 UNK        -0.1800 
     77 C          -2.4692  -27.3320  -45.6215 C.2       13 UNK         0.5000 
     78 O          -3.2021  -28.3151  -45.5023 O.2       13 UNK        -0.5000 
     79 N          -2.0447  -26.8679  -46.8052 N.am      14 UNK        -0.5000 
     80 CA         -2.4543  -27.3996  -48.1022 C.3       14 UNK         0.1400 
     81 CB         -1.2576  -27.3579  -49.0653 C.3       14 UNK        -0.1800 
     82 C          -3.6121  -26.5589  -48.6577 C.2       14 UNK         0.5000 
     83 O          -3.5836  -25.3314  -48.5509 O.2       14 UNK        -0.5000 
     84 N          -4.5897  -27.2242  -49.2880 N.am      15 UNK        -0.5000 
     85 CA         -5.8109  -26.6187  -49.8348 C.3       15 UNK         0.1400 
     86 CB         -6.6864  -27.7191  -50.4525 C.3       15 UNK        -0.1800 
     87 C          -5.5616  -25.4937  -50.8595 C.2       15 UNK         0.5000 
     88 O          -6.3233  -24.5270  -50.9029 O.2       15 UNK        -0.5000 
     89 N          -4.4726  -25.6237  -51.6293 N.am      16 UNK        -0.5000 
     90 CA         -4.0331  -24.6703  -52.6478 C.3       16 UNK         0.1400 
     91 CB         -2.8457  -25.2740  -53.4134 C.3       16 UNK        -0.1800 
     92 C          -3.6635  -23.2779  -52.1002 C.2       16 UNK         0.5000 
     93 O          -3.7995  -22.3034  -52.8380 O.2       16 UNK        -0.5000 
     94 N          -3.2133  -23.2074  -50.8392 N.am      17 UNK        -0.5000 
     95 CA         -2.8454  -21.9638  -50.1554 C.3       17 UNK         0.1400 
     96 CB         -1.3394  -21.9651  -49.8653 C.3       17 UNK        -0.1800 
     97 C          -3.7007  -21.6893  -48.9054 C.2       17 UNK         0.5000 
     98 O          -3.5770  -20.6172  -48.3128 O.2       17 UNK        -0.5000 
     99 N          -4.6087  -22.6136  -48.5583 N.am      18 UNK        -0.5000 
    100 CA        -5.7736  -22.3347  -47.7164 C.3       18 UNK         0.1400 
    101 CB        -6.4556  -23.6502  -47.3161 C.3       18 UNK        -0.1800 
    102 C         -6.7635  -21.4098  -48.4544 C.2       18 UNK         0.5000 
    103 O         -7.3790  -20.5472  -47.8271 O.2       18 UNK        -0.5000 
    104 N         -6.8494  -21.5720  -49.7851 N.am      19 UNK        -0.5000 
    105 CA        -7.4124  -20.5971  -50.7152 C.3       19 UNK         0.1400 
    106 CB        -7.4993  -21.2268  -52.1139 C.3       19 UNK        -0.1800 
    107 C         -6.5314  -19.3335  -50.7301 C.2       19 UNK         0.5000 
    108 O         -5.3418  -19.4276  -51.0378 O.2       19 UNK        -0.5000 
    109 N         -7.1292  -18.1921  -50.3664 N.am      20 UNK        -0.5000 
    110 CA        -6.4584  -16.9399  -50.0012 C.3       20 UNK         0.1400 
    111 CB        -7.5334  -15.9011  -49.6459 C.3       20 UNK        -0.1800 
    112 C         -5.4852  -16.3529  -51.0411 C.2       20 UNK         0.5000 
    113 O         -4.5404  -15.6635  -50.6533 O.2       20 UNK        -0.5000 
    114 N         -5.7375  -16.6096  -52.3296 N.am      21 UNK        -0.5000 
    115 CA        -4.9123  -16.1373  -53.4417 C.3       21 UNK         0.1400 
    116 CB        -5.7396  -16.2117  -54.7345 C.3       21 UNK        -0.1800 
    117 C         -3.5897  -16.9128  -53.6064 C.2       21 UNK         0.5000 
    118 O         -2.6637  -16.3828  -54.2211 O.2       21 UNK        -0.5000 
    119 N         -3.5301  -18.1463  -53.0843 N.am      22 UNK        -0.5000 
    120 CA        -2.3940  -19.0820  -53.1887 C.3       22 UNK         0.1400 
    121 C         -2.0720  -19.5703  -54.6360 C.2       22 UNK         0.5000 
    122 N         -2.9942  -19.4721  -55.5865 N.am      22 UNK        -0.7600 
    123 O         -0.9818  -20.0684  -54.9048 O.2       22 UNK        -0.5000 
    124 C124       -1.1300  -18.6101  -52.4161 C.3       23 UNK        -0.0398 
    125 S125       -1.4674  -18.3354  -50.6443 S.3       23 UNK        -0.2404 
    126 C126       -0.1412  -17.1650  -50.2020 C.3       23 UNK        -0.0205 
    127 H127        6.3540  -10.6561  -44.1604 H         1 UNK         0.0600 
    128 H128        5.0287  -10.2506  -43.0663 H         1 UNK         0.0600 
    129 H129        5.2143   -9.3782  -44.5915 H         1 UNK         0.0600 
    130 H130        5.9845  -12.5148  -45.3229 H         1 UNK         0.3000 
    131 H131        3.4110  -13.7613  -45.5200 H         1 UNK         0.0600 
    132 H132        5.9417  -14.5639  -47.0622 H         1 UNK         0.0800 
    133 H133        5.7275  -14.9184  -45.3729 H         1 UNK         0.0800 
    134 H134        4.3997  -15.4386  -48.9243 H         1 UNK         0.0800 
    135 H135        5.5020  -16.7608  -48.6131 H         1 UNK         0.0800 
    136 H136        1.9695  -15.8580  -49.2328 H         1 UNK         0.1150 
    137 H137        0.8181  -19.8207  -50.4132 H         1 UNK         0.1150 
    138 H138        4.7590  -19.0817  -48.9176 H         1 UNK         0.1150 
    139 H139        2.4251  -21.5935  -50.4606 H         1 UNK         0.0800 
    140 H140        4.1042  -21.1235  -50.4853 H         1 UNK         0.0800 
    141 H141        1.0887  -21.8498  -48.4853 H         1 UNK         0.0800 
    142 H142        1.6212  -21.2318  -46.9480 H         1 UNK         0.0800 
    143 H143        1.7633  -24.1841  -47.7669 H         1 UNK         0.0600 
    144 H144        2.4938  -22.8349  -45.2708 H         1 UNK         0.3000 
    145 H145        2.9463  -25.8025  -43.4206 H         1 UNK         0.0600 
    146 H146        5.3007  -25.0419  -43.1917 H         1 UNK         0.0600 
    147 H147        5.0598  -25.8082  -44.7535 H         1 UNK         0.0600 
    148 H148        5.1503  -24.0543  -44.6461 H         1 UNK         0.0600 
    149 H149        3.6551  -23.0599  -42.9515 H         1 UNK         0.3000 
    150 H150        0.4944  -21.9559  -41.7806 H         1 UNK         0.0600 
    151 H151        3.0633  -22.5715  -40.2257 H         1 UNK         0.0600 
    152 H152        1.4617  -23.1806  -39.8256 H         1 UNK         0.0600 
    153 H153        1.7874  -21.4577  -39.7321 H         1 UNK         0.0600 
    154 H154        2.9487  -20.6013  -41.7849 H         1 UNK         0.3000 
    155 H155        3.0870  -18.7568  -43.2090 H         1 UNK         0.0600 
    156 H156        4.0961  -20.5215  -45.5187 H         1 UNK         0.0600 
    157 H157        4.8181  -20.4277  -43.9166 H         1 UNK         0.0600 
    158 H158        4.8467  -19.0240  -44.9715 H         1 UNK         0.0600 
    159 H159        2.5101  -18.7493  -46.0375 H         1 UNK         0.3000 
    160 H160        1.1001  -17.0784  -46.8472 H         1 UNK         0.0600 
    161 H161       -1.1869  -18.9609  -46.0170 H         1 UNK         0.0600 
    162 H162        0.1394  -19.3432  -47.1059 H         1 UNK         0.0600 
    163 H163       -1.0777  -18.1776  -47.5875 H         1 UNK         0.0600 
    164 H164       -1.5081  -16.4871  -45.7518 H         1 UNK         0.3000 
    165 H165       -1.4855  -14.0507  -44.2551 H         1 UNK         0.0600 
    166 H166       -1.5785  -11.8326  -45.3447 H         1 UNK         0.0600 
    167 H167        0.0866  -12.2777  -45.0099 H         1 UNK         0.0600 
    168 H168       -0.5418  -12.3959  -46.6489 H         1 UNK         0.0600 
    169 H169       -2.4167  -13.9509  -47.0742 H         1 UNK         0.3000 
    170 H170       -4.3336  -16.3278  -47.1299 H         1 UNK         0.0600 
    171 H171       -6.0142  -16.1863  -45.3453 H         1 UNK         0.0600 
    172 H172       -6.2694  -14.4757  -45.6505 H         1 UNK         0.0600 
    173 H173       -6.7348  -15.6728  -46.8570 H         1 UNK         0.0600 
    174 H174       -4.3649  -14.9205  -48.8126 H         1 UNK         0.3000 
    175 H175       -5.7389  -12.9917  -49.9188 H         1 UNK         0.0600 
    176 H176       -5.0454  -10.6396  -50.4658 H         1 UNK         0.0600 
    177 H177       -6.0596  -10.7527  -49.0361 H         1 UNK         0.0600 
    178 H178       -4.3354  -10.4894  -48.8580 H         1 UNK         0.0600 
    179 H179       -3.8741  -13.7814  -50.7749 H         1 UNK         0.3000 
    180 H180       -1.5002  -14.4147  -50.6458 H         1 UNK         0.0600 
    181 H181       -1.5107  -12.0410  -52.5932 H         1 UNK         0.0600 
    182 H182       -2.5612  -13.4508  -52.6772 H         1 UNK         0.0600 
    183 H183       -0.8383  -13.6361  -52.9346 H         1 UNK         0.0600 
    184 H184        0.4001  -12.2333  -51.0536 H         1 UNK         0.3000 
    185 H185        2.5670  -12.6918  -49.8566 H         1 UNK         0.0600 
    186 H186        1.1640  -10.5955  -49.6815 H         1 UNK         0.0600 
    187 H187        0.9658  -10.8697  -47.9566 H         1 UNK         0.0600 
    188 H188        2.5531  -10.4966  -48.6210 H         1 UNK         0.0600 
    189 H189        1.9097  -13.6590  -47.2115 H         1 UNK         0.3000 
    190 H190        0.1227  -22.2838  -45.1914 H         1 UNK         0.3000 
    191 H191       -2.4907  -22.4811  -46.1494 H         1 UNK         0.0600 
    192 H192       -1.7084  -20.8673  -44.4243 H         1 UNK         0.0600 
    193 H193       -3.1051  -21.7591  -43.8393 H         1 UNK         0.0600 
    194 H194       -1.4940  -22.1796  -43.2672 H         1 UNK         0.0600 
    195 H195       -0.6721  -24.9556  -44.5205 H         1 UNK         0.3000 
    196 H196       -2.8280  -26.6208  -43.6315 H         1 UNK         0.0600 
    197 H197       -1.0230  -28.3537  -43.5182 H         1 UNK         0.0600 
    198 H198       -0.5094  -26.8451  -42.7791 H         1 UNK         0.0600 
    199 H199        0.0704  -27.2812  -44.3861 H         1 UNK         0.0600 
    200 H200       -1.5215  -25.9966  -46.8412 H         1 UNK         0.3000 
    201 H201       -2.7762  -28.4380  -48.0005 H         1 UNK         0.0600 
    202 H202       -1.5184  -27.7915  -50.0314 H         1 UNK         0.0600 
    203 H203       -0.9176  -26.3374  -49.2460 H         1 UNK         0.0600 
    204 H204       -0.4146  -27.9250  -48.6704 H         1 UNK         0.0600 
    205 H205       -4.5274  -28.2302  -49.3525 H         1 UNK         0.3000 
    206 H206       -6.3585  -26.1864  -48.9971 H         1 UNK         0.0600 
    207 H207       -6.9587  -28.4705  -49.7110 H         1 UNK         0.0600 
    208 H208       -7.6148  -27.3042  -50.8475 H         1 UNK         0.0600 
    209 H209       -6.1774  -28.2254  -51.2737 H         1 UNK         0.0600 
    210 H210       -3.9028  -26.4475  -51.5067 H         1 UNK         0.3000 
    211 H211       -4.8588  -24.5341  -53.3494 H         1 UNK         0.0600 
    212 H212       -1.9973  -25.4634  -52.7544 H         1 UNK         0.0600 
    213 H213       -2.5053  -24.6004  -54.2012 H         1 UNK         0.0600 
    214 H214       -3.1196  -26.2157  -53.8895 H         1 UNK         0.0600 
    215 H215       -3.1402  -24.0578  -50.2929 H         1 UNK         0.3000 
    216 H216       -3.0461  -21.1072  -50.7977 H         1 UNK         0.0600 
    217 H217       -1.0643  -21.1587  -49.1843 H         1 UNK         0.0600 
    218 H218       -0.7704  -21.8231  -50.7840 H         1 UNK         0.0600 
    219 H219       -1.0216  -22.9070  -49.4269 H         1 UNK         0.0600 
    220 H220       -4.5728  -23.5250  -48.9952 H         1 UNK         0.3000 
    221 H221       -5.4324  -21.8309  -46.8095 H         1 UNK         0.0600 
    222 H222       -6.9366  -24.1276  -48.1690 H         1 UNK         0.0600 
    223 H223       -5.7428  -24.3556  -46.8884 H         1 UNK         0.0600 
    224 H224       -7.2275  -23.4711  -46.5670 H         1 UNK         0.0600 
    225 H225       -6.3302  -22.3325  -50.2041 H         1 UNK         0.3000 
    226 H226       -8.4209  -20.3417  -50.3838 H         1 UNK         0.0600 
    227 H227       -7.9317  -20.5279  -52.8308 H         1 UNK         0.0600 
    228 H228       -6.5161  -21.5160  -52.4880 H         1 UNK         0.0600 
    229 H229       -8.1270  -22.1182  -52.1063 H         1 UNK         0.0600 
    230 H230       -8.1157  -18.2272  -50.1536 H         1 UNK         0.3000 
    231 H231       -5.8731  -17.1469  -49.1033 H         1 UNK         0.0600 
    232 H232       -8.1753  -15.6811  -50.4999 H         1 UNK         0.0600 
    233 H233       -7.0872  -14.9609  -49.3230 H         1 UNK         0.0600 
    234 H234       -8.1684  -16.2509  -48.8319 H         1 UNK         0.0600 
    235 H235       -6.5336  -17.1862  -52.5587 H         1 UNK         0.3000 
    236 H236       -4.6566  -15.0905  -53.2638 H         1 UNK         0.0600 
    237 H237       -6.6391  -15.6000  -54.6625 H         1 UNK         0.0600 
    238 H238       -5.1670  -15.8450  -55.5876 H         1 UNK         0.0600 
    239 H239       -6.0453  -17.2343  -54.9590 H         1 UNK         0.0600 
    240 H240       -4.3143  -18.4861  -52.5371 H         1 UNK         0.3000 
    241 H241       -2.7392  -19.9831  -52.6904 H         1 UNK         0.0600 
    242 H242       -3.9011  -19.0865  -55.3810 H         1 UNK         0.3800 
    243 H243       -2.7842  -19.7970  -56.5170 H         1 UNK         0.3800 
    244 H244       -0.7322  -17.6985  -52.8631 H         1 UNK         0.0800 
    245 H245       -0.3364  -19.3552  -52.4838 H         1 UNK         0.0800 
    246 H246       -0.0258  -16.4280  -50.9975 H         1 UNK         0.0800 
    247 H247       -0.4851  -16.6104  -49.3283 H         1 UNK         0.0800 
@<TRIPOS>BOND
     1    1    2 1    
     2    1  127 1    
     3    1  128 1    
     4    1  129 1    
     5    2    3 2    
     6    2    4 am   BACKBONE|DICT|INTERRES
     7    4    5 1    
     8    4  130 1    
     9    5    6 1    
    10    5   65 1    
    11    5  131 1    
    12    6    7 1    
    13    6  132 1    
    14    6  133 1    
    15    7    8 1    
    16    8    9 1    
    17    8  134 1    
    18    8  135 1    
    19    9   10 ar   
    20    9   14 ar   
    21   10   11 ar   
    22   10  136 1    
    23   11   12 ar   
    24   11  126 1    
    25   12   13 ar   
    26   12  137 1    
    27   13   14 ar   
    28   13   15 1    
    29   14  138 1    
    30   15   16 1    
    31   15  139 1    
    32   15  140 1    
    33   16   17 1    
    34   17   18 1    
    35   17  141 1    
    36   17  142 1    
    37   18   19 1    
    38   18   67 1    
    39   18  143 1    
    40   19   20 am   BACKBONE|DICT|INTERRES
    41   19  144 1    
    42   20   21 2    
    43   20   22 1    
    44   22   23 1    
    45   22   24 1    
    46   22  145 1    
    47   23  146 1    
    48   23  147 1    
    49   23  148 1    
    50   24   25 am   BACKBONE|DICT|INTERRES
    51   24  149 1    
    52   25   26 2    
    53   25   27 1    
    54   27   28 1    
    55   27   29 1    
    56   27  150 1    
    57   28  151 1    
    58   28  152 1    
    59   28  153 1    
    60   29   30 am   BACKBONE|DICT|INTERRES
    61   29  154 1    
    62   30   31 2    
    63   30   32 1    
    64   32   33 1    
    65   32   34 1    
    66   32  155 1    
    67   33  156 1    
    68   33  157 1    
    69   33  158 1    
    70   34   35 am   BACKBONE|DICT|INTERRES
    71   34  159 1    
    72   35   36 2    
    73   35   37 1    
    74   37   38 1    
    75   37   39 1    
    76   37  160 1    
    77   38  161 1    
    78   38  162 1    
    79   38  163 1    
    80   39   40 am   BACKBONE|DICT|INTERRES
    81   39  164 1    
    82   40   41 2    
    83   40   42 1    
    84   42   43 1    
    85   42   44 1    
    86   42  165 1    
    87   43  166 1    
    88   43  167 1    
    89   43  168 1    
    90   44   45 am   BACKBONE|DICT|INTERRES
    91   44  169 1    
    92   45   46 2    
    93   45   47 1    
    94   47   48 1    
    95   47   49 1    
    96   47  170 1    
    97   48  171 1    
    98   48  172 1    
    99   48  173 1    
   100   49   50 am   BACKBONE|DICT|INTERRES
   101   49  174 1    
   102   50   51 2    
   103   50   52 1    
   104   52   53 1    
   105   52   54 1    
   106   52  175 1    
   107   53  176 1    
   108   53  177 1    
   109   53  178 1    
   110   54   55 am   BACKBONE|DICT|INTERRES
   111   54  179 1    
   112   55   56 2    
   113   55   57 1    
   114   57   58 1    
   115   57   59 1    
   116   57  180 1    
   117   58  181 1    
   118   58  182 1    
   119   58  183 1    
   120   59   60 am   BACKBONE|DICT|INTERRES
   121   59  184 1    
   122   60   61 2    
   123   60   62 1    
   124   62   63 1    
   125   62   64 1    
   126   62  185 1    
   127   63  186 1    
   128   63  187 1    
   129   63  188 1    
   130   64   65 am   BACKBONE|DICT|INTERRES
   131   64  189 1    
   132   65   66 2    
   133   67   68 2    
   134   67   69 am   BACKBONE|DICT|INTERRES
   135   69   70 1    
   136   69  190 1    
   137   70   71 1    
   138   70   72 1    
   139   70  191 1    
   140   71  192 1    
   141   71  193 1    
   142   71  194 1    
   143   72   73 2    
   144   72   74 am   BACKBONE|DICT|INTERRES
   145   74   75 1    
   146   74  195 1    
   147   75   76 1    
   148   75   77 1    
   149   75  196 1    
   150   76  197 1    
   151   76  198 1    
   152   76  199 1    
   153   77   78 2    
   154   77   79 am   BACKBONE|DICT|INTERRES
   155   79   80 1    
   156   79  200 1    
   157   80   81 1    
   158   80   82 1    
   159   80  201 1    
   160   81  202 1    
   161   81  203 1    
   162   81  204 1    
   163   82   83 2    
   164   82   84 am   BACKBONE|DICT|INTERRES
   165   84   85 1    
   166   84  205 1    
   167   85   86 1    
   168   85   87 1    
   169   85  206 1    
   170   86  207 1    
   171   86  208 1    
   172   86  209 1    
   173   87   88 2    
   174   87   89 am   BACKBONE|DICT|INTERRES
   175   89   90 1    
   176   89  210 1    
   177   90   91 1    
   178   90   92 1    
   179   90  211 1    
   180   91  212 1    
   181   91  213 1    
   182   91  214 1    
   183   92   93 2    
   184   92   94 am   BACKBONE|DICT|INTERRES
   185   94   95 1    
   186   94  215 1    
   187   95   96 1    
   188   95   97 1    
   189   95  216 1    
   190   96  217 1    
   191   96  218 1    
   192   96  219 1    
   193   97   98 2    
   194   97   99 am   BACKBONE|DICT|INTERRES
   195   99  100 1    
   196   99  220 1    
   197  100  101 1    
   198  100  102 1    
   199  100  221 1    
   200  101  222 1    
   201  101  223 1    
   202  101  224 1    
   203  102  103 2    
   204  102  104 am   BACKBONE|DICT|INTERRES
   205  104  105 1    
   206  104  225 1    
   207  105  106 1    
   208  105  107 1    
   209  105  226 1    
   210  106  227 1    
   211  106  228 1    
   212  106  229 1    
   213  107  108 2    
   214  107  109 am   BACKBONE|DICT|INTERRES
   215  109  110 1    
   216  109  230 1    
   217  110  111 1    
   218  110  112 1    
   219  110  231 1    
   220  111  232 1    
   221  111  233 1    
   222  111  234 1    
   223  112  113 2    
   224  112  114 am   BACKBONE|DICT|INTERRES
   225  114  115 1    
   226  114  235 1    
   227  115  116 1    
   228  115  117 1    
   229  115  236 1    
   230  116  237 1    
   231  116  238 1    
   232  116  239 1    
   233  117  118 2    
   234  117  119 am   BACKBONE|DICT|INTERRES
   235  119  120 1    
   236  119  240 1    
   237  120  121 1    
   238  120  124 1    
   239  120  241 1    
   240  121  122 am   BACKBONE|DICT|INTERRES
   241  121  123 2    
   242  122  242 1    
   243  122  243 1    
   244  124  125 1    
   245  124  244 1    
   246  124  245 1    
   247  125  126 1    
   248  126  246 1    
   249  126  247 1    
@<TRIPOS>SUBSTRUCTURE
     1 UNK         1 GROUP             0       ****    0 ROOT    
