@<TRIPOS>MOLECULE
3R540
247   249    1
SMALL
USER_CHARGES


@<TRIPOS>ATOM
      1 CA          6.4887  -10.2271  -50.4903 C.3       0 UNK        -0.1800 
      2 C           5.3857  -10.8533  -49.6482 C.2       0 UNK         0.5000 
      3 O           4.9343  -10.2431  -48.6785 O.2       0 UNK        -0.5000 
      4 N           4.9597  -12.0696  -50.0083 N.am      1 UNK        -0.5000 
      5 CA          3.8760  -12.8087  -49.3549 C.3       1 UNK         0.1400 
      6 C6          3.8037  -14.2739  -49.8429 C.3       23 UNK        -0.0398 
      7 S7          5.2856  -15.2596  -49.4291 S.3       23 UNK        -0.2404 
      8 C8          4.5669  -16.7154  -48.5870 C.3       23 UNK        -0.0205 
      9 C9          4.0694  -17.8100  -49.5327 C.ar      23 UNK        -0.0193 
     10 C10         3.2741  -17.5098  -50.6436 C.ar      23 UNK        -0.1150 
     11 C11         2.8271  -18.5135  -51.5026 C.ar      23 UNK        -0.0193 
     12 C12         3.1485  -19.8443  -51.2328 C.ar      23 UNK        -0.1150 
     13 C13         3.9277  -20.1688  -50.1191 C.ar      23 UNK        -0.0193 
     14 C14         4.3890  -19.1490  -49.2781 C.ar      23 UNK        -0.1150 
     15 C15         4.2856  -21.6211  -49.8400 C.3       23 UNK        -0.0205 
     16 S16         3.4632  -22.2653  -48.3510 S.3       23 UNK        -0.2404 
     17 C17         1.6967  -22.1051  -48.7866 C.3       23 UNK        -0.0398 
     18 CA          0.8113  -22.9474  -47.8397 C.3       11 UNK         0.1400 
     19 N           0.8617  -22.4726  -46.4529 N.am      11 UNK        -0.5000 
     20 C           0.4176  -23.1772  -45.4039 C.2       10 UNK         0.5000 
     21 O          -0.0579  -24.3091  -45.4975 O.2       10 UNK        -0.5000 
     22 CA          0.4721  -22.4909  -44.0279 C.3       10 UNK         0.1400 
     23 CB          1.8920  -22.5467  -43.4451 C.3       10 UNK        -0.1800 
     24 N           0.0030  -21.1048  -44.0699 N.am      10 UNK        -0.5000 
     25 C          -1.2520  -20.7397  -44.3695 C.2       9 UNK         0.5000 
     26 O          -2.1550  -21.5414  -44.6020 O.2       9 UNK        -0.5000 
     27 CA         -1.5448  -19.2318  -44.4740 C.3       9 UNK         0.1400 
     28 CB         -1.7595  -18.6144  -43.0848 C.3       9 UNK        -0.1800 
     29 N          -0.4974  -18.4986  -45.1818 N.am      9 UNK        -0.5000 
     30 C          -0.1494  -18.7058  -46.4600 C.2       8 UNK         0.5000 
     31 O          -0.7004  -19.5188  -47.2000 O.2       8 UNK        -0.5000 
     32 CA          1.0555  -17.9070  -46.9812 C.3       8 UNK         0.1400 
     33 CB          0.6315  -16.4809  -47.3569 C.3       8 UNK        -0.1800 
     34 N           2.1433  -17.8661  -46.0024 N.am      8 UNK        -0.5000 
     35 C           2.8305  -18.9466  -45.6034 C.2       7 UNK         0.5000 
     36 O           2.6261  -20.0822  -46.0281 O.2       7 UNK        -0.5000 
     37 CA          3.8840  -18.7280  -44.5039 C.3       7 UNK         0.1400 
     38 CB          5.1578  -18.0932  -45.0811 C.3       7 UNK        -0.1800 
     39 N           3.3786  -17.9007  -43.4085 N.am      7 UNK        -0.5000 
     40 C           2.3955  -18.2692  -42.5747 C.2       6 UNK         0.5000 
     41 O           1.8355  -19.3633  -42.6177 O.2       6 UNK        -0.5000 
     42 CA          1.9306  -17.2225  -41.5460 C.3       6 UNK         0.1400 
     43 CB          2.7871  -17.2986  -40.2734 C.3       6 UNK        -0.1800 
     44 N           1.9461  -15.8510  -42.0620 N.am      6 UNK        -0.5000 
     45 C           1.2166  -15.4202  -43.0993 C.2       5 UNK         0.5000 
     46 O           0.4859  -16.1491  -43.7740 O.2       5 UNK        -0.5000 
     47 CA          1.3784  -13.9393  -43.4768 C.3       5 UNK         0.1400 
     48 CB          2.4278  -13.7892  -44.5905 C.3       5 UNK        -0.1800 
     49 N           0.1083  -13.3635  -43.9176 N.am      5 UNK        -0.5000 
     50 C          -0.9112  -13.0689  -43.0962 C.2       4 UNK         0.5000 
     51 O          -0.8551  -13.2126  -41.8736 O.2       4 UNK        -0.5000 
     52 CA         -2.2026  -12.4930  -43.7157 C.3       4 UNK         0.1400 
     53 CB         -2.2829  -10.9777  -43.4716 C.3       4 UNK        -0.1800 
     54 N          -2.3293  -12.7391  -45.1510 N.am      4 UNK        -0.5000 
     55 C          -2.6459  -13.9163  -45.7056 C.2       3 UNK         0.5000 
     56 O          -2.9520  -14.9162  -45.0561 O.2       3 UNK        -0.5000 
     57 CA         -2.6158  -13.9941  -47.2480 C.3       3 UNK         0.1400 
     58 CB         -4.0433  -13.8994  -47.8075 C.3       3 UNK        -0.1800 
     59 N          -1.7811  -12.9885  -47.9218 N.am      3 UNK        -0.5000 
     60 C          -0.4731  -12.7961  -47.7092 C.2       2 UNK         0.5000 
     61 O           0.1608  -13.3461  -46.8064 O.2       2 UNK        -0.5000 
     62 CA          0.2492  -11.8007  -48.6247 C.3       2 UNK         0.1400 
     63 CB          0.0444  -10.3550  -48.1448 C.3       2 UNK        -0.1800 
     64 N           1.6661  -12.1361  -48.5717 N.am      2 UNK        -0.5000 
     65 C           2.5118  -12.1328  -49.6017 C.2       1 UNK         0.5000 
     66 O           2.2304  -11.7006  -50.7229 O.2       1 UNK        -0.5000 
     67 C          -0.6387  -23.0665  -48.3574 C.2       11 UNK         0.5000 
     68 O          -0.9383  -24.0118  -49.0868 O.2       11 UNK        -0.5000 
     69 N          -1.5270  -22.1535  -47.9376 N.am      12 UNK        -0.5000 
     70 CA         -2.9629  -22.2242  -48.2085 C.3       12 UNK         0.1400 
     71 CB         -3.6356  -20.8887  -47.8591 C.3       12 UNK        -0.1800 
     72 C          -3.6418  -23.3932  -47.4733 C.2       12 UNK         0.5000 
     73 O          -4.4529  -24.0949  -48.0749 O.2       12 UNK        -0.5000 
     74 N          -3.2743  -23.6228  -46.2046 N.am      13 UNK        -0.5000 
     75 CA         -3.7417  -24.7538  -45.3983 C.3       13 UNK         0.1400 
     76 CB         -3.2720  -24.5933  -43.9454 C.3       13 UNK        -0.1800 
     77 C          -3.3047  -26.1147  -45.9715 C.2       13 UNK         0.5000 
     78 O          -4.0991  -27.0551  -45.9678 O.2       13 UNK        -0.5000 
     79 N          -2.0821  -26.1824  -46.5180 N.am      14 UNK        -0.5000 
     80 CA         -1.5607  -27.3374  -47.2562 C.3       14 UNK         0.1400 
     81 CB         -0.0622  -27.1365  -47.5261 C.3       14 UNK        -0.1800 
     82 C          -2.3236  -27.6179  -48.5695 C.2       14 UNK         0.5000 
     83 O          -2.3873  -28.7702  -48.9980 O.2       14 UNK        -0.5000 
     84 N          -2.9258  -26.5742  -49.1554 N.am      15 UNK        -0.5000 
     85 CA         -3.8320  -26.6376  -50.3043 C.3       15 UNK         0.1400 
     86 CB         -3.6176  -25.3847  -51.1725 C.3       15 UNK        -0.1800 
     87 C          -5.3115  -26.7856  -49.8803 C.2       15 UNK         0.5000 
     88 O          -6.2003  -26.5784  -50.7077 O.2       15 UNK        -0.5000 
     89 N          -5.5620  -27.1126  -48.6015 N.am      16 UNK        -0.5000 
     90 CA         -6.8687  -27.3247  -47.9656 C.3       16 UNK         0.1400 
     91 CB         -7.5559  -28.5758  -48.5515 C.3       16 UNK        -0.1800 
     92 C          -7.7844  -26.0814  -47.9843 C.2       16 UNK         0.5000 
     93 O          -9.0074  -26.2222  -47.9367 O.2       16 UNK        -0.5000 
     94 N          -7.1761  -24.8886  -48.0718 N.am      17 UNK        -0.5000 
     95 CA         -7.7956  -23.5667  -48.2069 C.3       17 UNK         0.1400 
     96 CB         -8.6249  -23.2123  -46.9556 C.3       17 UNK        -0.1800 
     97 C          -8.5829  -23.3685  -49.5217 C.2       17 UNK         0.5000 
     98 O          -9.3427  -22.4047  -49.6315 O.2       17 UNK        -0.5000 
     99 N          -8.3759  -24.2515  -50.5106 N.am      18 UNK        -0.5000 
    100 CA        -8.9745  -24.1575  -51.8449 C.3       18 UNK         0.1400 
    101 CB        -8.9590  -25.5481  -52.4977 C.3       18 UNK        -0.1800 
    102 C         -8.2534  -23.1316  -52.7413 C.2       18 UNK         0.5000 
    103 O         -8.8247  -22.6804  -53.7347 O.2       18 UNK        -0.5000 
    104 N         -7.0173  -22.7835  -52.3725 N.am      19 UNK        -0.5000 
    105 CA        -6.1432  -21.8138  -53.0162 C.3       19 UNK         0.1400 
    106 CB        -5.4348  -22.4974  -54.2020 C.3       19 UNK        -0.1800 
    107 C         -5.1390  -21.3226  -51.9512 C.2       19 UNK         0.5000 
    108 O         -5.0431  -21.9522  -50.8965 O.2       19 UNK        -0.5000 
    109 N         -4.3737  -20.2458  -52.1727 N.am      20 UNK        -0.5000 
    110 CA        -4.3873  -19.3380  -53.3254 C.3       20 UNK         0.1400 
    111 CB        -3.0593  -19.4980  -54.0865 C.3       20 UNK        -0.1800 
    112 C         -4.5718  -17.8661  -52.9073 C.2       20 UNK         0.5000 
    113 O         -4.8127  -17.0322  -53.7804 O.2       20 UNK        -0.5000 
    114 N         -4.4259  -17.5630  -51.6042 N.am      21 UNK        -0.5000 
    115 CA        -4.4016  -16.2159  -51.0063 C.3       21 UNK         0.1400 
    116 CB        -5.7956  -15.5585  -51.0826 C.3       21 UNK        -0.1800 
    117 C         -3.2778  -15.3176  -51.5799 C.2       21 UNK         0.5000 
    118 O         -3.4391  -14.1007  -51.6876 O.2       21 UNK        -0.5000 
    119 N         -2.1712  -15.9579  -51.9683 N.am      22 UNK        -0.5000 
    120 CA        -1.0076  -15.3695  -52.6370 C.3       22 UNK         0.1400 
    121 C         -0.1228  -14.4840  -51.7139 C.2       22 UNK         0.5000 
    122 N          0.5657  -13.5006  -52.2800 N.am      22 UNK        -0.7600 
    123 O         -0.0345  -14.6887  -50.5062 O.2       22 UNK        -0.5000 
    124 C124       -0.1939  -16.4717  -53.3658 C.3       23 UNK        -0.0398 
    125 S125        0.2687  -17.8811  -52.2903 S.3       23 UNK        -0.2404 
    126 C126        2.0132  -18.1390  -52.7278 C.3       23 UNK        -0.0205 
    127 H127        6.1431   -9.2879  -50.9224 H         1 UNK         0.0600 
    128 H128        6.7986  -10.8823  -51.3049 H         1 UNK         0.0600 
    129 H129        7.3612  -10.0185  -49.8713 H         1 UNK         0.0600 
    130 H130        5.3651  -12.5169  -50.8176 H         1 UNK         0.3000 
    131 H131        4.0728  -12.8115  -48.2803 H         1 UNK         0.0600 
    132 H132        3.6665  -14.3028  -50.9257 H         1 UNK         0.0800 
    133 H133        2.9268  -14.7618  -49.4130 H         1 UNK         0.0800 
    134 H134        5.3444  -17.1223  -47.9399 H         1 UNK         0.0800 
    135 H135        3.7589  -16.4053  -47.9258 H         1 UNK         0.0800 
    136 H136        2.9934  -16.4945  -50.8644 H         1 UNK         0.1150 
    137 H137        2.7967  -20.6246  -51.8931 H         1 UNK         0.1150 
    138 H138        4.9900  -19.4065  -48.4173 H         1 UNK         0.1150 
    139 H139        4.0339  -22.2563  -50.6907 H         1 UNK         0.0800 
    140 H140        5.3654  -21.7025  -49.7083 H         1 UNK         0.0800 
    141 H141        1.5694  -22.4278  -49.8215 H         1 UNK         0.0800 
    142 H142        1.4128  -21.0516  -48.7477 H         1 UNK         0.0800 
    143 H143        1.2139  -23.9630  -47.8425 H         1 UNK         0.0600 
    144 H144        1.2926  -21.5657  -46.2973 H         1 UNK         0.3000 
    145 H145       -0.1879  -23.0443  -43.3569 H         1 UNK         0.0600 
    146 H146        2.2581  -23.5733  -43.4051 H         1 UNK         0.0600 
    147 H147        2.5973  -21.9691  -44.0431 H         1 UNK         0.0600 
    148 H148        1.9155  -22.1537  -42.4287 H         1 UNK         0.0600 
    149 H149        0.6839  -20.3880  -43.8374 H         1 UNK         0.3000 
    150 H150       -2.4691  -19.1120  -45.0426 H         1 UNK         0.0600 
    151 H151       -2.0210  -17.5584  -43.1597 H         1 UNK         0.0600 
    152 H152       -0.8658  -18.6945  -42.4664 H         1 UNK         0.0600 
    153 H153       -2.5713  -19.1157  -42.5564 H         1 UNK         0.0600 
    154 H154       -0.0189  -17.7698  -44.6582 H         1 UNK         0.3000 
    155 H155        1.4281  -18.4020  -47.8811 H         1 UNK         0.0600 
    156 H156       -0.1321  -16.4940  -48.1357 H         1 UNK         0.0600 
    157 H157        1.4665  -15.8959  -47.7388 H         1 UNK         0.0600 
    158 H158        0.2148  -15.9507  -46.5003 H         1 UNK         0.0600 
    159 H159        2.3147  -16.9825  -45.5480 H         1 UNK         0.3000 
    160 H160        4.1466  -19.7069  -44.0967 H         1 UNK         0.0600 
    161 H161        5.5503  -18.6888  -45.9064 H         1 UNK         0.0600 
    162 H162        5.9419  -18.0305  -44.3265 H         1 UNK         0.0600 
    163 H163        4.9741  -17.0861  -45.4568 H         1 UNK         0.0600 
    164 H164        3.7840  -16.9833  -43.2991 H         1 UNK         0.3000 
    165 H165        0.9002  -17.4619  -41.2762 H         1 UNK         0.0600 
    166 H166        2.4096  -16.6264  -39.5027 H         1 UNK         0.0600 
    167 H167        2.7771  -18.3066  -39.8563 H         1 UNK         0.0600 
    168 H168        3.8271  -17.0351  -40.4702 H         1 UNK         0.0600 
    169 H169        2.5310  -15.1930  -41.5673 H         1 UNK         0.3000 
    170 H170        1.7220  -13.3817  -42.6029 H         1 UNK         0.0600 
    171 H171        2.5198  -12.7511  -44.9102 H         1 UNK         0.0600 
    172 H172        3.4109  -14.1120  -44.2462 H         1 UNK         0.0600 
    173 H173        2.1771  -14.3888  -45.4661 H         1 UNK         0.0600 
    174 H174       -0.0207  -13.2862  -44.9229 H         1 UNK         0.3000 
    175 H175       -3.0467  -12.9648  -43.2083 H         1 UNK         0.0600 
    176 H176       -1.4669  -10.4474  -43.9643 H         1 UNK         0.0600 
    177 H177       -3.2229  -10.5673  -43.8410 H         1 UNK         0.0600 
    178 H178       -2.2270  -10.7490  -42.4064 H         1 UNK         0.0600 
    179 H179       -2.0879  -11.9760  -45.7653 H         1 UNK         0.3000 
    180 H180       -2.2099  -14.9731  -47.5104 H         1 UNK         0.0600 
    181 H181       -4.0503  -13.9980  -48.8918 H         1 UNK         0.0600 
    182 H182       -4.5089  -12.9453  -47.5571 H         1 UNK         0.0600 
    183 H183       -4.6766  -14.6908  -47.4044 H         1 UNK         0.0600 
    184 H184       -2.2253  -12.4807  -48.6730 H         1 UNK         0.3000 
    185 H185       -0.1352  -11.9170  -49.6402 H         1 UNK         0.0600 
    186 H186        0.3925  -10.2182  -47.1200 H         1 UNK         0.0600 
    187 H187        0.5855   -9.6516  -48.7780 H         1 UNK         0.0600 
    188 H188       -1.0095  -10.0765  -48.1759 H         1 UNK         0.0600 
    189 H189        1.9309  -12.5829  -47.7023 H         1 UNK         0.3000 
    190 H190       -1.2021  -21.3539  -47.4006 H         1 UNK         0.3000 
    191 H191       -3.0851  -22.3942  -49.2790 H         1 UNK         0.0600 
    192 H192       -3.5334  -20.6485  -46.8010 H         1 UNK         0.0600 
    193 H193       -4.7012  -20.9195  -48.0898 H         1 UNK         0.0600 
    194 H194       -3.2027  -20.0688  -48.4322 H         1 UNK         0.0600 
    195 H195       -2.6521  -22.9630  -45.7447 H         1 UNK         0.3000 
    196 H196       -4.8335  -24.7318  -45.4033 H         1 UNK         0.0600 
    197 H197       -3.6341  -25.4141  -43.3252 H         1 UNK         0.0600 
    198 H198       -3.6479  -23.6671  -43.5103 H         1 UNK         0.0600 
    199 H199       -2.1849  -24.5805  -43.8707 H         1 UNK         0.0600 
    200 H200       -1.4605  -25.3858  -46.4146 H         1 UNK         0.3000 
    201 H201       -1.6741  -28.2165  -46.6185 H         1 UNK         0.0600 
    202 H202        0.4894  -26.9839  -46.5982 H         1 UNK         0.0600 
    203 H203        0.1203  -26.2760  -48.1691 H         1 UNK         0.0600 
    204 H204        0.3656  -28.0100  -48.0196 H         1 UNK         0.0600 
    205 H205       -2.8182  -25.6604  -48.7339 H         1 UNK         0.3000 
    206 H206       -3.5866  -27.5104  -50.9122 H         1 UNK         0.0600 
    207 H207       -4.2111  -25.4299  -52.0864 H         1 UNK         0.0600 
    208 H208       -3.9010  -24.4743  -50.6449 H         1 UNK         0.0600 
    209 H209       -2.5734  -25.2847  -51.4692 H         1 UNK         0.0600 
    210 H210       -4.7715  -27.2058  -47.9750 H         1 UNK         0.3000 
    211 H211       -6.6632  -27.5263  -46.9136 H         1 UNK         0.0600 
    212 H212       -7.8600  -28.4229  -49.5875 H         1 UNK         0.0600 
    213 H213       -8.4502  -28.8351  -47.9837 H         1 UNK         0.0600 
    214 H214       -6.8930  -29.4405  -48.5202 H         1 UNK         0.0600 
    215 H215       -6.1588  -24.8732  -48.1136 H         1 UNK         0.3000 
    216 H216       -6.9663  -22.8596  -48.2565 H         1 UNK         0.0600 
    217 H217       -8.9452  -22.1703  -46.9805 H         1 UNK         0.0600 
    218 H218       -8.0410  -23.3481  -46.0452 H         1 UNK         0.0600 
    219 H219       -9.5222  -23.8261  -46.8751 H         1 UNK         0.0600 
    220 H220       -7.7291  -25.0172  -50.3588 H         1 UNK         0.3000 
    221 H221      -10.0146  -23.8405  -51.7443 H         1 UNK         0.0600 
    222 H222       -7.9414  -25.9007  -52.6697 H         1 UNK         0.0600 
    223 H223       -9.4681  -26.2836  -51.8745 H         1 UNK         0.0600 
    224 H224       -9.4666  -25.5312  -53.4630 H         1 UNK         0.0600 
    225 H225       -6.6367  -23.1570  -51.5113 H         1 UNK         0.3000 
    226 H226       -6.7531  -20.9764  -53.3580 H         1 UNK         0.0600 
    227 H227       -6.1536  -22.9321  -54.8968 H         1 UNK         0.0600 
    228 H228       -4.8330  -21.7935  -54.7737 H         1 UNK         0.0600 
    229 H229       -4.7744  -23.2975  -53.8648 H         1 UNK         0.0600 
    230 H230       -3.6871  -20.0276  -51.4678 H         1 UNK         0.3000 
    231 H231       -5.2034  -19.5632  -54.0105 H         1 UNK         0.0600 
    232 H232       -2.2060  -19.2268  -53.4646 H         1 UNK         0.0600 
    233 H233       -2.9076  -20.5240  -54.4202 H         1 UNK         0.0600 
    234 H234       -3.0337  -18.8623  -54.9726 H         1 UNK         0.0600 
    235 H235       -4.2799  -18.3223  -50.9564 H         1 UNK         0.3000 
    236 H236       -4.1629  -16.3553  -49.9510 H         1 UNK         0.0600 
    237 H237       -6.0817  -15.3324  -52.1100 H         1 UNK         0.0600 
    238 H238       -6.5606  -16.2075  -50.6566 H         1 UNK         0.0600 
    239 H239       -5.8205  -14.6218  -50.5250 H         1 UNK         0.0600 
    240 H240       -2.1046  -16.9495  -51.7966 H         1 UNK         0.3000 
    241 H241       -1.4038  -14.7061  -53.4086 H         1 UNK         0.0600 
    242 H242        0.5050  -13.3152  -53.2687 H         1 UNK         0.3800 
    243 H243        1.1439  -12.8961  -51.7041 H         1 UNK         0.3800 
    244 H244       -0.7920  -16.8741  -54.1846 H         1 UNK         0.0800 
    245 H245        0.6868  -16.0385  -53.8411 H         1 UNK         0.0800 
    246 H246        2.4423  -17.2391  -53.1696 H         1 UNK         0.0800 
    247 H247        2.0808  -18.9161  -53.4906 H         1 UNK         0.0800 
@<TRIPOS>BOND
     1    1    2 1    
     2    1  127 1    
     3    1  128 1    
     4    1  129 1    
     5    2    3 2    
     6    2    4 am   BACKBONE|DICT|INTERRES
     7    4    5 1    
     8    4  130 1    
     9    5    6 1    
    10    5   65 1    
    11    5  131 1    
    12    6    7 1    
    13    6  132 1    
    14    6  133 1    
    15    7    8 1    
    16    8    9 1    
    17    8  134 1    
    18    8  135 1    
    19    9   10 ar   
    20    9   14 ar   
    21   10   11 ar   
    22   10  136 1    
    23   11   12 ar   
    24   11  126 1    
    25   12   13 ar   
    26   12  137 1    
    27   13   14 ar   
    28   13   15 1    
    29   14  138 1    
    30   15   16 1    
    31   15  139 1    
    32   15  140 1    
    33   16   17 1    
    34   17   18 1    
    35   17  141 1    
    36   17  142 1    
    37   18   19 1    
    38   18   67 1    
    39   18  143 1    
    40   19   20 am   BACKBONE|DICT|INTERRES
    41   19  144 1    
    42   20   21 2    
    43   20   22 1    
    44   22   23 1    
    45   22   24 1    
    46   22  145 1    
    47   23  146 1    
    48   23  147 1    
    49   23  148 1    
    50   24   25 am   BACKBONE|DICT|INTERRES
    51   24  149 1    
    52   25   26 2    
    53   25   27 1    
    54   27   28 1    
    55   27   29 1    
    56   27  150 1    
    57   28  151 1    
    58   28  152 1    
    59   28  153 1    
    60   29   30 am   BACKBONE|DICT|INTERRES
    61   29  154 1    
    62   30   31 2    
    63   30   32 1    
    64   32   33 1    
    65   32   34 1    
    66   32  155 1    
    67   33  156 1    
    68   33  157 1    
    69   33  158 1    
    70   34   35 am   BACKBONE|DICT|INTERRES
    71   34  159 1    
    72   35   36 2    
    73   35   37 1    
    74   37   38 1    
    75   37   39 1    
    76   37  160 1    
    77   38  161 1    
    78   38  162 1    
    79   38  163 1    
    80   39   40 am   BACKBONE|DICT|INTERRES
    81   39  164 1    
    82   40   41 2    
    83   40   42 1    
    84   42   43 1    
    85   42   44 1    
    86   42  165 1    
    87   43  166 1    
    88   43  167 1    
    89   43  168 1    
    90   44   45 am   BACKBONE|DICT|INTERRES
    91   44  169 1    
    92   45   46 2    
    93   45   47 1    
    94   47   48 1    
    95   47   49 1    
    96   47  170 1    
    97   48  171 1    
    98   48  172 1    
    99   48  173 1    
   100   49   50 am   BACKBONE|DICT|INTERRES
   101   49  174 1    
   102   50   51 2    
   103   50   52 1    
   104   52   53 1    
   105   52   54 1    
   106   52  175 1    
   107   53  176 1    
   108   53  177 1    
   109   53  178 1    
   110   54   55 am   BACKBONE|DICT|INTERRES
   111   54  179 1    
   112   55   56 2    
   113   55   57 1    
   114   57   58 1    
   115   57   59 1    
   116   57  180 1    
   117   58  181 1    
   118   58  182 1    
   119   58  183 1    
   120   59   60 am   BACKBONE|DICT|INTERRES
   121   59  184 1    
   122   60   61 2    
   123   60   62 1    
   124   62   63 1    
   125   62   64 1    
   126   62  185 1    
   127   63  186 1    
   128   63  187 1    
   129   63  188 1    
   130   64   65 am   BACKBONE|DICT|INTERRES
   131   64  189 1    
   132   65   66 2    
   133   67   68 2    
   134   67   69 am   BACKBONE|DICT|INTERRES
   135   69   70 1    
   136   69  190 1    
   137   70   71 1    
   138   70   72 1    
   139   70  191 1    
   140   71  192 1    
   141   71  193 1    
   142   71  194 1    
   143   72   73 2    
   144   72   74 am   BACKBONE|DICT|INTERRES
   145   74   75 1    
   146   74  195 1    
   147   75   76 1    
   148   75   77 1    
   149   75  196 1    
   150   76  197 1    
   151   76  198 1    
   152   76  199 1    
   153   77   78 2    
   154   77   79 am   BACKBONE|DICT|INTERRES
   155   79   80 1    
   156   79  200 1    
   157   80   81 1    
   158   80   82 1    
   159   80  201 1    
   160   81  202 1    
   161   81  203 1    
   162   81  204 1    
   163   82   83 2    
   164   82   84 am   BACKBONE|DICT|INTERRES
   165   84   85 1    
   166   84  205 1    
   167   85   86 1    
   168   85   87 1    
   169   85  206 1    
   170   86  207 1    
   171   86  208 1    
   172   86  209 1    
   173   87   88 2    
   174   87   89 am   BACKBONE|DICT|INTERRES
   175   89   90 1    
   176   89  210 1    
   177   90   91 1    
   178   90   92 1    
   179   90  211 1    
   180   91  212 1    
   181   91  213 1    
   182   91  214 1    
   183   92   93 2    
   184   92   94 am   BACKBONE|DICT|INTERRES
   185   94   95 1    
   186   94  215 1    
   187   95   96 1    
   188   95   97 1    
   189   95  216 1    
   190   96  217 1    
   191   96  218 1    
   192   96  219 1    
   193   97   98 2    
   194   97   99 am   BACKBONE|DICT|INTERRES
   195   99  100 1    
   196   99  220 1    
   197  100  101 1    
   198  100  102 1    
   199  100  221 1    
   200  101  222 1    
   201  101  223 1    
   202  101  224 1    
   203  102  103 2    
   204  102  104 am   BACKBONE|DICT|INTERRES
   205  104  105 1    
   206  104  225 1    
   207  105  106 1    
   208  105  107 1    
   209  105  226 1    
   210  106  227 1    
   211  106  228 1    
   212  106  229 1    
   213  107  108 2    
   214  107  109 am   BACKBONE|DICT|INTERRES
   215  109  110 1    
   216  109  230 1    
   217  110  111 1    
   218  110  112 1    
   219  110  231 1    
   220  111  232 1    
   221  111  233 1    
   222  111  234 1    
   223  112  113 2    
   224  112  114 am   BACKBONE|DICT|INTERRES
   225  114  115 1    
   226  114  235 1    
   227  115  116 1    
   228  115  117 1    
   229  115  236 1    
   230  116  237 1    
   231  116  238 1    
   232  116  239 1    
   233  117  118 2    
   234  117  119 am   BACKBONE|DICT|INTERRES
   235  119  120 1    
   236  119  240 1    
   237  120  121 1    
   238  120  124 1    
   239  120  241 1    
   240  121  122 am   BACKBONE|DICT|INTERRES
   241  121  123 2    
   242  122  242 1    
   243  122  243 1    
   244  124  125 1    
   245  124  244 1    
   246  124  245 1    
   247  125  126 1    
   248  126  246 1    
   249  126  247 1    
@<TRIPOS>SUBSTRUCTURE
     1 UNK         1 GROUP             0       ****    0 ROOT    
