@<TRIPOS>MOLECULE
3R540
247   249    1
SMALL
USER_CHARGES


@<TRIPOS>ATOM
      1 CA          1.2279   -9.5630  -49.8937 C.3       0 UNK        -0.1800 
      2 C           1.4097  -10.4295  -48.6564 C.2       0 UNK         0.5000 
      3 O           1.7326   -9.9135  -47.5861 O.2       0 UNK        -0.5000 
      4 N           1.1832  -11.7437  -48.7882 N.am      1 UNK        -0.5000 
      5 CA          1.3280  -12.7419  -47.7181 C.3       1 UNK         0.1400 
      6 C6          1.3201  -14.1943  -48.2521 C.3       23 UNK        -0.0398 
      7 S7         -0.1523  -14.6176  -49.2540 S.3       23 UNK        -0.2404 
      8 C8          0.6029  -15.1474  -50.8306 C.3       23 UNK        -0.0205 
      9 C9          0.9431  -16.6363  -50.8860 C.ar      23 UNK        -0.0193 
     10 C10         0.6363  -17.3736  -52.0344 C.ar      23 UNK        -0.1150 
     11 C11         0.9833  -18.7242  -52.1283 C.ar      23 UNK        -0.0193 
     12 C12         1.6389  -19.3430  -51.0606 C.ar      23 UNK        -0.1150 
     13 C13         1.9397  -18.6282  -49.8948 C.ar      23 UNK        -0.0193 
     14 C14         1.5966  -17.2757  -49.8262 C.ar      23 UNK        -0.1150 
     15 C15         2.6618  -19.2532  -48.6993 C.3       23 UNK        -0.0205 
     16 S16         2.5421  -21.0692  -48.5494 S.3       23 UNK        -0.2404 
     17 C17         0.7401  -21.3189  -48.4464 C.3       23 UNK        -0.0398 
     18 CA          0.3773  -22.5290  -47.5560 C.3       11 UNK         0.1400 
     19 N           0.5421  -22.2586  -46.1242 N.am      11 UNK        -0.5000 
     20 C           0.4384  -23.1896  -45.1647 C.2       10 UNK         0.5000 
     21 O           0.2541  -24.3852  -45.3921 O.2       10 UNK        -0.5000 
     22 CA          0.4705  -22.6986  -43.7070 C.3       10 UNK         0.1400 
     23 CB          1.9074  -22.4113  -43.2474 C.3       10 UNK        -0.1800 
     24 N          -0.3742  -21.5203  -43.5029 N.am      10 UNK        -0.5000 
     25 C          -1.7072  -21.5170  -43.6545 C.2       9 UNK         0.5000 
     26 O          -2.3640  -22.5241  -43.9188 O.2       9 UNK        -0.5000 
     27 CA         -2.4265  -20.1611  -43.5319 C.3       9 UNK         0.1400 
     28 CB         -2.6878  -19.8161  -42.0585 C.3       9 UNK        -0.1800 
     29 N          -1.6955  -19.0664  -44.1699 N.am      9 UNK        -0.5000 
     30 C          -1.4271  -18.9802  -45.4808 C.2       8 UNK         0.5000 
     31 O          -1.8062  -19.8018  -46.3130 O.2       8 UNK        -0.5000 
     32 CA         -0.5237  -17.8159  -45.9266 C.3       8 UNK         0.1400 
     33 CB         -1.3214  -16.5084  -46.0457 C.3       8 UNK        -0.1800 
     34 N           0.6118  -17.6276  -45.0220 N.am      8 UNK        -0.5000 
     35 C           1.5675  -18.5446  -44.8107 C.2       7 UNK         0.5000 
     36 O           1.6148  -19.6290  -45.3900 O.2       7 UNK        -0.5000 
     37 CA          2.6139  -18.2137  -43.7357 C.3       7 UNK         0.1400 
     38 CB          3.6949  -17.2787  -44.2990 C.3       7 UNK        -0.1800 
     39 N           1.9958  -17.6102  -42.5550 N.am      7 UNK        -0.5000 
     40 C           1.2410  -18.2865  -41.6756 C.2       6 UNK         0.5000 
     41 O           1.0333  -19.4973  -41.7500 O.2       6 UNK        -0.5000 
     42 CA          0.5684  -17.4747  -40.5490 C.3       6 UNK         0.1400 
     43 CB          1.5049  -17.3556  -39.3379 C.3       6 UNK        -0.1800 
     44 N           0.1528  -16.1359  -40.9707 N.am      6 UNK        -0.5000 
     45 C          -0.7342  -15.8866  -41.9431 C.2       5 UNK         0.5000 
     46 O          -1.3720  -16.7679  -42.5170 O.2       5 UNK        -0.5000 
     47 CA         -0.9170  -14.4234  -42.3907 C.3       5 UNK         0.1400 
     48 CB         -2.1852  -13.8301  -41.7599 C.3       5 UNK        -0.1800 
     49 N           0.2102  -13.5177  -42.1376 N.am      5 UNK        -0.5000 
     50 C           1.4872  -13.7011  -42.5069 C.2       4 UNK         0.5000 
     51 O           1.9299  -14.7577  -42.9599 O.2       4 UNK        -0.5000 
     52 CA          2.3899  -12.4637  -42.3997 C.3       4 UNK         0.1400 
     53 CB          3.8288  -12.7180  -42.8852 C.3       4 UNK        -0.1800 
     54 N           1.7859  -11.4078  -43.2053 N.am      4 UNK        -0.5000 
     55 C           1.6613  -10.1223  -42.8541 C.2       3 UNK         0.5000 
     56 O           2.0959   -9.6611  -41.7981 O.2       3 UNK        -0.5000 
     57 CA          0.9251   -9.1872  -43.8382 C.3       3 UNK         0.1400 
     58 CB          1.9296   -8.2880  -44.5747 C.3       3 UNK        -0.1800 
     59 N           0.1144   -9.9018  -44.8281 N.am      3 UNK        -0.5000 
     60 C          -1.0337  -10.5424  -44.5568 C.2       2 UNK         0.5000 
     61 O          -1.5716  -10.5272  -43.4497 O.2       2 UNK        -0.5000 
     62 CA         -1.6743  -11.3677  -45.6946 C.3       2 UNK         0.1400 
     63 CB         -2.8245  -10.5853  -46.3454 C.3       2 UNK        -0.1800 
     64 N          -0.7275  -11.7735  -46.7369 N.am      2 UNK        -0.5000 
     65 C           0.3406  -12.5608  -46.5444 C.2       1 UNK         0.5000 
     66 O           0.5937  -13.0937  -45.4665 O.2       1 UNK        -0.5000 
     67 C          -1.0372  -23.0418  -47.8889 C.2       11 UNK         0.5000 
     68 O          -1.1615  -23.9819  -48.6717 O.2       11 UNK        -0.5000 
     69 N          -2.0744  -22.4543  -47.2768 N.am      12 UNK        -0.5000 
     70 CA         -3.4691  -22.8580  -47.4596 C.3       12 UNK         0.1400 
     71 CB         -4.4065  -21.8286  -46.8126 C.3       12 UNK        -0.1800 
     72 C          -3.7666  -24.2740  -46.9413 C.2       12 UNK         0.5000 
     73 O          -4.6083  -24.9552  -47.5239 O.2       12 UNK        -0.5000 
     74 N          -3.0607  -24.7018  -45.8883 N.am      13 UNK        -0.5000 
     75 CA         -3.0998  -26.0697  -45.3805 C.3       13 UNK         0.1400 
     76 CB         -2.5774  -26.0926  -43.9354 C.3       13 UNK        -0.1800 
     77 C          -2.2999  -27.0384  -46.2722 C.2       13 UNK         0.5000 
     78 O          -2.7929  -28.1239  -46.5803 O.2       13 UNK        -0.5000 
     79 N          -1.0784  -26.6396  -46.6529 N.am      14 UNK        -0.5000 
     80 CA         -0.1236  -27.4766  -47.3789 C.3       14 UNK         0.1400 
     81 CB          1.2879  -26.8874  -47.2266 C.3       14 UNK        -0.1800 
     82 C          -0.4692  -27.6726  -48.8655 C.2       14 UNK         0.5000 
     83 O          -0.4944  -28.8109  -49.3356 O.2       14 UNK        -0.5000 
     84 N          -0.6922  -26.5666  -49.5860 N.am      15 UNK        -0.5000 
     85 CA         -0.8955  -26.5546  -51.0367 C.3       15 UNK         0.1400 
     86 CB         -0.3100  -25.2543  -51.6138 C.3       15 UNK        -0.1800 
     87 C          -2.3753  -26.6885  -51.4317 C.2       15 UNK         0.5000 
     88 O          -2.6506  -27.1254  -52.5487 O.2       15 UNK        -0.5000 
     89 N          -3.2763  -26.3185  -50.5093 N.am      16 UNK        -0.5000 
     90 CA         -4.7271  -26.1630  -50.6505 C.3       16 UNK         0.1400 
     91 CB         -5.4072  -27.3749  -51.3184 C.3       16 UNK        -0.1800 
     92 C          -5.0890  -24.8432  -51.3563 C.2       16 UNK         0.5000 
     93 O          -4.6296  -24.5872  -52.4713 O.2       16 UNK        -0.5000 
     94 N          -5.9399  -24.0453  -50.6956 N.am      17 UNK        -0.5000 
     95 CA         -6.5563  -22.8097  -51.1932 C.3       17 UNK         0.1400 
     96 CB         -7.5789  -23.1322  -52.3031 C.3       17 UNK        -0.1800 
     97 C          -5.5363  -21.7327  -51.6177 C.2       17 UNK         0.5000 
     98 O          -5.5854  -21.2345  -52.7439 O.2       17 UNK        -0.5000 
     99 N          -4.6238  -21.3817  -50.7059 N.am      18 UNK        -0.5000 
    100 CA        -3.7593  -20.2100  -50.8477 C.3       18 UNK         0.1400 
    101 CB        -2.4420  -20.4471  -50.0952 C.3       18 UNK        -0.1800 
    102 C         -4.4875  -18.9721  -50.2828 C.2       18 UNK         0.5000 
    103 O         -5.2637  -19.1198  -49.3385 O.2       18 UNK        -0.5000 
    104 N         -4.2638  -17.7591  -50.8042 N.am      19 UNK        -0.5000 
    105 CA        -3.4249  -17.4053  -51.9547 C.3       19 UNK         0.1400 
    106 CB        -2.9341  -15.9643  -51.7502 C.3       19 UNK        -0.1800 
    107 C         -4.1647  -17.5284  -53.3061 C.2       19 UNK         0.5000 
    108 O         -3.5659  -17.2520  -54.3452 O.2       19 UNK        -0.5000 
    109 N         -5.4566  -17.8874  -53.2651 N.am      20 UNK        -0.5000 
    110 CA        -6.3876  -17.8924  -54.3953 C.3       20 UNK         0.1400 
    111 CB        -7.7875  -18.2712  -53.8856 C.3       20 UNK        -0.1800 
    112 C         -5.9795  -18.8015  -55.5691 C.2       20 UNK         0.5000 
    113 O         -6.0651  -18.3703  -56.7203 O.2       20 UNK        -0.5000 
    114 N         -5.5620  -20.0332  -55.2593 N.am      21 UNK        -0.5000 
    115 CA        -5.1772  -21.0523  -56.2331 C.3       21 UNK         0.1400 
    116 CB        -6.1962  -22.2027  -56.1945 C.3       21 UNK        -0.1800 
    117 C         -3.7592  -21.5764  -55.9691 C.2       21 UNK         0.5000 
    118 O         -2.9857  -21.6973  -56.9200 O.2       21 UNK        -0.5000 
    119 N         -3.4454  -21.8757  -54.6995 N.am      22 UNK        -0.5000 
    120 CA        -2.1899  -22.5093  -54.2530 C.3       22 UNK         0.1400 
    121 C         -1.9796  -23.9146  -54.8911 C.2       22 UNK         0.5000 
    122 N         -2.8999  -24.8414  -54.6732 N.am      22 UNK        -0.7600 
    123 O         -0.9959  -24.1742  -55.5804 O.2       22 UNK        -0.5000 
    124 C124       -0.9444  -21.5907  -54.4061 C.3       23 UNK        -0.0398 
    125 S125       -1.0556  -20.1022  -53.3658 S.3       23 UNK        -0.2404 
    126 C126        0.6645  -19.5171  -53.3857 C.3       23 UNK        -0.0205 
    127 H127        2.1606   -9.0528  -50.1336 H         1 UNK         0.0600 
    128 H128        0.4618   -8.8088  -49.7138 H         1 UNK         0.0600 
    129 H129        0.9291  -10.1523  -50.7610 H         1 UNK         0.0600 
    130 H130        0.8913  -12.1104  -49.6832 H         1 UNK         0.3000 
    131 H131        2.3163  -12.5786  -47.2824 H         1 UNK         0.0600 
    132 H132        2.2203  -14.3487  -48.8477 H         1 UNK         0.0800 
    133 H133        1.3987  -14.9070  -47.4289 H         1 UNK         0.0800 
    134 H134       -0.0978  -14.8982  -51.6279 H         1 UNK         0.0800 
    135 H135        1.5018  -14.5653  -51.0358 H         1 UNK         0.0800 
    136 H136        0.1354  -16.8963  -52.8651 H         1 UNK         0.1150 
    137 H137        1.9148  -20.3836  -51.1476 H         1 UNK         0.1150 
    138 H138        1.8508  -16.7220  -48.9364 H         1 UNK         0.1150 
    139 H139        3.7171  -18.9847  -48.7587 H         1 UNK         0.0800 
    140 H140        2.2859  -18.8098  -47.7777 H         1 UNK         0.0800 
    141 H141        0.3865  -21.4664  -49.4684 H         1 UNK         0.0800 
    142 H142        0.2550  -20.4120  -48.0817 H         1 UNK         0.0800 
    143 H143        1.0590  -23.3447  -47.8066 H         1 UNK         0.0600 
    144 H144        0.7428  -21.2977  -45.8595 H         1 UNK         0.3000 
    145 H145        0.0745  -23.5010  -43.0810 H         1 UNK         0.0600 
    146 H146        1.9350  -22.1295  -42.1948 H         1 UNK         0.0600 
    147 H147        2.5362  -23.2948  -43.3638 H         1 UNK         0.0600 
    148 H148        2.3659  -21.6066  -43.8209 H         1 UNK         0.0600 
    149 H149        0.0949  -20.6627  -43.2354 H         1 UNK         0.3000 
    150 H150       -3.3913  -20.2497  -44.0344 H         1 UNK         0.0600 
    151 H151       -3.2605  -20.6043  -41.5684 H         1 UNK         0.0600 
    152 H152       -3.2589  -18.8922  -41.9654 H         1 UNK         0.0600 
    153 H153       -1.7579  -19.6914  -41.5035 H         1 UNK         0.0600 
    154 H154       -1.3921  -18.3099  -43.5613 H         1 UNK         0.3000 
    155 H155       -0.1246  -18.0593  -46.9137 H         1 UNK         0.0600 
    156 H156       -2.0998  -16.5992  -46.8043 H         1 UNK         0.0600 
    157 H157       -0.6810  -15.6766  -46.3367 H         1 UNK         0.0600 
    158 H158       -1.8089  -16.2407  -45.1086 H         1 UNK         0.0600 
    159 H159        0.6364  -16.7731  -44.4845 H         1 UNK         0.3000 
    160 H160        3.0964  -19.1461  -43.4346 H         1 UNK         0.0600 
    161 H161        3.2745  -16.3364  -44.6520 H         1 UNK         0.0600 
    162 H162        4.2081  -17.7431  -45.1420 H         1 UNK         0.0600 
    163 H163        4.4481  -17.0475  -43.5457 H         1 UNK         0.0600 
    164 H164        2.0649  -16.5986  -42.4768 H         1 UNK         0.3000 
    165 H165       -0.3256  -18.0188  -40.2379 H         1 UNK         0.0600 
    166 H166        1.0110  -16.8558  -38.5045 H         1 UNK         0.0600 
    167 H167        1.8157  -18.3406  -38.9869 H         1 UNK         0.0600 
    168 H168        2.4075  -16.7934  -39.5809 H         1 UNK         0.0600 
    169 H169        0.6425  -15.3545  -40.5611 H         1 UNK         0.3000 
    170 H170       -1.0587  -14.4446  -43.4730 H         1 UNK         0.0600 
    171 H171       -3.0525  -14.4637  -41.9510 H         1 UNK         0.0600 
    172 H172       -2.0846  -13.7274  -40.6788 H         1 UNK         0.0600 
    173 H173       -2.4095  -12.8464  -42.1721 H         1 UNK         0.0600 
    174 H174       -0.0419  -12.6041  -41.7886 H         1 UNK         0.3000 
    175 H175        2.4200  -12.1768  -41.3466 H         1 UNK         0.0600 
    176 H176        3.8510  -13.0187  -43.9336 H         1 UNK         0.0600 
    177 H177        4.4429  -11.8235  -42.7805 H         1 UNK         0.0600 
    178 H178        4.3037  -13.5094  -42.3042 H         1 UNK         0.0600 
    179 H179        1.3575  -11.7257  -44.0684 H         1 UNK         0.3000 
    180 H180        0.2631   -8.5480  -43.2503 H         1 UNK         0.0600 
    181 H181        2.6338   -8.8743  -45.1664 H         1 UNK         0.0600 
    182 H182        2.5104   -7.6910  -43.8704 H         1 UNK         0.0600 
    183 H183        1.4224   -7.5954  -45.2467 H         1 UNK         0.0600 
    184 H184        0.4992   -9.9606  -45.7641 H         1 UNK         0.3000 
    185 H185       -2.0845  -12.2751  -45.2463 H         1 UNK         0.0600 
    186 H186       -3.5666  -10.2904  -45.6022 H         1 UNK         0.0600 
    187 H187       -2.4676   -9.6767  -46.8320 H         1 UNK         0.0600 
    188 H188       -3.3386  -11.1887  -47.0939 H         1 UNK         0.0600 
    189 H189       -0.8603  -11.3720  -47.6534 H         1 UNK         0.3000 
    190 H190       -1.9079  -21.6362  -46.6955 H         1 UNK         0.3000 
    191 H191       -3.6650  -22.8677  -48.5325 H         1 UNK         0.0600 
    192 H192       -4.2611  -21.7768  -45.7341 H         1 UNK         0.0600 
    193 H193       -5.4514  -22.0862  -46.9895 H         1 UNK         0.0600 
    194 H194       -4.2458  -20.8306  -47.2201 H         1 UNK         0.0600 
    195 H195       -2.4361  -24.0524  -45.4238 H         1 UNK         0.3000 
    196 H196       -4.1385  -26.4070  -45.3651 H         1 UNK         0.0600 
    197 H197       -2.6161  -27.1012  -43.5223 H         1 UNK         0.0600 
    198 H198       -3.1797  -25.4524  -43.2904 H         1 UNK         0.0600 
    199 H199       -1.5443  -25.7502  -43.8710 H         1 UNK         0.0600 
    200 H200       -0.7310  -25.7435  -46.3217 H         1 UNK         0.3000 
    201 H201       -0.1187  -28.4636  -46.9111 H         1 UNK         0.0600 
    202 H202        1.5846  -26.8439  -46.1784 H         1 UNK         0.0600 
    203 H203        1.3497  -25.8769  -47.6319 H         1 UNK         0.0600 
    204 H204        2.0263  -27.4975  -47.7484 H         1 UNK         0.0600 
    205 H205       -0.7111  -25.6588  -49.1241 H         1 UNK         0.3000 
    206 H206       -0.3539  -27.3905  -51.4848 H         1 UNK         0.0600 
    207 H207        0.7296  -25.1198  -51.3150 H         1 UNK         0.0600 
    208 H208       -0.3347  -25.2709  -52.7038 H         1 UNK         0.0600 
    209 H209       -0.8701  -24.3767  -51.2891 H         1 UNK         0.0600 
    210 H210       -2.9012  -25.9838  -49.6327 H         1 UNK         0.3000 
    211 H211       -5.1168  -26.1273  -49.6355 H         1 UNK         0.0600 
    212 H212       -5.1928  -27.4321  -52.3858 H         1 UNK         0.0600 
    213 H213       -6.4909  -27.3100  -51.2156 H         1 UNK         0.0600 
    214 H214       -5.0914  -28.3111  -50.8580 H         1 UNK         0.0600 
    215 H215       -6.2376  -24.3355  -49.7739 H         1 UNK         0.3000 
    216 H216       -7.1113  -22.3824  -50.3567 H         1 UNK         0.0600 
    217 H217       -8.0899  -22.2301  -52.6420 H         1 UNK         0.0600 
    218 H218       -8.3433  -23.8215  -51.9446 H         1 UNK         0.0600 
    219 H219       -7.1039  -23.5857  -53.1729 H         1 UNK         0.0600 
    220 H220       -4.6788  -21.7894  -49.7863 H         1 UNK         0.3000 
    221 H221       -3.5354  -20.0727  -51.9045 H         1 UNK         0.0600 
    222 H222       -2.5903  -20.4511  -49.0165 H         1 UNK         0.0600 
    223 H223       -1.9863  -21.3941  -50.3847 H         1 UNK         0.0600 
    224 H224       -1.7198  -19.6594  -50.3132 H         1 UNK         0.0600 
    225 H225       -4.7498  -16.9801  -50.3847 H         1 UNK         0.3000 
    226 H226       -2.5422  -18.0426  -51.9860 H         1 UNK         0.0600 
    227 H227       -2.3939  -15.8666  -50.8092 H         1 UNK         0.0600 
    228 H228       -2.2540  -15.6637  -52.5480 H         1 UNK         0.0600 
    229 H229       -3.7606  -15.2527  -51.7378 H         1 UNK         0.0600 
    230 H230       -5.8577  -18.0911  -52.3620 H         1 UNK         0.3000 
    231 H231       -6.4340  -16.8707  -54.7777 H         1 UNK         0.0600 
    232 H232       -8.5135  -18.2726  -54.6998 H         1 UNK         0.0600 
    233 H233       -8.1417  -17.5615  -53.1378 H         1 UNK         0.0600 
    234 H234       -7.7963  -19.2655  -53.4364 H         1 UNK         0.0600 
    235 H235       -5.5401  -20.3143  -54.2808 H         1 UNK         0.3000 
    236 H236       -5.1805  -20.6375  -57.2432 H         1 UNK         0.0600 
    237 H237       -6.2386  -22.6694  -55.2102 H         1 UNK         0.0600 
    238 H238       -7.1976  -21.8498  -56.4410 H         1 UNK         0.0600 
    239 H239       -5.9364  -22.9792  -56.9151 H         1 UNK         0.0600 
    240 H240       -4.1583  -21.7623  -53.9875 H         1 UNK         0.3000 
    241 H241       -2.3144  -22.6993  -53.1855 H         1 UNK         0.0600 
    242 H242       -2.7718  -25.7654  -55.0520 H         1 UNK         0.3800 
    243 H243       -3.6486  -24.6834  -54.0000 H         1 UNK         0.3800 
    244 H244       -0.0461  -22.1359  -54.1120 H         1 UNK         0.0800 
    245 H245       -0.7966  -21.2924  -55.4446 H         1 UNK         0.0800 
    246 H246        0.8253  -18.9005  -54.2712 H         1 UNK         0.0800 
    247 H247        1.3492  -20.3620  -53.4718 H         1 UNK         0.0800 
@<TRIPOS>BOND
     1    1    2 1    
     2    1  127 1    
     3    1  128 1    
     4    1  129 1    
     5    2    3 2    
     6    2    4 am   BACKBONE|DICT|INTERRES
     7    4    5 1    
     8    4  130 1    
     9    5    6 1    
    10    5   65 1    
    11    5  131 1    
    12    6    7 1    
    13    6  132 1    
    14    6  133 1    
    15    7    8 1    
    16    8    9 1    
    17    8  134 1    
    18    8  135 1    
    19    9   10 ar   
    20    9   14 ar   
    21   10   11 ar   
    22   10  136 1    
    23   11   12 ar   
    24   11  126 1    
    25   12   13 ar   
    26   12  137 1    
    27   13   14 ar   
    28   13   15 1    
    29   14  138 1    
    30   15   16 1    
    31   15  139 1    
    32   15  140 1    
    33   16   17 1    
    34   17   18 1    
    35   17  141 1    
    36   17  142 1    
    37   18   19 1    
    38   18   67 1    
    39   18  143 1    
    40   19   20 am   BACKBONE|DICT|INTERRES
    41   19  144 1    
    42   20   21 2    
    43   20   22 1    
    44   22   23 1    
    45   22   24 1    
    46   22  145 1    
    47   23  146 1    
    48   23  147 1    
    49   23  148 1    
    50   24   25 am   BACKBONE|DICT|INTERRES
    51   24  149 1    
    52   25   26 2    
    53   25   27 1    
    54   27   28 1    
    55   27   29 1    
    56   27  150 1    
    57   28  151 1    
    58   28  152 1    
    59   28  153 1    
    60   29   30 am   BACKBONE|DICT|INTERRES
    61   29  154 1    
    62   30   31 2    
    63   30   32 1    
    64   32   33 1    
    65   32   34 1    
    66   32  155 1    
    67   33  156 1    
    68   33  157 1    
    69   33  158 1    
    70   34   35 am   BACKBONE|DICT|INTERRES
    71   34  159 1    
    72   35   36 2    
    73   35   37 1    
    74   37   38 1    
    75   37   39 1    
    76   37  160 1    
    77   38  161 1    
    78   38  162 1    
    79   38  163 1    
    80   39   40 am   BACKBONE|DICT|INTERRES
    81   39  164 1    
    82   40   41 2    
    83   40   42 1    
    84   42   43 1    
    85   42   44 1    
    86   42  165 1    
    87   43  166 1    
    88   43  167 1    
    89   43  168 1    
    90   44   45 am   BACKBONE|DICT|INTERRES
    91   44  169 1    
    92   45   46 2    
    93   45   47 1    
    94   47   48 1    
    95   47   49 1    
    96   47  170 1    
    97   48  171 1    
    98   48  172 1    
    99   48  173 1    
   100   49   50 am   BACKBONE|DICT|INTERRES
   101   49  174 1    
   102   50   51 2    
   103   50   52 1    
   104   52   53 1    
   105   52   54 1    
   106   52  175 1    
   107   53  176 1    
   108   53  177 1    
   109   53  178 1    
   110   54   55 am   BACKBONE|DICT|INTERRES
   111   54  179 1    
   112   55   56 2    
   113   55   57 1    
   114   57   58 1    
   115   57   59 1    
   116   57  180 1    
   117   58  181 1    
   118   58  182 1    
   119   58  183 1    
   120   59   60 am   BACKBONE|DICT|INTERRES
   121   59  184 1    
   122   60   61 2    
   123   60   62 1    
   124   62   63 1    
   125   62   64 1    
   126   62  185 1    
   127   63  186 1    
   128   63  187 1    
   129   63  188 1    
   130   64   65 am   BACKBONE|DICT|INTERRES
   131   64  189 1    
   132   65   66 2    
   133   67   68 2    
   134   67   69 am   BACKBONE|DICT|INTERRES
   135   69   70 1    
   136   69  190 1    
   137   70   71 1    
   138   70   72 1    
   139   70  191 1    
   140   71  192 1    
   141   71  193 1    
   142   71  194 1    
   143   72   73 2    
   144   72   74 am   BACKBONE|DICT|INTERRES
   145   74   75 1    
   146   74  195 1    
   147   75   76 1    
   148   75   77 1    
   149   75  196 1    
   150   76  197 1    
   151   76  198 1    
   152   76  199 1    
   153   77   78 2    
   154   77   79 am   BACKBONE|DICT|INTERRES
   155   79   80 1    
   156   79  200 1    
   157   80   81 1    
   158   80   82 1    
   159   80  201 1    
   160   81  202 1    
   161   81  203 1    
   162   81  204 1    
   163   82   83 2    
   164   82   84 am   BACKBONE|DICT|INTERRES
   165   84   85 1    
   166   84  205 1    
   167   85   86 1    
   168   85   87 1    
   169   85  206 1    
   170   86  207 1    
   171   86  208 1    
   172   86  209 1    
   173   87   88 2    
   174   87   89 am   BACKBONE|DICT|INTERRES
   175   89   90 1    
   176   89  210 1    
   177   90   91 1    
   178   90   92 1    
   179   90  211 1    
   180   91  212 1    
   181   91  213 1    
   182   91  214 1    
   183   92   93 2    
   184   92   94 am   BACKBONE|DICT|INTERRES
   185   94   95 1    
   186   94  215 1    
   187   95   96 1    
   188   95   97 1    
   189   95  216 1    
   190   96  217 1    
   191   96  218 1    
   192   96  219 1    
   193   97   98 2    
   194   97   99 am   BACKBONE|DICT|INTERRES
   195   99  100 1    
   196   99  220 1    
   197  100  101 1    
   198  100  102 1    
   199  100  221 1    
   200  101  222 1    
   201  101  223 1    
   202  101  224 1    
   203  102  103 2    
   204  102  104 am   BACKBONE|DICT|INTERRES
   205  104  105 1    
   206  104  225 1    
   207  105  106 1    
   208  105  107 1    
   209  105  226 1    
   210  106  227 1    
   211  106  228 1    
   212  106  229 1    
   213  107  108 2    
   214  107  109 am   BACKBONE|DICT|INTERRES
   215  109  110 1    
   216  109  230 1    
   217  110  111 1    
   218  110  112 1    
   219  110  231 1    
   220  111  232 1    
   221  111  233 1    
   222  111  234 1    
   223  112  113 2    
   224  112  114 am   BACKBONE|DICT|INTERRES
   225  114  115 1    
   226  114  235 1    
   227  115  116 1    
   228  115  117 1    
   229  115  236 1    
   230  116  237 1    
   231  116  238 1    
   232  116  239 1    
   233  117  118 2    
   234  117  119 am   BACKBONE|DICT|INTERRES
   235  119  120 1    
   236  119  240 1    
   237  120  121 1    
   238  120  124 1    
   239  120  241 1    
   240  121  122 am   BACKBONE|DICT|INTERRES
   241  121  123 2    
   242  122  242 1    
   243  122  243 1    
   244  124  125 1    
   245  124  244 1    
   246  124  245 1    
   247  125  126 1    
   248  126  246 1    
   249  126  247 1    
@<TRIPOS>SUBSTRUCTURE
     1 UNK         1 GROUP             0       ****    0 ROOT    
