@<TRIPOS>MOLECULE
3R540
247   249    1
SMALL
USER_CHARGES


@<TRIPOS>ATOM
      1 CA          4.1712  -21.1402  -44.0072 C.3       0 UNK        -0.1800 
      2 C           3.8961  -19.6432  -43.9844 C.2       0 UNK         0.5000 
      3 O           3.3065  -19.1450  -43.0264 O.2       0 UNK        -0.5000 
      4 N           4.3116  -18.9340  -45.0407 N.am      1 UNK        -0.5000 
      5 CA          4.1201  -17.4924  -45.2147 C.3       1 UNK         0.1400 
      6 C6          4.3067  -17.0887  -46.6935 C.3       23 UNK        -0.0398 
      7 S7          3.5946  -15.4592  -47.1187 S.3       23 UNK        -0.2404 
      8 C8          3.9156  -15.3861  -48.9140 C.3       23 UNK        -0.0205 
      9 C9          2.9376  -16.2541  -49.6920 C.ar      23 UNK        -0.0193 
     10 C10         1.7767  -15.7030  -50.2379 C.ar      23 UNK        -0.1150 
     11 C11         0.8427  -16.5068  -50.9009 C.ar      23 UNK        -0.0193 
     12 C12         1.0723  -17.8885  -50.9817 C.ar      23 UNK        -0.1150 
     13 C13         2.2309  -18.4537  -50.4355 C.ar      23 UNK        -0.0193 
     14 C14         3.1814  -17.6185  -49.8454 C.ar      23 UNK        -0.1150 
     15 C15         2.4461  -19.9653  -50.4644 C.3       23 UNK        -0.0205 
     16 S16         3.0804  -20.6488  -48.8837 S.3       23 UNK        -0.2404 
     17 C17         1.7656  -20.1796  -47.7011 C.3       23 UNK        -0.0398 
     18 CA          0.8416  -21.3442  -47.2695 C.3       11 UNK         0.1400 
     19 N          -0.1023  -20.9225  -46.2295 N.am      11 UNK        -0.5000 
     20 C          -0.9614  -21.7295  -45.5911 C.2       10 UNK         0.5000 
     21 O          -0.9978  -22.9478  -45.7501 O.2       10 UNK        -0.5000 
     22 CA         -1.9880  -21.0671  -44.6553 C.3       10 UNK         0.1400 
     23 CB         -1.3828  -20.8247  -43.2649 C.3       10 UNK        -0.1800 
     24 N          -2.5235  -19.8165  -45.1948 N.am      10 UNK        -0.5000 
     25 C          -3.2649  -19.7219  -46.3089 C.2       9 UNK         0.5000 
     26 O          -3.6255  -20.6875  -46.9818 O.2       9 UNK        -0.5000 
     27 CA         -3.6362  -18.3059  -46.7800 C.3       9 UNK         0.1400 
     28 CB         -4.8449  -17.7730  -45.9964 C.3       9 UNK        -0.1800 
     29 N          -2.5221  -17.3641  -46.6818 N.am      9 UNK        -0.5000 
     30 C          -1.3669  -17.4862  -47.3523 C.2       8 UNK         0.5000 
     31 O          -1.1439  -18.3859  -48.1630 O.2       8 UNK        -0.5000 
     32 CA         -0.2572  -16.4744  -47.0044 C.3       8 UNK         0.1400 
     33 CB         -0.5195  -15.1167  -47.6685 C.3       8 UNK        -0.1800 
     34 N          -0.1150  -16.2754  -45.5620 N.am      8 UNK        -0.5000 
     35 C           0.2124  -17.2320  -44.6841 C.2       7 UNK         0.5000 
     36 O           0.5230  -18.3763  -45.0115 O.2       7 UNK        -0.5000 
     37 CA          0.1207  -16.8594  -43.1928 C.3       7 UNK         0.1400 
     38 CB          1.3664  -16.1000  -42.7144 C.3       7 UNK        -0.1800 
     39 N          -1.0642  -16.0506  -42.9139 N.am      7 UNK        -0.5000 
     40 C          -2.3180  -16.5208  -42.9110 C.2       6 UNK         0.5000 
     41 O          -2.6061  -17.6980  -43.1225 O.2       6 UNK        -0.5000 
     42 CA         -3.4376  -15.4935  -42.6622 C.3       6 UNK         0.1400 
     43 CB         -3.6579  -15.2882  -41.1562 C.3       6 UNK        -0.1800 
     44 N          -3.1639  -14.2007  -43.2928 N.am      6 UNK        -0.5000 
     45 C          -3.1373  -14.0008  -44.6177 C.2       5 UNK         0.5000 
     46 O          -3.3725  -14.8804  -45.4448 O.2       5 UNK        -0.5000 
     47 CA         -2.7342  -12.5951  -45.0996 C.3       5 UNK         0.1400 
     48 CB         -3.9574  -11.6672  -45.1384 C.3       5 UNK        -0.1800 
     49 N          -1.6786  -11.9764  -44.2916 N.am      5 UNK        -0.5000 
     50 C          -0.4451  -12.4747  -44.1348 C.2       4 UNK         0.5000 
     51 O          -0.0793  -13.5572  -44.5988 O.2       4 UNK        -0.5000 
     52 CA          0.5209  -11.6497  -43.2654 C.3       4 UNK         0.1400 
     53 CB          0.4356  -12.1099  -41.8019 C.3       4 UNK        -0.1800 
     54 N           1.9084  -11.7673  -43.7114 N.am      4 UNK        -0.5000 
     55 C           2.3934  -11.3548  -44.8886 C.2       3 UNK         0.5000 
     56 O           1.7184  -10.7533  -45.7254 O.2       3 UNK        -0.5000 
     57 CA          3.8753  -11.6580  -45.2030 C.3       3 UNK         0.1400 
     58 CB          4.7643  -10.4357  -44.9032 C.3       3 UNK        -0.1800 
     59 N           4.4212  -12.8780  -44.5852 N.am      3 UNK        -0.5000 
     60 C           4.6520  -13.1479  -43.2903 C.2       2 UNK         0.5000 
     61 O           4.3974  -12.3662  -42.3738 O.2       2 UNK        -0.5000 
     62 CA          5.1925  -14.5551  -42.9782 C.3       2 UNK         0.1400 
     63 CB          5.0177  -14.9596  -41.5013 C.3       2 UNK        -0.1800 
     64 N           4.5225  -15.5243  -43.8397 N.am      2 UNK        -0.5000 
     65 C           5.0342  -16.6777  -44.2771 C.2       1 UNK         0.5000 
     66 O           6.1656  -17.0835  -44.0004 O.2       1 UNK        -0.5000 
     67 C           0.1053  -21.9714  -48.4705 C.2       11 UNK         0.5000 
     68 O           0.4401  -23.0832  -48.8793 O.2       11 UNK        -0.5000 
     69 N          -0.9071  -21.2655  -48.9894 N.am      12 UNK        -0.5000 
     70 CA         -1.7214  -21.7193  -50.1151 C.3       12 UNK         0.1400 
     71 CB         -2.5715  -20.5466  -50.6093 C.3       12 UNK        -0.1800 
     72 C          -2.5753  -22.9620  -49.7836 C.2       12 UNK         0.5000 
     73 O          -2.7385  -23.8318  -50.6425 O.2       12 UNK        -0.5000 
     74 N          -3.0554  -23.0554  -48.5335 N.am      13 UNK        -0.5000 
     75 CA         -3.7299  -24.2320  -47.9828 C.3       13 UNK         0.1400 
     76 CB         -4.3388  -23.9037  -46.6096 C.3       13 UNK        -0.1800 
     77 C          -2.7912  -25.4469  -47.8716 C.2       13 UNK         0.5000 
     78 O          -3.1780  -26.5421  -48.2761 O.2       13 UNK        -0.5000 
     79 N          -1.5697  -25.2337  -47.3601 N.am      14 UNK        -0.5000 
     80 CA         -0.5225  -26.2528  -47.2342 C.3       14 UNK         0.1400 
     81 CB          0.6391  -25.7015  -46.3934 C.3       14 UNK        -0.1800 
     82 C          -0.0162  -26.7628  -48.5960 C.2       14 UNK         0.5000 
     83 O           0.2539  -27.9558  -48.7374 O.2       14 UNK        -0.5000 
     84 N           0.0554  -25.8605  -49.5840 N.am      15 UNK        -0.5000 
     85 CA          0.3312  -26.1689  -50.9892 C.3       15 UNK         0.1400 
     86 CB          0.6682  -24.8626  -51.7256 C.3       15 UNK        -0.1800 
     87 C          -0.8322  -26.8978  -51.6960 C.2       15 UNK         0.5000 
     88 O          -0.6243  -27.4488  -52.7775 O.2       15 UNK        -0.5000 
     89 N          -2.0246  -26.8792  -51.0801 N.am      16 UNK        -0.5000 
     90 CA         -3.2897  -27.4629  -51.5331 C.3       16 UNK         0.1400 
     91 CB         -3.1946  -29.0018  -51.5889 C.3       16 UNK        -0.1800 
     92 C          -3.8119  -26.8391  -52.8424 C.2       16 UNK         0.5000 
     93 O          -4.4865  -27.5174  -53.6197 O.2       16 UNK        -0.5000 
     94 N          -3.5029  -25.5553  -53.0616 N.am      17 UNK        -0.5000 
     95 CA         -3.8720  -24.8060  -54.2570 C.3       17 UNK         0.1400 
     96 CB         -2.9828  -25.2370  -55.4439 C.3       17 UNK        -0.1800 
     97 C          -3.7756  -23.2973  -53.9690 C.2       17 UNK         0.5000 
     98 O          -2.8184  -22.6604  -54.4075 O.2       17 UNK        -0.5000 
     99 N          -4.7223  -22.7014  -53.2387 N.am      18 UNK        -0.5000 
    100 CA        -5.8422  -23.2785  -52.5003 C.3       18 UNK         0.1400 
    101 CB        -7.1004  -23.2638  -53.3837 C.3       18 UNK        -0.1800 
    102 C         -6.0421  -22.4350  -51.2310 C.2       18 UNK         0.5000 
    103 O         -5.5071  -21.3283  -51.1434 O.2       18 UNK        -0.5000 
    104 N         -6.7965  -22.9589  -50.2571 N.am      19 UNK        -0.5000 
    105 CA        -7.0356  -22.3155  -48.9619 C.3       19 UNK         0.1400 
    106 CB        -7.9182  -23.2255  -48.0940 C.3       19 UNK        -0.1800 
    107 C         -7.6334  -20.8993  -49.0945 C.2       19 UNK         0.5000 
    108 O         -8.7780  -20.7570  -49.5286 O.2       19 UNK        -0.5000 
    109 N         -6.8147  -19.8939  -48.7512 N.am      20 UNK        -0.5000 
    110 CA        -7.0721  -18.4536  -48.8686 C.3       20 UNK         0.1400 
    111 CB        -8.2351  -18.0226  -47.9501 C.3       20 UNK        -0.1800 
    112 C         -7.2297  -17.9495  -50.3214 C.2       20 UNK         0.5000 
    113 O         -7.8705  -16.9194  -50.5392 O.2       20 UNK        -0.5000 
    114 N         -6.6281  -18.6531  -51.2887 N.am      21 UNK        -0.5000 
    115 CA        -6.6553  -18.3125  -52.7068 C.3       21 UNK         0.1400 
    116 CB        -7.9163  -18.9120  -53.3577 C.3       21 UNK        -0.1800 
    117 C         -5.3583  -18.8122  -53.3576 C.2       21 UNK         0.5000 
    118 O         -5.3214  -19.9309  -53.8677 O.2       21 UNK        -0.5000 
    119 N         -4.3057  -17.9871  -53.3046 N.am      22 UNK        -0.5000 
    120 CA        -2.9580  -18.2995  -53.8216 C.3       22 UNK         0.1400 
    121 C         -2.8566  -18.5295  -55.3618 C.2       22 UNK         0.5000 
    122 N         -3.8526  -18.1676  -56.1614 N.am      22 UNK        -0.7600 
    123 O         -1.8455  -19.0344  -55.8418 O.2       22 UNK        -0.5000 
    124 C124       -1.9096  -17.2396  -53.3931 C.3       23 UNK        -0.0398 
    125 S125       -1.8850  -16.8646  -51.6077 S.3       23 UNK        -0.2404 
    126 C126       -0.3798  -15.8336  -51.5279 C.3       23 UNK        -0.0205 
    127 H127        4.7831  -21.4231  -43.1507 H         1 UNK         0.0600 
    128 H128        4.6936  -21.4436  -44.9149 H         1 UNK         0.0600 
    129 H129        3.2327  -21.6927  -43.9558 H         1 UNK         0.0600 
    130 H130        4.8377  -19.3980  -45.7668 H         1 UNK         0.3000 
    131 H131        3.0849  -17.2816  -44.9464 H         1 UNK         0.0600 
    132 H132        5.3576  -17.1211  -46.9871 H         1 UNK         0.0800 
    133 H133        3.7928  -17.8300  -47.2999 H         1 UNK         0.0800 
    134 H134        4.9425  -15.6909  -49.1215 H         1 UNK         0.0800 
    135 H135        3.8341  -14.3489  -49.2422 H         1 UNK         0.0800 
    136 H136        1.5978  -14.6413  -50.1410 H         1 UNK         0.1150 
    137 H137        0.3498  -18.5293  -51.4656 H         1 UNK         0.1150 
    138 H138        4.0950  -18.0445  -49.4578 H         1 UNK         0.1150 
    139 H139        1.5175  -20.4777  -50.7199 H         1 UNK         0.0800 
    140 H140        3.1564  -20.2002  -51.2578 H         1 UNK         0.0800 
    141 H141        1.1840  -19.3564  -48.1118 H         1 UNK         0.0800 
    142 H142        2.2562  -19.7709  -46.8181 H         1 UNK         0.0800 
    143 H143        1.4690  -22.1227  -46.8307 H         1 UNK         0.0600 
    144 H144       -0.0974  -19.9361  -45.9852 H         1 UNK         0.3000 
    145 H145       -2.8244  -21.7588  -44.5396 H         1 UNK         0.0600 
    146 H146       -1.0162  -21.7564  -42.8324 H         1 UNK         0.0600 
    147 H147       -0.5440  -20.1302  -43.3029 H         1 UNK         0.0600 
    148 H148       -2.1243  -20.4173  -42.5776 H         1 UNK         0.0600 
    149 H149       -2.3231  -18.9732  -44.6675 H         1 UNK         0.3000 
    150 H150       -3.9117  -18.3748  -47.8339 H         1 UNK         0.0600 
    151 H151       -5.6816  -18.4708  -46.0426 H         1 UNK         0.0600 
    152 H152       -5.1896  -16.8214  -46.4014 H         1 UNK         0.0600 
    153 H153       -4.6080  -17.6203  -44.9440 H         1 UNK         0.0600 
    154 H154       -2.6567  -16.5616  -46.0734 H         1 UNK         0.3000 
    155 H155        0.6855  -16.8691  -47.3895 H         1 UNK         0.0600 
    156 H156       -1.3849  -14.6159  -47.2376 H         1 UNK         0.0600 
    157 H157        0.3400  -14.4545  -47.5619 H         1 UNK         0.0600 
    158 H158       -0.7156  -15.2364  -48.7312 H         1 UNK         0.0600 
    159 H159       -0.2973  -15.3380  -45.2126 H         1 UNK         0.3000 
    160 H160        0.0483  -17.7845  -42.6171 H         1 UNK         0.0600 
    161 H161        1.5625  -15.2127  -43.3161 H         1 UNK         0.0600 
    162 H162        2.2460  -16.7393  -42.7598 H         1 UNK         0.0600 
    163 H163        1.2615  -15.7834  -41.6767 H         1 UNK         0.0600 
    164 H164       -0.9190  -15.0593  -42.7951 H         1 UNK         0.3000 
    165 H165       -4.3589  -15.8940  -43.0903 H         1 UNK         0.0600 
    166 H166       -4.4981  -14.6195  -40.9683 H         1 UNK         0.0600 
    167 H167       -3.8808  -16.2350  -40.6624 H         1 UNK         0.0600 
    168 H168       -2.7765  -14.8650  -40.6725 H         1 UNK         0.0600 
    169 H169       -2.9606  -13.4236  -42.6818 H         1 UNK         0.3000 
    170 H170       -2.3529  -12.6940  -46.1177 H         1 UNK         0.0600 
    171 H171       -4.7528  -12.0955  -45.7500 H         1 UNK         0.0600 
    172 H172       -4.3659  -11.4954  -44.1417 H         1 UNK         0.0600 
    173 H173       -3.7044  -10.6985  -45.5698 H         1 UNK         0.0600 
    174 H174       -1.9054  -11.0902  -43.8636 H         1 UNK         0.3000 
    175 H175        0.2367  -10.5972  -43.3231 H         1 UNK         0.0600 
    176 H176        0.7355  -13.1526  -41.6897 H         1 UNK         0.0600 
    177 H177        1.0801  -11.5071  -41.1617 H         1 UNK         0.0600 
    178 H178       -0.5809  -12.0163  -41.4177 H         1 UNK         0.0600 
    179 H179        2.5638  -12.1933  -43.0665 H         1 UNK         0.3000 
    180 H180        3.9226  -11.8367  -46.2785 H         1 UNK         0.0600 
    181 H181        4.7487  -10.1685  -43.8464 H         1 UNK         0.0600 
    182 H182        4.4253   -9.5627  -45.4625 H         1 UNK         0.0600 
    183 H183        5.7998  -10.6213  -45.1883 H         1 UNK         0.0600 
    184 H184        4.6467  -13.6076  -45.2477 H         1 UNK         0.3000 
    185 H185        6.2589  -14.5387  -43.2122 H         1 UNK         0.0600 
    186 H186        5.5383  -14.2665  -40.8395 H         1 UNK         0.0600 
    187 H187        3.9665  -14.9686  -41.2109 H         1 UNK         0.0600 
    188 H188        5.4248  -15.9530  -41.3122 H         1 UNK         0.0600 
    189 H189        3.5982  -15.2563  -44.1473 H         1 UNK         0.3000 
    190 H190       -1.1160  -20.3459  -48.6104 H         1 UNK         0.3000 
    191 H191       -1.0403  -21.9956  -50.9224 H         1 UNK         0.0600 
    192 H192       -3.3382  -20.2667  -49.8860 H         1 UNK         0.0600 
    193 H193       -3.0622  -20.7988  -51.5485 H         1 UNK         0.0600 
    194 H194       -1.9541  -19.6695  -50.7968 H         1 UNK         0.0600 
    195 H195       -2.9395  -22.2636  -47.9082 H         1 UNK         0.3000 
    196 H196       -4.5439  -24.4951  -48.6616 H         1 UNK         0.0600 
    197 H197       -4.9219  -24.7455  -46.2344 H         1 UNK         0.0600 
    198 H198       -5.0048  -23.0439  -46.6527 H         1 UNK         0.0600 
    199 H199       -3.5707  -23.6857  -45.8686 H         1 UNK         0.0600 
    200 H200       -1.3430  -24.3108  -46.9970 H         1 UNK         0.3000 
    201 H201       -0.9505  -27.1048  -46.7022 H         1 UNK         0.0600 
    202 H202        0.3039  -25.4235  -45.3941 H         1 UNK         0.0600 
    203 H203        1.0865  -24.8197  -46.8528 H         1 UNK         0.0600 
    204 H204        1.4263  -26.4472  -46.2765 H         1 UNK         0.0600 
    205 H205       -0.0934  -24.8811  -49.3547 H         1 UNK         0.3000 
    206 H206        1.2045  -26.8228  -51.0316 H         1 UNK         0.0600 
    207 H207        1.5128  -24.3529  -51.2613 H         1 UNK         0.0600 
    208 H208        0.9362  -25.0564  -52.7649 H         1 UNK         0.0600 
    209 H209       -0.1776  -24.1749  -51.7287 H         1 UNK         0.0600 
    210 H210       -2.0806  -26.3929  -50.1946 H         1 UNK         0.3000 
    211 H211       -4.0279  -27.2096  -50.7716 H         1 UNK         0.0600 
    212 H212       -2.5260  -29.3387  -52.3816 H         1 UNK         0.0600 
    213 H213       -4.1721  -29.4483  -51.7744 H         1 UNK         0.0600 
    214 H214       -2.8285  -29.4070  -50.6454 H         1 UNK         0.0600 
    215 H215       -3.0022  -25.0373  -52.3448 H         1 UNK         0.3000 
    216 H216       -4.9078  -25.0281  -54.5180 H         1 UNK         0.0600 
    217 H217       -3.1990  -24.6410  -56.3314 H         1 UNK         0.0600 
    218 H218       -3.1495  -26.2805  -55.7105 H         1 UNK         0.0600 
    219 H219       -1.9230  -25.1181  -55.2148 H         1 UNK         0.0600 
    220 H220       -4.6622  -21.6956  -53.1071 H         1 UNK         0.3000 
    221 H221       -5.6218  -24.2977  -52.1850 H         1 UNK         0.0600 
    222 H222       -7.3443  -22.2528  -53.7113 H         1 UNK         0.0600 
    223 H223       -6.9718  -23.8770  -54.2750 H         1 UNK         0.0600 
    224 H224       -7.9655  -23.6533  -52.8460 H         1 UNK         0.0600 
    225 H225       -7.2421  -23.8526  -50.4031 H         1 UNK         0.3000 
    226 H226       -6.0653  -22.2256  -48.4725 H         1 UNK         0.0600 
    227 H227       -7.4398  -24.1894  -47.9192 H         1 UNK         0.0600 
    228 H228       -8.1021  -22.7737  -47.1184 H         1 UNK         0.0600 
    229 H229       -8.8873  -23.4092  -48.5594 H         1 UNK         0.0600 
    230 H230       -5.8819  -20.1402  -48.4493 H         1 UNK         0.3000 
    231 H231       -6.1742  -17.9597  -48.5008 H         1 UNK         0.0600 
    232 H232       -8.3107  -16.9360  -47.8974 H         1 UNK         0.0600 
    233 H233       -8.0908  -18.3844  -46.9322 H         1 UNK         0.0600 
    234 H234       -9.1942  -18.3985  -48.3070 H         1 UNK         0.0600 
    235 H235       -6.1291  -19.5104  -51.0585 H         1 UNK         0.3000 
    236 H236       -6.6883  -17.2279  -52.8305 H         1 UNK         0.0600 
    237 H237       -8.8212  -18.4586  -52.9532 H         1 UNK         0.0600 
    238 H238       -7.9201  -18.7430  -54.4351 H         1 UNK         0.0600 
    239 H239       -7.9811  -19.9873  -53.1900 H         1 UNK         0.0600 
    240 H240       -4.4011  -17.0950  -52.8420 H         1 UNK         0.3000 
    241 H241       -2.6663  -19.2472  -53.3663 H         1 UNK         0.0600 
    242 H242       -3.7730  -18.3224  -57.1541 H         1 UNK         0.3800 
    243 H243       -4.6917  -17.7590  -55.7835 H         1 UNK         0.3800 
    244 H244       -0.9089  -17.5712  -53.6775 H         1 UNK         0.0800 
    245 H245       -2.0847  -16.3034  -53.9266 H         1 UNK         0.0800 
    246 H246       -0.1062  -15.4938  -52.5274 H         1 UNK         0.0800 
    247 H247       -0.6322  -14.9289  -50.9746 H         1 UNK         0.0800 
@<TRIPOS>BOND
     1    1    2 1    
     2    1  127 1    
     3    1  128 1    
     4    1  129 1    
     5    2    3 2    
     6    2    4 am   BACKBONE|DICT|INTERRES
     7    4    5 1    
     8    4  130 1    
     9    5    6 1    
    10    5   65 1    
    11    5  131 1    
    12    6    7 1    
    13    6  132 1    
    14    6  133 1    
    15    7    8 1    
    16    8    9 1    
    17    8  134 1    
    18    8  135 1    
    19    9   10 ar   
    20    9   14 ar   
    21   10   11 ar   
    22   10  136 1    
    23   11   12 ar   
    24   11  126 1    
    25   12   13 ar   
    26   12  137 1    
    27   13   14 ar   
    28   13   15 1    
    29   14  138 1    
    30   15   16 1    
    31   15  139 1    
    32   15  140 1    
    33   16   17 1    
    34   17   18 1    
    35   17  141 1    
    36   17  142 1    
    37   18   19 1    
    38   18   67 1    
    39   18  143 1    
    40   19   20 am   BACKBONE|DICT|INTERRES
    41   19  144 1    
    42   20   21 2    
    43   20   22 1    
    44   22   23 1    
    45   22   24 1    
    46   22  145 1    
    47   23  146 1    
    48   23  147 1    
    49   23  148 1    
    50   24   25 am   BACKBONE|DICT|INTERRES
    51   24  149 1    
    52   25   26 2    
    53   25   27 1    
    54   27   28 1    
    55   27   29 1    
    56   27  150 1    
    57   28  151 1    
    58   28  152 1    
    59   28  153 1    
    60   29   30 am   BACKBONE|DICT|INTERRES
    61   29  154 1    
    62   30   31 2    
    63   30   32 1    
    64   32   33 1    
    65   32   34 1    
    66   32  155 1    
    67   33  156 1    
    68   33  157 1    
    69   33  158 1    
    70   34   35 am   BACKBONE|DICT|INTERRES
    71   34  159 1    
    72   35   36 2    
    73   35   37 1    
    74   37   38 1    
    75   37   39 1    
    76   37  160 1    
    77   38  161 1    
    78   38  162 1    
    79   38  163 1    
    80   39   40 am   BACKBONE|DICT|INTERRES
    81   39  164 1    
    82   40   41 2    
    83   40   42 1    
    84   42   43 1    
    85   42   44 1    
    86   42  165 1    
    87   43  166 1    
    88   43  167 1    
    89   43  168 1    
    90   44   45 am   BACKBONE|DICT|INTERRES
    91   44  169 1    
    92   45   46 2    
    93   45   47 1    
    94   47   48 1    
    95   47   49 1    
    96   47  170 1    
    97   48  171 1    
    98   48  172 1    
    99   48  173 1    
   100   49   50 am   BACKBONE|DICT|INTERRES
   101   49  174 1    
   102   50   51 2    
   103   50   52 1    
   104   52   53 1    
   105   52   54 1    
   106   52  175 1    
   107   53  176 1    
   108   53  177 1    
   109   53  178 1    
   110   54   55 am   BACKBONE|DICT|INTERRES
   111   54  179 1    
   112   55   56 2    
   113   55   57 1    
   114   57   58 1    
   115   57   59 1    
   116   57  180 1    
   117   58  181 1    
   118   58  182 1    
   119   58  183 1    
   120   59   60 am   BACKBONE|DICT|INTERRES
   121   59  184 1    
   122   60   61 2    
   123   60   62 1    
   124   62   63 1    
   125   62   64 1    
   126   62  185 1    
   127   63  186 1    
   128   63  187 1    
   129   63  188 1    
   130   64   65 am   BACKBONE|DICT|INTERRES
   131   64  189 1    
   132   65   66 2    
   133   67   68 2    
   134   67   69 am   BACKBONE|DICT|INTERRES
   135   69   70 1    
   136   69  190 1    
   137   70   71 1    
   138   70   72 1    
   139   70  191 1    
   140   71  192 1    
   141   71  193 1    
   142   71  194 1    
   143   72   73 2    
   144   72   74 am   BACKBONE|DICT|INTERRES
   145   74   75 1    
   146   74  195 1    
   147   75   76 1    
   148   75   77 1    
   149   75  196 1    
   150   76  197 1    
   151   76  198 1    
   152   76  199 1    
   153   77   78 2    
   154   77   79 am   BACKBONE|DICT|INTERRES
   155   79   80 1    
   156   79  200 1    
   157   80   81 1    
   158   80   82 1    
   159   80  201 1    
   160   81  202 1    
   161   81  203 1    
   162   81  204 1    
   163   82   83 2    
   164   82   84 am   BACKBONE|DICT|INTERRES
   165   84   85 1    
   166   84  205 1    
   167   85   86 1    
   168   85   87 1    
   169   85  206 1    
   170   86  207 1    
   171   86  208 1    
   172   86  209 1    
   173   87   88 2    
   174   87   89 am   BACKBONE|DICT|INTERRES
   175   89   90 1    
   176   89  210 1    
   177   90   91 1    
   178   90   92 1    
   179   90  211 1    
   180   91  212 1    
   181   91  213 1    
   182   91  214 1    
   183   92   93 2    
   184   92   94 am   BACKBONE|DICT|INTERRES
   185   94   95 1    
   186   94  215 1    
   187   95   96 1    
   188   95   97 1    
   189   95  216 1    
   190   96  217 1    
   191   96  218 1    
   192   96  219 1    
   193   97   98 2    
   194   97   99 am   BACKBONE|DICT|INTERRES
   195   99  100 1    
   196   99  220 1    
   197  100  101 1    
   198  100  102 1    
   199  100  221 1    
   200  101  222 1    
   201  101  223 1    
   202  101  224 1    
   203  102  103 2    
   204  102  104 am   BACKBONE|DICT|INTERRES
   205  104  105 1    
   206  104  225 1    
   207  105  106 1    
   208  105  107 1    
   209  105  226 1    
   210  106  227 1    
   211  106  228 1    
   212  106  229 1    
   213  107  108 2    
   214  107  109 am   BACKBONE|DICT|INTERRES
   215  109  110 1    
   216  109  230 1    
   217  110  111 1    
   218  110  112 1    
   219  110  231 1    
   220  111  232 1    
   221  111  233 1    
   222  111  234 1    
   223  112  113 2    
   224  112  114 am   BACKBONE|DICT|INTERRES
   225  114  115 1    
   226  114  235 1    
   227  115  116 1    
   228  115  117 1    
   229  115  236 1    
   230  116  237 1    
   231  116  238 1    
   232  116  239 1    
   233  117  118 2    
   234  117  119 am   BACKBONE|DICT|INTERRES
   235  119  120 1    
   236  119  240 1    
   237  120  121 1    
   238  120  124 1    
   239  120  241 1    
   240  121  122 am   BACKBONE|DICT|INTERRES
   241  121  123 2    
   242  122  242 1    
   243  122  243 1    
   244  124  125 1    
   245  124  244 1    
   246  124  245 1    
   247  125  126 1    
   248  126  246 1    
   249  126  247 1    
@<TRIPOS>SUBSTRUCTURE
     1 UNK         1 GROUP             0       ****    0 ROOT    
