@<TRIPOS>MOLECULE
3R540
247   249    1
SMALL
USER_CHARGES


@<TRIPOS>ATOM
      1 CA         -2.9228  -13.2237  -46.0722 C.3       0 UNK        -0.1800 
      2 C          -2.0048  -12.3688  -46.9340 C.2       0 UNK         0.5000 
      3 O          -2.4790  -11.4506  -47.6036 O.2       0 UNK        -0.5000 
      4 N          -0.7006  -12.6658  -46.9225 N.am      1 UNK        -0.5000 
      5 CA          0.3302  -11.8970  -47.6258 C.3       1 UNK         0.1400 
      6 C6          1.5328  -12.7855  -48.0334 C.3       23 UNK        -0.0398 
      7 S7          1.0732  -14.0217  -49.2917 S.3       23 UNK        -0.2404 
      8 C8          1.0102  -15.5243  -48.2732 C.3       23 UNK        -0.0205 
      9 C9          0.4009  -16.6959  -49.0258 C.ar      23 UNK        -0.0193 
     10 C10        -0.9489  -16.6679  -49.3928 C.ar      23 UNK        -0.1150 
     11 C11        -1.5350  -17.7670  -50.0251 C.ar      23 UNK        -0.0193 
     12 C12        -0.7552  -18.8885  -50.3105 C.ar      23 UNK        -0.1150 
     13 C13         0.5936  -18.9303  -49.9520 C.ar      23 UNK        -0.0193 
     14 C14         1.1689  -17.8290  -49.3120 C.ar      23 UNK        -0.1150 
     15 C15         1.4186  -20.1754  -50.2398 C.3       23 UNK        -0.0205 
     16 S16         1.5795  -21.2379  -48.7695 S.3       23 UNK        -0.2404 
     17 C17        -0.1602  -21.6863  -48.4549 C.3       23 UNK        -0.0398 
     18 CA         -0.2883  -22.8549  -47.4534 C.3       11 UNK         0.1400 
     19 N           0.0458  -22.4395  -46.0859 N.am      11 UNK        -0.5000 
     20 C           0.1543  -23.2707  -45.0406 C.2       10 UNK         0.5000 
     21 O           0.0191  -24.4898  -45.1228 O.2       10 UNK        -0.5000 
     22 CA          0.3994  -22.6360  -43.6609 C.3       10 UNK         0.1400 
     23 CB          1.8662  -22.2090  -43.5013 C.3       10 UNK        -0.1800 
     24 N          -0.4834  -21.4987  -43.4036 N.am      10 UNK        -0.5000 
     25 C          -1.8196  -21.5754  -43.3221 C.2       9 UNK         0.5000 
     26 O          -2.4499  -22.6289  -43.4080 O.2       9 UNK        -0.5000 
     27 CA         -2.5857  -20.2476  -43.1707 C.3       9 UNK         0.1400 
     28 CB         -2.5798  -19.7689  -41.7116 C.3       9 UNK        -0.1800 
     29 N          -2.0599  -19.1939  -44.0393 N.am      9 UNK        -0.5000 
     30 C          -2.0568  -19.2500  -45.3793 C.2       8 UNK         0.5000 
     31 O          -2.5349  -20.1772  -46.0309 O.2       8 UNK        -0.5000 
     32 CA         -1.3543  -18.0990  -46.1130 C.3       8 UNK         0.1400 
     33 CB         -2.2865  -16.8846  -46.2323 C.3       8 UNK        -0.1800 
     34 N          -0.1056  -17.7135  -45.4550 N.am      8 UNK        -0.5000 
     35 C           0.9767  -18.5036  -45.3903 C.2       7 UNK         0.5000 
     36 O           1.0353  -19.6248  -45.8922 O.2       7 UNK        -0.5000 
     37 CA          2.1671  -17.9801  -44.5673 C.3       7 UNK         0.1400 
     38 CB          3.0007  -16.9770  -45.3779 C.3       7 UNK        -0.1800 
     39 N           1.7413  -17.3574  -43.3147 N.am      7 UNK        -0.5000 
     40 C           1.1355  -18.0096  -42.3116 C.2       6 UNK         0.5000 
     41 O           0.9300  -19.2221  -42.3128 O.2       6 UNK        -0.5000 
     42 CA          0.6360  -17.1624  -41.1269 C.3       6 UNK         0.1400 
     43 CB          1.6915  -17.1257  -40.0121 C.3       6 UNK        -0.1800 
     44 N           0.2835  -15.7912  -41.5000 N.am      6 UNK        -0.5000 
     45 C          -0.6876  -15.4438  -42.3585 C.2       5 UNK         0.5000 
     46 O          -1.4125  -16.2569  -42.9325 O.2       5 UNK        -0.5000 
     47 CA         -0.8341  -13.9389  -42.6564 C.3       5 UNK         0.1400 
     48 CB         -1.8817  -13.3023  -41.7324 C.3       5 UNK        -0.1800 
     49 N           0.4400  -13.2294  -42.5141 N.am      5 UNK        -0.5000 
     50 C           1.4258  -13.2764  -43.4185 C.2       4 UNK         0.5000 
     51 O           1.3214  -13.8155  -44.5243 O.2       4 UNK        -0.5000 
     52 CA          2.7770  -12.7027  -42.9746 C.3       4 UNK         0.1400 
     53 CB          3.6542  -13.8417  -42.4139 C.3       4 UNK        -0.1800 
     54 N           3.4245  -12.0544  -44.1100 N.am      4 UNK        -0.5000 
     55 C           4.5388  -11.3126  -44.0572 C.2       3 UNK         0.5000 
     56 O           5.1698  -11.0895  -43.0232 O.2       3 UNK        -0.5000 
     57 CA          5.0228  -10.6962  -45.3831 C.3       3 UNK         0.1400 
     58 CB          5.7310  -11.7520  -46.2469 C.3       3 UNK        -0.1800 
     59 N           3.9338  -10.0945  -46.1514 N.am      3 UNK        -0.5000 
     60 C           3.2579   -8.9923  -45.7930 C.2       2 UNK         0.5000 
     61 O           3.5314   -8.3108  -44.8044 O.2       2 UNK        -0.5000 
     62 CA          2.0647   -8.5907  -46.6852 C.3       2 UNK         0.1400 
     63 CB          2.4992   -7.5530  -47.7316 C.3       2 UNK        -0.1800 
     64 N           1.4443   -9.7311  -47.3680 N.am      2 UNK        -0.5000 
     65 C           0.7999  -10.7253  -46.7418 C.2       1 UNK         0.5000 
     66 O           0.6212  -10.7534  -45.5216 O.2       1 UNK        -0.5000 
     67 C          -1.6863  -23.5056  -47.5408 C.2       11 UNK         0.5000 
     68 O          -1.8357  -24.5414  -48.1942 O.2       11 UNK        -0.5000 
     69 N          -2.6728  -22.9156  -46.8503 N.am      12 UNK        -0.5000 
     70 CA         -4.0351  -23.4352  -46.7475 C.3       12 UNK         0.1400 
     71 CB         -4.9431  -22.4035  -46.0640 C.3       12 UNK        -0.1800 
     72 C          -4.1085  -24.7962  -46.0339 C.2       12 UNK         0.5000 
     73 O          -4.8383  -25.6785  -46.4849 O.2       12 UNK        -0.5000 
     74 N          -3.3320  -24.9572  -44.9549 N.am      13 UNK        -0.5000 
     75 CA         -3.1941  -26.2176  -44.2266 C.3       13 UNK         0.1400 
     76 CB         -2.4765  -25.9609  -42.8927 C.3       13 UNK        -0.1800 
     77 C          -2.4596  -27.2983  -45.0428 C.2       13 UNK         0.5000 
     78 O          -2.8398  -28.4679  -44.9767 O.2       13 UNK        -0.5000 
     79 N          -1.4232  -26.8911  -45.7881 N.am      14 UNK        -0.5000 
     80 CA         -0.5736  -27.7710  -46.5862 C.3       14 UNK         0.1400 
     81 CB          0.6904  -27.0155  -47.0269 C.3       14 UNK        -0.1800 
     82 C          -1.2851  -28.3806  -47.8049 C.2       14 UNK         0.5000 
     83 O          -1.1735  -29.5898  -48.0150 O.2       14 UNK        -0.5000 
     84 N          -1.9729  -27.5490  -48.6004 N.am      15 UNK        -0.5000 
     85 CA         -2.5231  -27.9607  -49.8938 C.3       15 UNK         0.1400 
     86 CB         -1.4056  -27.9746  -50.9588 C.3       15 UNK        -0.1800 
     87 C          -3.7321  -27.1072  -50.3055 C.2       15 UNK         0.5000 
     88 O          -3.7918  -26.6408  -51.4458 O.2       15 UNK        -0.5000 
     89 N          -4.6717  -26.8987  -49.3708 N.am      16 UNK        -0.5000 
     90 CA         -5.9749  -26.2156  -49.4974 C.3       16 UNK         0.1400 
     91 CB         -6.8716  -26.9216  -50.5321 C.3       16 UNK        -0.1800 
     92 C          -5.9048  -24.6993  -49.7793 C.2       16 UNK         0.5000 
     93 O          -6.7242  -23.9424  -49.2583 O.2       16 UNK        -0.5000 
     94 N          -4.9102  -24.2872  -50.5638 N.am      17 UNK        -0.5000 
     95 CA         -4.5304  -22.9166  -50.8828 C.3       17 UNK         0.1400 
     96 CB         -5.4857  -22.3143  -51.9285 C.3       17 UNK        -0.1800 
     97 C          -3.0784  -22.8640  -51.3823 C.2       17 UNK         0.5000 
     98 O          -2.4335  -21.8328  -51.2089 O.2       17 UNK        -0.5000 
     99 N          -2.5924  -23.9546  -52.0013 N.am      18 UNK        -0.5000 
    100 CA        -1.2538  -24.1919  -52.5638 C.3       18 UNK         0.1400 
    101 CB        -0.1622  -24.1237  -51.4794 C.3       18 UNK        -0.1800 
    102 C         -0.8968  -23.2938  -53.7649 C.2       18 UNK         0.5000 
    103 O         -0.5111  -23.8084  -54.8147 O.2       18 UNK        -0.5000 
    104 N         -1.0451  -21.9751  -53.5968 N.am      19 UNK        -0.5000 
    105 CA        -0.8246  -20.9551  -54.6217 C.3       19 UNK         0.1400 
    106 CB        -0.6509  -19.5933  -53.9332 C.3       19 UNK        -0.1800 
    107 C         -1.9649  -20.8904  -55.6551 C.2       19 UNK         0.5000 
    108 O         -1.7483  -20.3883  -56.7578 O.2       19 UNK        -0.5000 
    109 N         -3.1576  -21.3742  -55.2725 N.am      20 UNK        -0.5000 
    110 CA        -4.4072  -21.5066  -56.0396 C.3       20 UNK         0.1400 
    111 CB        -4.2096  -22.4322  -57.2548 C.3       20 UNK        -0.1800 
    112 C         -5.0828  -20.1831  -56.4599 C.2       20 UNK         0.5000 
    113 O         -6.3090  -20.1440  -56.5611 O.2       20 UNK        -0.5000 
    114 N         -4.2944  -19.1257  -56.6836 N.am      21 UNK        -0.5000 
    115 CA        -4.7463  -17.7844  -57.0596 C.3       21 UNK         0.1400 
    116 CB        -3.5407  -16.9953  -57.5936 C.3       21 UNK        -0.1800 
    117 C         -5.4270  -17.0134  -55.9100 C.2       21 UNK         0.5000 
    118 O         -6.1477  -16.0504  -56.1762 O.2       21 UNK        -0.5000 
    119 N         -5.1731  -17.4323  -54.6639 N.am      22 UNK        -0.5000 
    120 CA        -5.7498  -16.8717  -53.4332 C.3       22 UNK         0.1400 
    121 C         -7.2974  -17.0094  -53.3726 C.2       22 UNK         0.5000 
    122 N         -8.0037  -15.9752  -52.9365 N.am      22 UNK        -0.7600 
    123 O         -7.8579  -18.0613  -53.6714 O.2       22 UNK        -0.5000 
    124 C124       -5.1135  -17.5099  -52.1737 C.3       23 UNK        -0.0398 
    125 S125       -3.3114  -17.2494  -52.0793 S.3       23 UNK        -0.2404 
    126 C126       -3.0159  -17.7681  -50.3637 C.3       23 UNK        -0.0205 
    127 H127       -2.3857  -14.0440  -45.6005 H         1 UNK         0.0600 
    128 H128       -3.3752  -12.6170  -45.2879 H         1 UNK         0.0600 
    129 H129       -3.7206  -13.6498  -46.6804 H         1 UNK         0.0600 
    130 H130       -0.3499  -13.3672  -46.2851 H         1 UNK         0.3000 
    131 H131       -0.0981  -11.4698  -48.5354 H         1 UNK         0.0600 
    132 H132        2.3312  -12.1825  -48.4688 H         1 UNK         0.0800 
    133 H133        1.9690  -13.2800  -47.1635 H         1 UNK         0.0800 
    134 H134        0.4255  -15.3371  -47.3725 H         1 UNK         0.0800 
    135 H135        2.0218  -15.7633  -47.9440 H         1 UNK         0.0800 
    136 H136       -1.5468  -15.7964  -49.1661 H         1 UNK         0.1150 
    137 H137       -1.2055  -19.7373  -50.8002 H         1 UNK         0.1150 
    138 H138        2.2085  -17.8667  -49.0188 H         1 UNK         0.1150 
    139 H139        0.9769  -20.7489  -51.0561 H         1 UNK         0.0800 
    140 H140        2.4141  -19.8831  -50.5763 H         1 UNK         0.0800 
    141 H141       -0.6163  -21.9417  -49.4089 H         1 UNK         0.0800 
    142 H142       -0.6948  -20.8081  -48.0895 H         1 UNK         0.0800 
    143 H143        0.4281  -23.6270  -47.7415 H         1 UNK         0.0600 
    144 H144        0.2215  -21.4483  -45.9470 H         1 UNK         0.3000 
    145 H145        0.1868  -23.3957  -42.9059 H         1 UNK         0.0600 
    146 H146        2.0601  -21.8372  -42.4952 H         1 UNK         0.0600 
    147 H147        2.5382  -23.0507  -43.6727 H         1 UNK         0.0600 
    148 H148        2.1383  -21.4229  -44.2055 H         1 UNK         0.0600 
    149 H149       -0.0338  -20.5983  -43.2646 H         1 UNK         0.3000 
    150 H150       -3.6224  -20.4271  -43.4626 H         1 UNK         0.0600 
    151 H151       -3.0488  -20.5073  -41.0603 H         1 UNK         0.0600 
    152 H152       -3.1324  -18.8360  -41.5984 H         1 UNK         0.0600 
    153 H153       -1.5675  -19.6066  -41.3430 H         1 UNK         0.0600 
    154 H154       -1.6629  -18.3778  -43.5899 H         1 UNK         0.3000 
    155 H155       -1.1105  -18.4465  -47.1185 H         1 UNK         0.0600 
    156 H156       -2.6293  -16.5358  -45.2583 H         1 UNK         0.0600 
    157 H157       -3.1714  -17.1342  -46.8189 H         1 UNK         0.0600 
    158 H158       -1.7921  -16.0531  -46.7306 H         1 UNK         0.0600 
    159 H159       -0.1046  -16.8386  -44.9516 H         1 UNK         0.3000 
    160 H160        2.8030  -18.8339  -44.3235 H         1 UNK         0.0600 
    161 H161        3.9083  -16.6972  -44.8429 H         1 UNK         0.0600 
    162 H162        2.4424  -16.0642  -45.5856 H         1 UNK         0.0600 
    163 H163        3.3057  -17.4042  -46.3342 H         1 UNK         0.0600 
    164 H164        1.8572  -16.3583  -43.2404 H         1 UNK         0.3000 
    165 H165       -0.2625  -17.6412  -40.7332 H         1 UNK         0.0600 
    166 H166        1.3223  -16.5932  -39.1355 H         1 UNK         0.0600 
    167 H167        1.9539  -18.1346  -39.6905 H         1 UNK         0.0600 
    168 H168        2.6096  -16.6374  -40.3413 H         1 UNK         0.0600 
    169 H169        0.8219  -15.0567  -41.0670 H         1 UNK         0.3000 
    170 H170       -1.1795  -13.8342  -43.6848 H         1 UNK         0.0600 
    171 H171       -2.8470  -13.7995  -41.8375 H         1 UNK         0.0600 
    172 H172       -1.5902  -13.3682  -40.6835 H         1 UNK         0.0600 
    173 H173       -2.0316  -12.2499  -41.9746 H         1 UNK         0.0600 
    174 H174        0.5938  -12.7479  -41.6395 H         1 UNK         0.3000 
    175 H175        2.6079  -11.9535  -42.1985 H         1 UNK         0.0600 
    176 H176        3.8974  -14.5751  -43.1838 H         1 UNK         0.0600 
    177 H177        4.5916  -13.4673  -42.0036 H         1 UNK         0.0600 
    178 H178        3.1462  -14.3694  -41.6062 H         1 UNK         0.0600 
    179 H179        2.9350  -12.1658  -44.9871 H         1 UNK         0.3000 
    180 H180        5.7449   -9.9122  -45.1448 H         1 UNK         0.0600 
    181 H181        5.0532  -12.5522  -46.5471 H         1 UNK         0.0600 
    182 H182        6.5577  -12.2099  -45.7021 H         1 UNK         0.0600 
    183 H183        6.1466  -11.3071  -47.1512 H         1 UNK         0.0600 
    184 H184        3.6572  -10.5690  -46.9966 H         1 UNK         0.3000 
    185 H185        1.3122   -8.1317  -46.0404 H         1 UNK         0.0600 
    186 H186        2.9425   -6.6785  -47.2533 H         1 UNK         0.0600 
    187 H187        3.2399   -7.9607  -48.4206 H         1 UNK         0.0600 
    188 H188        1.6493   -7.2041  -48.3183 H         1 UNK         0.0600 
    189 H189        1.5423   -9.7580  -48.3732 H         1 UNK         0.3000 
    190 H190       -2.4887  -22.0342  -46.3770 H         1 UNK         0.3000 
    191 H191       -4.3971  -23.5755  -47.7634 H         1 UNK         0.0600 
    192 H192       -4.6126  -22.1842  -45.0488 H         1 UNK         0.0600 
    193 H193       -5.9699  -22.7668  -46.0058 H         1 UNK         0.0600 
    194 H194       -4.9621  -21.4664  -46.6206 H         1 UNK         0.0600 
    195 H195       -2.8031  -24.1641  -44.6040 H         1 UNK         0.3000 
    196 H196       -4.1956  -26.5918  -44.0046 H         1 UNK         0.0600 
    197 H197       -2.3758  -26.8829  -42.3188 H         1 UNK         0.0600 
    198 H198       -3.0317  -25.2529  -42.2772 H         1 UNK         0.0600 
    199 H199       -1.4753  -25.5565  -43.0446 H         1 UNK         0.0600 
    200 H200       -1.1340  -25.9190  -45.7278 H         1 UNK         0.3000 
    201 H201       -0.2578  -28.5962  -45.9444 H         1 UNK         0.0600 
    202 H202        1.2736  -26.6881  -46.1662 H         1 UNK         0.0600 
    203 H203        0.4471  -26.1350  -47.6219 H         1 UNK         0.0600 
    204 H204        1.3370  -27.6523  -47.6319 H         1 UNK         0.0600 
    205 H205       -2.0182  -26.5579  -48.3755 H         1 UNK         0.3000 
    206 H206       -2.9126  -28.9772  -49.8070 H         1 UNK         0.0600 
    207 H207       -0.6101  -28.6707  -50.6933 H         1 UNK         0.0600 
    208 H208       -1.7884  -28.2859  -51.9316 H         1 UNK         0.0600 
    209 H209       -0.9581  -26.9888  -51.0793 H         1 UNK         0.0600 
    210 H210       -4.4819  -27.2515  -48.4418 H         1 UNK         0.3000 
    211 H211       -6.4591  -26.3245  -48.5260 H         1 UNK         0.0600 
    212 H212       -6.4702  -26.8426  -51.5428 H         1 UNK         0.0600 
    213 H213       -7.8697  -26.4819  -50.5448 H         1 UNK         0.0600 
    214 H214       -6.9862  -27.9798  -50.2977 H         1 UNK         0.0600 
    215 H215       -4.3068  -25.0231  -50.9200 H         1 UNK         0.3000 
    216 H216       -4.5812  -22.3202  -49.9695 H         1 UNK         0.0600 
    217 H217       -5.1852  -21.3002  -52.1960 H         1 UNK         0.0600 
    218 H218       -6.5054  -22.2580  -51.5479 H         1 UNK         0.0600 
    219 H219       -5.5030  -22.9068  -52.8439 H         1 UNK         0.0600 
    220 H220       -3.2161  -24.7417  -52.1293 H         1 UNK         0.3000 
    221 H221       -1.2793  -25.2186  -52.9327 H         1 UNK         0.0600 
    222 H222        0.0575  -23.0978  -51.1904 H         1 UNK         0.0600 
    223 H223       -0.4500  -24.6730  -50.5834 H         1 UNK         0.0600 
    224 H224        0.7691  -24.5581  -51.8440 H         1 UNK         0.0600 
    225 H225       -1.4041  -21.6626  -52.6969 H         1 UNK         0.3000 
    226 H226        0.0968  -21.1906  -55.1583 H         1 UNK         0.0600 
    227 H227        0.2051  -19.5978  -53.2585 H         1 UNK         0.0600 
    228 H228       -0.4835  -18.8004  -54.6633 H         1 UNK         0.0600 
    229 H229       -1.5331  -19.3239  -53.3521 H         1 UNK         0.0600 
    230 H230       -3.2045  -21.7278  -54.3285 H         1 UNK         0.3000 
    231 H231       -5.1083  -22.0020  -55.3661 H         1 UNK         0.0600 
    232 H232       -3.8010  -23.3967  -56.9531 H         1 UNK         0.0600 
    233 H233       -3.5346  -21.9975  -57.9925 H         1 UNK         0.0600 
    234 H234       -5.1588  -22.6239  -57.7566 H         1 UNK         0.0600 
    235 H235       -3.2916  -19.2827  -56.6497 H         1 UNK         0.3000 
    236 H236       -5.4764  -17.8827  -57.8656 H         1 UNK         0.0600 
    237 H237       -3.8373  -15.9965  -57.9164 H         1 UNK         0.0600 
    238 H238       -2.7682  -16.8794  -56.8321 H         1 UNK         0.0600 
    239 H239       -3.0923  -17.4939  -58.4531 H         1 UNK         0.0600 
    240 H240       -4.5651  -18.2278  -54.5466 H         1 UNK         0.3000 
    241 H241       -5.5075  -15.8070  -53.4292 H         1 UNK         0.0600 
    242 H242       -9.0070  -16.0579  -52.8775 H         1 UNK         0.3800 
    243 H243       -7.5652  -15.1038  -52.6799 H         1 UNK         0.3800 
    244 H244       -5.5629  -17.0881  -51.2725 H         1 UNK         0.0800 
    245 H245       -5.3121  -18.5829  -52.1438 H         1 UNK         0.0800 
    246 H246       -3.5573  -17.1074  -49.6847 H         1 UNK         0.0800 
    247 H247       -3.4238  -18.7692  -50.2125 H         1 UNK         0.0800 
@<TRIPOS>BOND
     1    1    2 1    
     2    1  127 1    
     3    1  128 1    
     4    1  129 1    
     5    2    3 2    
     6    2    4 am   BACKBONE|DICT|INTERRES
     7    4    5 1    
     8    4  130 1    
     9    5    6 1    
    10    5   65 1    
    11    5  131 1    
    12    6    7 1    
    13    6  132 1    
    14    6  133 1    
    15    7    8 1    
    16    8    9 1    
    17    8  134 1    
    18    8  135 1    
    19    9   10 ar   
    20    9   14 ar   
    21   10   11 ar   
    22   10  136 1    
    23   11   12 ar   
    24   11  126 1    
    25   12   13 ar   
    26   12  137 1    
    27   13   14 ar   
    28   13   15 1    
    29   14  138 1    
    30   15   16 1    
    31   15  139 1    
    32   15  140 1    
    33   16   17 1    
    34   17   18 1    
    35   17  141 1    
    36   17  142 1    
    37   18   19 1    
    38   18   67 1    
    39   18  143 1    
    40   19   20 am   BACKBONE|DICT|INTERRES
    41   19  144 1    
    42   20   21 2    
    43   20   22 1    
    44   22   23 1    
    45   22   24 1    
    46   22  145 1    
    47   23  146 1    
    48   23  147 1    
    49   23  148 1    
    50   24   25 am   BACKBONE|DICT|INTERRES
    51   24  149 1    
    52   25   26 2    
    53   25   27 1    
    54   27   28 1    
    55   27   29 1    
    56   27  150 1    
    57   28  151 1    
    58   28  152 1    
    59   28  153 1    
    60   29   30 am   BACKBONE|DICT|INTERRES
    61   29  154 1    
    62   30   31 2    
    63   30   32 1    
    64   32   33 1    
    65   32   34 1    
    66   32  155 1    
    67   33  156 1    
    68   33  157 1    
    69   33  158 1    
    70   34   35 am   BACKBONE|DICT|INTERRES
    71   34  159 1    
    72   35   36 2    
    73   35   37 1    
    74   37   38 1    
    75   37   39 1    
    76   37  160 1    
    77   38  161 1    
    78   38  162 1    
    79   38  163 1    
    80   39   40 am   BACKBONE|DICT|INTERRES
    81   39  164 1    
    82   40   41 2    
    83   40   42 1    
    84   42   43 1    
    85   42   44 1    
    86   42  165 1    
    87   43  166 1    
    88   43  167 1    
    89   43  168 1    
    90   44   45 am   BACKBONE|DICT|INTERRES
    91   44  169 1    
    92   45   46 2    
    93   45   47 1    
    94   47   48 1    
    95   47   49 1    
    96   47  170 1    
    97   48  171 1    
    98   48  172 1    
    99   48  173 1    
   100   49   50 am   BACKBONE|DICT|INTERRES
   101   49  174 1    
   102   50   51 2    
   103   50   52 1    
   104   52   53 1    
   105   52   54 1    
   106   52  175 1    
   107   53  176 1    
   108   53  177 1    
   109   53  178 1    
   110   54   55 am   BACKBONE|DICT|INTERRES
   111   54  179 1    
   112   55   56 2    
   113   55   57 1    
   114   57   58 1    
   115   57   59 1    
   116   57  180 1    
   117   58  181 1    
   118   58  182 1    
   119   58  183 1    
   120   59   60 am   BACKBONE|DICT|INTERRES
   121   59  184 1    
   122   60   61 2    
   123   60   62 1    
   124   62   63 1    
   125   62   64 1    
   126   62  185 1    
   127   63  186 1    
   128   63  187 1    
   129   63  188 1    
   130   64   65 am   BACKBONE|DICT|INTERRES
   131   64  189 1    
   132   65   66 2    
   133   67   68 2    
   134   67   69 am   BACKBONE|DICT|INTERRES
   135   69   70 1    
   136   69  190 1    
   137   70   71 1    
   138   70   72 1    
   139   70  191 1    
   140   71  192 1    
   141   71  193 1    
   142   71  194 1    
   143   72   73 2    
   144   72   74 am   BACKBONE|DICT|INTERRES
   145   74   75 1    
   146   74  195 1    
   147   75   76 1    
   148   75   77 1    
   149   75  196 1    
   150   76  197 1    
   151   76  198 1    
   152   76  199 1    
   153   77   78 2    
   154   77   79 am   BACKBONE|DICT|INTERRES
   155   79   80 1    
   156   79  200 1    
   157   80   81 1    
   158   80   82 1    
   159   80  201 1    
   160   81  202 1    
   161   81  203 1    
   162   81  204 1    
   163   82   83 2    
   164   82   84 am   BACKBONE|DICT|INTERRES
   165   84   85 1    
   166   84  205 1    
   167   85   86 1    
   168   85   87 1    
   169   85  206 1    
   170   86  207 1    
   171   86  208 1    
   172   86  209 1    
   173   87   88 2    
   174   87   89 am   BACKBONE|DICT|INTERRES
   175   89   90 1    
   176   89  210 1    
   177   90   91 1    
   178   90   92 1    
   179   90  211 1    
   180   91  212 1    
   181   91  213 1    
   182   91  214 1    
   183   92   93 2    
   184   92   94 am   BACKBONE|DICT|INTERRES
   185   94   95 1    
   186   94  215 1    
   187   95   96 1    
   188   95   97 1    
   189   95  216 1    
   190   96  217 1    
   191   96  218 1    
   192   96  219 1    
   193   97   98 2    
   194   97   99 am   BACKBONE|DICT|INTERRES
   195   99  100 1    
   196   99  220 1    
   197  100  101 1    
   198  100  102 1    
   199  100  221 1    
   200  101  222 1    
   201  101  223 1    
   202  101  224 1    
   203  102  103 2    
   204  102  104 am   BACKBONE|DICT|INTERRES
   205  104  105 1    
   206  104  225 1    
   207  105  106 1    
   208  105  107 1    
   209  105  226 1    
   210  106  227 1    
   211  106  228 1    
   212  106  229 1    
   213  107  108 2    
   214  107  109 am   BACKBONE|DICT|INTERRES
   215  109  110 1    
   216  109  230 1    
   217  110  111 1    
   218  110  112 1    
   219  110  231 1    
   220  111  232 1    
   221  111  233 1    
   222  111  234 1    
   223  112  113 2    
   224  112  114 am   BACKBONE|DICT|INTERRES
   225  114  115 1    
   226  114  235 1    
   227  115  116 1    
   228  115  117 1    
   229  115  236 1    
   230  116  237 1    
   231  116  238 1    
   232  116  239 1    
   233  117  118 2    
   234  117  119 am   BACKBONE|DICT|INTERRES
   235  119  120 1    
   236  119  240 1    
   237  120  121 1    
   238  120  124 1    
   239  120  241 1    
   240  121  122 am   BACKBONE|DICT|INTERRES
   241  121  123 2    
   242  122  242 1    
   243  122  243 1    
   244  124  125 1    
   245  124  244 1    
   246  124  245 1    
   247  125  126 1    
   248  126  246 1    
   249  126  247 1    
@<TRIPOS>SUBSTRUCTURE
     1 UNK         1 GROUP             0       ****    0 ROOT    
