@<TRIPOS>MOLECULE
3R540
247   249    1
SMALL
USER_CHARGES


@<TRIPOS>ATOM
      1 CA          4.7801  -15.9411  -45.4784 C.3       0 UNK        -0.1800 
      2 C           4.2064  -15.7393  -46.8734 C.2       0 UNK         0.5000 
      3 O           3.0381  -16.0462  -47.1095 O.2       0 UNK        -0.5000 
      4 N           5.0240  -15.2242  -47.7992 N.am      1 UNK        -0.5000 
      5 CA          4.6627  -14.9956  -49.2006 C.3       1 UNK         0.1400 
      6 C6          5.8826  -15.1005  -50.1520 C.3       23 UNK        -0.0398 
      7 S7          6.7112  -16.7276  -50.1037 S.3       23 UNK        -0.2404 
      8 C8          5.9808  -17.5774  -51.5416 C.3       23 UNK        -0.0205 
      9 C9          4.7128  -18.3288  -51.1650 C.ar      23 UNK        -0.0193 
     10 C10         3.4655  -17.7007  -51.2287 C.ar      23 UNK        -0.1150 
     11 C11         2.3048  -18.3834  -50.8523 C.ar      23 UNK        -0.0193 
     12 C12         2.3944  -19.7214  -50.4572 C.ar      23 UNK        -0.1150 
     13 C13         3.6341  -20.3642  -50.4000 C.ar      23 UNK        -0.0193 
     14 C14         4.7899  -19.6612  -50.7494 C.ar      23 UNK        -0.1150 
     15 C15         3.7251  -21.8199  -49.9734 C.3       23 UNK        -0.0205 
     16 S16         4.1018  -21.9828  -48.1988 S.3       23 UNK        -0.2404 
     17 C17         4.0089  -23.8020  -48.0199 C.3       23 UNK        -0.0398 
     18 CA          2.7479  -24.3285  -47.2887 C.3       11 UNK         0.1400 
     19 N           2.6843  -23.9026  -45.8876 N.am      11 UNK        -0.5000 
     20 C           1.8651  -24.4493  -44.9777 C.2       10 UNK         0.5000 
     21 O           1.0905  -25.3734  -45.2247 O.2       10 UNK        -0.5000 
     22 CA          1.8864  -23.8422  -43.5649 C.3       10 UNK         0.1400 
     23 CB          3.0034  -24.4756  -42.7224 C.3       10 UNK        -0.1800 
     24 N           2.0350  -22.3855  -43.5532 N.am      10 UNK        -0.5000 
     25 C           1.1447  -21.5250  -44.0641 C.2       9 UNK         0.5000 
     26 O           0.1398  -21.8694  -44.6896 O.2       9 UNK        -0.5000 
     27 CA          1.4463  -20.0289  -43.8544 C.3       9 UNK         0.1400 
     28 CB          1.8400  -19.3655  -45.1836 C.3       9 UNK        -0.1800 
     29 N           0.3231  -19.3011  -43.2593 N.am      9 UNK        -0.5000 
     30 C          -0.2202  -19.5567  -42.0592 C.2       8 UNK         0.5000 
     31 O           0.1615  -20.4633  -41.3175 O.2       8 UNK        -0.5000 
     32 CA         -1.3575  -18.6372  -41.5767 C.3       8 UNK         0.1400 
     33 CB         -0.7845  -17.4891  -40.7304 C.3       8 UNK        -0.1800 
     34 N          -2.1254  -18.0627  -42.6814 N.am      8 UNK        -0.5000 
     35 C          -3.3902  -18.3830  -42.9904 C.2       7 UNK         0.5000 
     36 O          -4.0553  -19.2143  -42.3712 O.2       7 UNK        -0.5000 
     37 CA         -4.0401  -17.6469  -44.1833 C.3       7 UNK         0.1400 
     38 CB         -4.9261  -16.4947  -43.6869 C.3       7 UNK        -0.1800 
     39 N          -3.0727  -17.1174  -45.1444 N.am      7 UNK        -0.5000 
     40 C          -2.2872  -17.8795  -45.9170 C.2       6 UNK         0.5000 
     41 O          -2.3560  -19.1035  -45.9438 O.2       6 UNK        -0.5000 
     42 CA         -1.2172  -17.1697  -46.7665 C.3       6 UNK         0.1400 
     43 CB         -1.7330  -16.9575  -48.1973 C.3       6 UNK        -0.1800 
     44 N          -0.7671  -15.8893  -46.2151 N.am      6 UNK        -0.5000 
     45 C          -0.2572  -15.6931  -44.9903 C.2       5 UNK         0.5000 
     46 O          -0.1012  -16.5933  -44.1656 O.2       5 UNK        -0.5000 
     47 CA          0.0729  -14.2448  -44.5904 C.3       5 UNK         0.1400 
     48 CB          1.5458  -13.9222  -44.8673 C.3       5 UNK        -0.1800 
     49 N          -0.7779  -13.2613  -45.2620 N.am      5 UNK        -0.5000 
     50 C          -2.0744  -13.0630  -44.9844 C.2       4 UNK         0.5000 
     51 O          -2.6945  -13.6941  -44.1286 O.2       4 UNK        -0.5000 
     52 CA         -2.7996  -11.9890  -45.8154 C.3       4 UNK         0.1400 
     53 CB         -2.5833  -10.5959  -45.2052 C.3       4 UNK        -0.1800 
     54 N          -2.3576  -11.9794  -47.2105 N.am      4 UNK        -0.5000 
     55 C          -2.7143  -12.9009  -48.1156 C.2       3 UNK         0.5000 
     56 O          -3.4989  -13.8202  -47.8838 O.2       3 UNK        -0.5000 
     57 CA         -2.0555  -12.7925  -49.5038 C.3       3 UNK         0.1400 
     58 CB         -2.8529  -11.8418  -50.4091 C.3       3 UNK        -0.1800 
     59 N          -0.6536  -12.3617  -49.4630 N.am      3 UNK        -0.5000 
     60 C           0.3290  -13.0559  -48.8765 C.2       2 UNK         0.5000 
     61 O           0.1430  -14.0959  -48.2429 O.2       2 UNK        -0.5000 
     62 CA          1.7482  -12.4895  -48.9926 C.3       2 UNK         0.1400 
     63 CB          2.0073  -11.4078  -47.9296 C.3       2 UNK        -0.1800 
     64 N           2.6908  -13.5913  -48.8309 N.am      2 UNK        -0.5000 
     65 C           3.9118  -13.6569  -49.3669 C.2       1 UNK         0.5000 
     66 O           4.4390  -12.7189  -49.9684 O.2       1 UNK        -0.5000 
     67 C           1.4442  -24.0023  -48.0465 C.2       11 UNK         0.5000 
     68 O           0.9672  -24.8290  -48.8232 O.2       11 UNK        -0.5000 
     69 N           0.8720  -22.8214  -47.7709 N.am      12 UNK        -0.5000 
     70 CA         -0.3956  -22.3656  -48.3320 C.3       12 UNK         0.1400 
     71 CB         -0.5928  -20.8765  -48.0246 C.3       12 UNK        -0.1800 
     72 C          -1.5776  -23.1853  -47.7973 C.2       12 UNK         0.5000 
     73 O          -2.4719  -23.5257  -48.5703 O.2       12 UNK        -0.5000 
     74 N          -1.5496  -23.5119  -46.4982 N.am      13 UNK        -0.5000 
     75 CA         -2.5301  -24.3757  -45.8431 C.3       13 UNK         0.1400 
     76 CB         -2.2976  -24.3613  -44.3253 C.3       13 UNK        -0.1800 
     77 C          -2.5093  -25.8111  -46.3996 C.2       13 UNK         0.5000 
     78 O          -3.5726  -26.3642  -46.6805 O.2       13 UNK        -0.5000 
     79 N          -1.3044  -26.3672  -46.5941 N.am      14 UNK        -0.5000 
     80 CA         -1.0808  -27.6895  -47.1830 C.3       14 UNK         0.1400 
     81 CB          0.3987  -28.0740  -47.0309 C.3       14 UNK        -0.1800 
     82 C          -1.5150  -27.7758  -48.6586 C.2       14 UNK         0.5000 
     83 O          -2.1044  -28.7795  -49.0606 O.2       14 UNK        -0.5000 
     84 N          -1.2367  -26.7175  -49.4321 N.am      15 UNK        -0.5000 
     85 CA         -1.6165  -26.5926  -50.8417 C.3       15 UNK         0.1400 
     86 CB         -0.7482  -25.5008  -51.4883 C.3       15 UNK        -0.1800 
     87 C          -3.1095  -26.2718  -51.0590 C.2       15 UNK         0.5000 
     88 O          -3.5843  -26.3824  -52.1895 O.2       15 UNK        -0.5000 
     89 N          -3.8013  -25.8364  -49.9946 N.am      16 UNK        -0.5000 
     90 CA         -5.1599  -25.2767  -49.9680 C.3       16 UNK         0.1400 
     91 CB         -6.2082  -26.2936  -50.4632 C.3       16 UNK        -0.1800 
     92 C          -5.2684  -23.9075  -50.6782 C.2       16 UNK         0.5000 
     93 O          -6.3713  -23.4537  -50.9858 O.2       16 UNK        -0.5000 
     94 N          -4.1201  -23.2474  -50.8783 N.am      17 UNK        -0.5000 
     95 CA         -3.9870  -21.8951  -51.4148 C.3       17 UNK         0.1400 
     96 CB         -2.5522  -21.7028  -51.9269 C.3       17 UNK        -0.1800 
     97 C          -4.3364  -20.8187  -50.3718 C.2       17 UNK         0.5000 
     98 O          -4.6078  -19.6807  -50.7523 O.2       17 UNK        -0.5000 
     99 N          -4.3504  -21.1932  -49.0836 N.am      18 UNK        -0.5000 
    100 CA        -4.7593  -20.3568  -47.9534 C.3       18 UNK         0.1400 
    101 CB        -4.6211  -21.1647  -46.6536 C.3       18 UNK        -0.1800 
    102 C         -6.1943  -19.8196  -48.0902 C.2       18 UNK         0.5000 
    103 O         -6.4323  -18.6381  -47.8412 O.2       18 UNK        -0.5000 
    104 N         -7.1103  -20.6889  -48.5403 N.am      19 UNK        -0.5000 
    105 CA        -8.5158  -20.3674  -48.8004 C.3       19 UNK         0.1400 
    106 CB        -9.2919  -21.6771  -49.0066 C.3       19 UNK        -0.1800 
    107 C         -8.7119  -19.4294  -50.0080 C.2       19 UNK         0.5000 
    108 O         -9.7126  -18.7146  -50.0666 O.2       19 UNK        -0.5000 
    109 N         -7.7483  -19.4413  -50.9370 N.am      20 UNK        -0.5000 
    110 CA        -7.7033  -18.5882  -52.1227 C.3       20 UNK         0.1400 
    111 CB        -7.0990  -19.4032  -53.2795 C.3       20 UNK        -0.1800 
    112 C         -6.8917  -17.2978  -51.8910 C.2       20 UNK         0.5000 
    113 O         -6.7549  -16.5103  -52.8279 O.2       20 UNK        -0.5000 
    114 N         -6.3264  -17.1183  -50.6849 N.am      21 UNK        -0.5000 
    115 CA        -5.4172  -16.0361  -50.2854 C.3       21 UNK         0.1400 
    116 CB        -6.1837  -14.7021  -50.1753 C.3       21 UNK        -0.1800 
    117 C         -4.1741  -15.9479  -51.1991 C.2       21 UNK         0.5000 
    118 O         -3.7870  -14.8595  -51.6245 O.2       21 UNK        -0.5000 
    119 N         -3.6036  -17.1163  -51.5211 N.am      22 UNK        -0.5000 
    120 CA        -2.5200  -17.3229  -52.4964 C.3       22 UNK         0.1400 
    121 C         -2.9515  -17.1960  -53.9926 C.2       22 UNK         0.5000 
    122 N         -4.2193  -16.9710  -54.3180 N.am      22 UNK        -0.7600 
    123 O         -2.1260  -17.3373  -54.8900 O.2       22 UNK        -0.5000 
    124 C124       -1.2347  -16.5056  -52.1674 C.3       23 UNK        -0.0398 
    125 S125        0.3060  -17.4251  -52.5157 S.3       23 UNK        -0.2404 
    126 C126        0.9646  -17.6632  -50.8383 C.3       23 UNK        -0.0205 
    127 H127        5.8678  -16.0110  -45.5008 H         1 UNK         0.0600 
    128 H128        4.3919  -16.8603  -45.0394 H         1 UNK         0.0600 
    129 H129        4.5039  -15.1083  -44.8327 H         1 UNK         0.0600 
    130 H130        5.9688  -14.9740  -47.5451 H         1 UNK         0.3000 
    131 H131        3.9586  -15.7729  -49.4928 H         1 UNK         0.0600 
    132 H132        6.6262  -14.3443  -49.8949 H         1 UNK         0.0800 
    133 H133        5.5856  -14.8857  -51.1798 H         1 UNK         0.0800 
    134 H134        5.7832  -16.8718  -52.3496 H         1 UNK         0.0800 
    135 H135        6.7161  -18.2803  -51.9361 H         1 UNK         0.0800 
    136 H136        3.3967  -16.6727  -51.5548 H         1 UNK         0.1150 
    137 H137        1.5008  -20.2648  -50.1907 H         1 UNK         0.1150 
    138 H138        5.7512  -20.1529  -50.6967 H         1 UNK         0.1150 
    139 H139        2.7875  -22.3309  -50.1980 H         1 UNK         0.0800 
    140 H140        4.4974  -22.3255  -50.5553 H         1 UNK         0.0800 
    141 H141        4.8983  -24.1252  -47.4774 H         1 UNK         0.0800 
    142 H142        4.0899  -24.2712  -49.0020 H         1 UNK         0.0800 
    143 H143        2.8294  -25.4179  -47.2791 H         1 UNK         0.0600 
    144 H144        3.2837  -23.1374  -45.6149 H         1 UNK         0.3000 
    145 H145        0.9307  -24.0793  -43.0927 H         1 UNK         0.0600 
    146 H146        2.9669  -24.1248  -41.6909 H         1 UNK         0.0600 
    147 H147        2.9055  -25.5619  -42.6979 H         1 UNK         0.0600 
    148 H148        3.9916  -24.2440  -43.1220 H         1 UNK         0.0600 
    149 H149        2.8351  -22.0225  -43.0557 H         1 UNK         0.3000 
    150 H150        2.2900  -19.9325  -43.1683 H         1 UNK         0.0600 
    151 H151        2.7167  -19.8471  -45.6186 H         1 UNK         0.0600 
    152 H152        2.0824  -18.3110  -45.0475 H         1 UNK         0.0600 
    153 H153        1.0364  -19.4313  -45.9151 H         1 UNK         0.0600 
    154 H154       -0.0067  -18.4919  -43.7729 H         1 UNK         0.3000 
    155 H155       -2.0051  -19.2358  -40.9329 H         1 UNK         0.0600 
    156 H156       -0.1200  -16.8508  -41.3144 H         1 UNK         0.0600 
    157 H157       -0.2127  -17.8733  -39.8847 H         1 UNK         0.0600 
    158 H158       -1.5805  -16.8631  -40.3268 H         1 UNK         0.0600 
    159 H159       -1.6333  -17.3914  -43.2618 H         1 UNK         0.3000 
    160 H160       -4.6764  -18.3638  -44.7061 H         1 UNK         0.0600 
    161 H161       -4.3436  -15.7414  -43.1549 H         1 UNK         0.0600 
    162 H162       -5.6943  -16.8587  -43.0035 H         1 UNK         0.0600 
    163 H163       -5.4353  -16.0023  -44.5156 H         1 UNK         0.0600 
    164 H164       -2.9484  -16.1145  -45.1641 H         1 UNK         0.3000 
    165 H165       -0.3455  -17.8226  -46.8154 H         1 UNK         0.0600 
    166 H166       -0.9718  -16.4886  -48.8182 H         1 UNK         0.0600 
    167 H167       -1.9994  -17.9059  -48.6658 H         1 UNK         0.0600 
    168 H168       -2.6182  -16.3223  -48.2157 H         1 UNK         0.0600 
    169 H169       -0.7602  -15.1049  -46.8598 H         1 UNK         0.3000 
    170 H170       -0.0923  -14.1588  -43.5143 H         1 UNK         0.0600 
    171 H171        2.1969  -14.6268  -44.3495 H         1 UNK         0.0600 
    172 H172        1.7748  -13.9826  -45.9306 H         1 UNK         0.0600 
    173 H173        1.8060  -12.9222  -44.5205 H         1 UNK         0.0600 
    174 H174       -0.3572  -12.7336  -46.0108 H         1 UNK         0.3000 
    175 H175       -3.8690  -12.2096  -45.7877 H         1 UNK         0.0600 
    176 H176       -1.5314  -10.3073  -45.2167 H         1 UNK         0.0600 
    177 H177       -3.1458   -9.8364  -45.7485 H         1 UNK         0.0600 
    178 H178       -2.9200  -10.5684  -44.1680 H         1 UNK         0.0600 
    179 H179       -1.7178  -11.2498  -47.4878 H         1 UNK         0.3000 
    180 H180       -2.0753  -13.7890  -49.9482 H         1 UNK         0.0600 
    181 H181       -2.8313  -10.8163  -50.0386 H         1 UNK         0.0600 
    182 H182       -3.8981  -12.1476  -50.4714 H         1 UNK         0.0600 
    183 H183       -2.4580  -11.8433  -51.4251 H         1 UNK         0.0600 
    184 H184       -0.4297  -11.5096  -49.9568 H         1 UNK         0.3000 
    185 H185        1.8620  -12.0579  -49.9893 H         1 UNK         0.0600 
    186 H186        1.3089  -10.5771  -48.0362 H         1 UNK         0.0600 
    187 H187        1.9013  -11.7986  -46.9182 H         1 UNK         0.0600 
    188 H188        3.0128  -10.9973  -48.0230 H         1 UNK         0.0600 
    189 H189        2.3195  -14.4010  -48.3405 H         1 UNK         0.3000 
    190 H190        1.3114  -22.2195  -47.0905 H         1 UNK         0.3000 
    191 H191       -0.3514  -22.4941  -49.4147 H         1 UNK         0.0600 
    192 H192        0.2421  -20.2719  -48.3723 H         1 UNK         0.0600 
    193 H193       -1.4981  -20.4931  -48.4966 H         1 UNK         0.0600 
    194 H194       -0.6877  -20.7126  -46.9528 H         1 UNK         0.0600 
    195 H195       -0.8145  -23.1253  -45.9137 H         1 UNK         0.3000 
    196 H196       -3.5214  -23.9614  -46.0360 H         1 UNK         0.0600 
    197 H197       -3.0463  -24.9642  -43.8102 H         1 UNK         0.0600 
    198 H198       -2.3634  -23.3482  -43.9274 H         1 UNK         0.0600 
    199 H199       -1.3176  -24.7594  -44.0626 H         1 UNK         0.0600 
    200 H200       -0.4775  -25.8620  -46.2885 H         1 UNK         0.3000 
    201 H201       -1.6775  -28.4101  -46.6200 H         1 UNK         0.0600 
    202 H202        0.6921  -28.1019  -45.9814 H         1 UNK         0.0600 
    203 H203        1.0529  -27.3669  -47.5418 H         1 UNK         0.0600 
    204 H204        0.5915  -29.0628  -47.4489 H         1 UNK         0.0600 
    205 H205       -0.6843  -25.9589  -49.0443 H         1 UNK         0.3000 
    206 H206       -1.4072  -27.5388  -51.3450 H         1 UNK         0.0600 
    207 H207        0.3116  -25.7452  -51.4141 H         1 UNK         0.0600 
    208 H208       -0.9803  -25.3872  -52.5480 H         1 UNK         0.0600 
    209 H209       -0.9019  -24.5314  -51.0124 H         1 UNK         0.0600 
    210 H210       -3.2977  -25.7678  -49.1194 H         1 UNK         0.3000 
    211 H211       -5.3711  -25.0798  -48.9161 H         1 UNK         0.0600 
    212 H212       -6.1312  -26.4702  -51.5361 H         1 UNK         0.0600 
    213 H213       -7.2197  -25.9364  -50.2666 H         1 UNK         0.0600 
    214 H214       -6.0989  -27.2515  -49.9548 H         1 UNK         0.0600 
    215 H215       -3.2821  -23.6582  -50.4852 H         1 UNK         0.3000 
    216 H216       -4.6741  -21.7825  -52.2558 H         1 UNK         0.0600 
    217 H217       -2.4399  -20.7367  -52.4186 H         1 UNK         0.0600 
    218 H218       -2.2875  -22.4685  -52.6565 H         1 UNK         0.0600 
    219 H219       -1.8249  -21.7459  -51.1166 H         1 UNK         0.0600 
    220 H220       -4.0454  -22.1339  -48.8654 H         1 UNK         0.3000 
    221 H221       -4.0865  -19.4990  -47.9132 H         1 UNK         0.0600 
    222 H222       -5.2124  -22.0806  -46.6784 H         1 UNK         0.0600 
    223 H223       -3.5832  -21.4388  -46.4709 H         1 UNK         0.0600 
    224 H224       -4.9505  -20.5824  -45.7925 H         1 UNK         0.0600 
    225 H225       -6.8191  -21.6334  -48.7469 H         1 UNK         0.3000 
    226 H226       -8.9194  -19.8620  -47.9205 H         1 UNK         0.0600 
    227 H227       -9.2235  -22.3190  -48.1281 H         1 UNK         0.0600 
    228 H228      -10.3504  -21.4813  -49.1831 H         1 UNK         0.0600 
    229 H229       -8.9139  -22.2378  -49.8628 H         1 UNK         0.0600 
    230 H230       -6.9451  -20.0359  -50.7892 H         1 UNK         0.3000 
    231 H231       -8.7154  -18.2927  -52.4065 H         1 UNK         0.0600 
    232 H232       -7.6594  -20.3225  -53.4501 H         1 UNK         0.0600 
    233 H233       -6.0609  -19.6740  -53.0843 H         1 UNK         0.0600 
    234 H234       -7.1180  -18.8362  -54.2111 H         1 UNK         0.0600 
    235 H235       -6.4784  -17.8321  -49.9841 H         1 UNK         0.3000 
    236 H236       -5.0496  -16.2904  -49.2900 H         1 UNK         0.0600 
    237 H237       -5.5455  -13.9185  -49.7668 H         1 UNK         0.0600 
    238 H238       -6.5433  -14.3587  -51.1456 H         1 UNK         0.0600 
    239 H239       -7.0434  -14.7964  -49.5120 H         1 UNK         0.0600 
    240 H240       -4.0248  -17.9717  -51.1638 H         1 UNK         0.3000 
    241 H241       -2.2780  -18.3781  -52.3737 H         1 UNK         0.0600 
    242 H242       -4.9325  -16.8125  -53.6159 H         1 UNK         0.3800 
    243 H243       -4.4660  -16.9057  -55.2924 H         1 UNK         0.3800 
    244 H244       -1.2289  -16.2163  -51.1173 H         1 UNK         0.0800 
    245 H245       -1.2179  -15.5636  -52.7183 H         1 UNK         0.0800 
    246 H246        0.2389  -18.2215  -50.2448 H         1 UNK         0.0800 
    247 H247        1.0845  -16.6937  -50.3512 H         1 UNK         0.0800 
@<TRIPOS>BOND
     1    1    2 1    
     2    1  127 1    
     3    1  128 1    
     4    1  129 1    
     5    2    3 2    
     6    2    4 am   BACKBONE|DICT|INTERRES
     7    4    5 1    
     8    4  130 1    
     9    5    6 1    
    10    5   65 1    
    11    5  131 1    
    12    6    7 1    
    13    6  132 1    
    14    6  133 1    
    15    7    8 1    
    16    8    9 1    
    17    8  134 1    
    18    8  135 1    
    19    9   10 ar   
    20    9   14 ar   
    21   10   11 ar   
    22   10  136 1    
    23   11   12 ar   
    24   11  126 1    
    25   12   13 ar   
    26   12  137 1    
    27   13   14 ar   
    28   13   15 1    
    29   14  138 1    
    30   15   16 1    
    31   15  139 1    
    32   15  140 1    
    33   16   17 1    
    34   17   18 1    
    35   17  141 1    
    36   17  142 1    
    37   18   19 1    
    38   18   67 1    
    39   18  143 1    
    40   19   20 am   BACKBONE|DICT|INTERRES
    41   19  144 1    
    42   20   21 2    
    43   20   22 1    
    44   22   23 1    
    45   22   24 1    
    46   22  145 1    
    47   23  146 1    
    48   23  147 1    
    49   23  148 1    
    50   24   25 am   BACKBONE|DICT|INTERRES
    51   24  149 1    
    52   25   26 2    
    53   25   27 1    
    54   27   28 1    
    55   27   29 1    
    56   27  150 1    
    57   28  151 1    
    58   28  152 1    
    59   28  153 1    
    60   29   30 am   BACKBONE|DICT|INTERRES
    61   29  154 1    
    62   30   31 2    
    63   30   32 1    
    64   32   33 1    
    65   32   34 1    
    66   32  155 1    
    67   33  156 1    
    68   33  157 1    
    69   33  158 1    
    70   34   35 am   BACKBONE|DICT|INTERRES
    71   34  159 1    
    72   35   36 2    
    73   35   37 1    
    74   37   38 1    
    75   37   39 1    
    76   37  160 1    
    77   38  161 1    
    78   38  162 1    
    79   38  163 1    
    80   39   40 am   BACKBONE|DICT|INTERRES
    81   39  164 1    
    82   40   41 2    
    83   40   42 1    
    84   42   43 1    
    85   42   44 1    
    86   42  165 1    
    87   43  166 1    
    88   43  167 1    
    89   43  168 1    
    90   44   45 am   BACKBONE|DICT|INTERRES
    91   44  169 1    
    92   45   46 2    
    93   45   47 1    
    94   47   48 1    
    95   47   49 1    
    96   47  170 1    
    97   48  171 1    
    98   48  172 1    
    99   48  173 1    
   100   49   50 am   BACKBONE|DICT|INTERRES
   101   49  174 1    
   102   50   51 2    
   103   50   52 1    
   104   52   53 1    
   105   52   54 1    
   106   52  175 1    
   107   53  176 1    
   108   53  177 1    
   109   53  178 1    
   110   54   55 am   BACKBONE|DICT|INTERRES
   111   54  179 1    
   112   55   56 2    
   113   55   57 1    
   114   57   58 1    
   115   57   59 1    
   116   57  180 1    
   117   58  181 1    
   118   58  182 1    
   119   58  183 1    
   120   59   60 am   BACKBONE|DICT|INTERRES
   121   59  184 1    
   122   60   61 2    
   123   60   62 1    
   124   62   63 1    
   125   62   64 1    
   126   62  185 1    
   127   63  186 1    
   128   63  187 1    
   129   63  188 1    
   130   64   65 am   BACKBONE|DICT|INTERRES
   131   64  189 1    
   132   65   66 2    
   133   67   68 2    
   134   67   69 am   BACKBONE|DICT|INTERRES
   135   69   70 1    
   136   69  190 1    
   137   70   71 1    
   138   70   72 1    
   139   70  191 1    
   140   71  192 1    
   141   71  193 1    
   142   71  194 1    
   143   72   73 2    
   144   72   74 am   BACKBONE|DICT|INTERRES
   145   74   75 1    
   146   74  195 1    
   147   75   76 1    
   148   75   77 1    
   149   75  196 1    
   150   76  197 1    
   151   76  198 1    
   152   76  199 1    
   153   77   78 2    
   154   77   79 am   BACKBONE|DICT|INTERRES
   155   79   80 1    
   156   79  200 1    
   157   80   81 1    
   158   80   82 1    
   159   80  201 1    
   160   81  202 1    
   161   81  203 1    
   162   81  204 1    
   163   82   83 2    
   164   82   84 am   BACKBONE|DICT|INTERRES
   165   84   85 1    
   166   84  205 1    
   167   85   86 1    
   168   85   87 1    
   169   85  206 1    
   170   86  207 1    
   171   86  208 1    
   172   86  209 1    
   173   87   88 2    
   174   87   89 am   BACKBONE|DICT|INTERRES
   175   89   90 1    
   176   89  210 1    
   177   90   91 1    
   178   90   92 1    
   179   90  211 1    
   180   91  212 1    
   181   91  213 1    
   182   91  214 1    
   183   92   93 2    
   184   92   94 am   BACKBONE|DICT|INTERRES
   185   94   95 1    
   186   94  215 1    
   187   95   96 1    
   188   95   97 1    
   189   95  216 1    
   190   96  217 1    
   191   96  218 1    
   192   96  219 1    
   193   97   98 2    
   194   97   99 am   BACKBONE|DICT|INTERRES
   195   99  100 1    
   196   99  220 1    
   197  100  101 1    
   198  100  102 1    
   199  100  221 1    
   200  101  222 1    
   201  101  223 1    
   202  101  224 1    
   203  102  103 2    
   204  102  104 am   BACKBONE|DICT|INTERRES
   205  104  105 1    
   206  104  225 1    
   207  105  106 1    
   208  105  107 1    
   209  105  226 1    
   210  106  227 1    
   211  106  228 1    
   212  106  229 1    
   213  107  108 2    
   214  107  109 am   BACKBONE|DICT|INTERRES
   215  109  110 1    
   216  109  230 1    
   217  110  111 1    
   218  110  112 1    
   219  110  231 1    
   220  111  232 1    
   221  111  233 1    
   222  111  234 1    
   223  112  113 2    
   224  112  114 am   BACKBONE|DICT|INTERRES
   225  114  115 1    
   226  114  235 1    
   227  115  116 1    
   228  115  117 1    
   229  115  236 1    
   230  116  237 1    
   231  116  238 1    
   232  116  239 1    
   233  117  118 2    
   234  117  119 am   BACKBONE|DICT|INTERRES
   235  119  120 1    
   236  119  240 1    
   237  120  121 1    
   238  120  124 1    
   239  120  241 1    
   240  121  122 am   BACKBONE|DICT|INTERRES
   241  121  123 2    
   242  122  242 1    
   243  122  243 1    
   244  124  125 1    
   245  124  244 1    
   246  124  245 1    
   247  125  126 1    
   248  126  246 1    
   249  126  247 1    
@<TRIPOS>SUBSTRUCTURE
     1 UNK         1 GROUP             0       ****    0 ROOT    
