@<TRIPOS>MOLECULE
3R540
247   249    1
SMALL
USER_CHARGES


@<TRIPOS>ATOM
      1 CA         -2.9554  -15.6140  -50.1444 C.3       0 UNK        -0.1800 
      2 C          -2.5868  -14.5563  -49.1171 C.2       0 UNK         0.5000 
      3 O          -3.4681  -13.8649  -48.6046 O.2       0 UNK        -0.5000 
      4 N          -1.2934  -14.4379  -48.7908 N.am      1 UNK        -0.5000 
      5 CA         -0.7417  -13.5129  -47.7902 C.3       1 UNK         0.1400 
      6 C6          0.7431  -13.1707  -48.0725 C.3       23 UNK        -0.0398 
      7 S7          0.9616  -12.3637  -49.6965 S.3       23 UNK        -0.2404 
      8 C8          2.1344  -13.4750  -50.5372 C.3       23 UNK        -0.0205 
      9 C9          1.5553  -14.8592  -50.7925 C.ar      23 UNK        -0.0193 
     10 C10         0.5549  -15.0418  -51.7513 C.ar      23 UNK        -0.1150 
     11 C11         0.0428  -16.3167  -52.0086 C.ar      23 UNK        -0.0193 
     12 C12         0.5310  -17.4123  -51.2902 C.ar      23 UNK        -0.1150 
     13 C13         1.5327  -17.2449  -50.3288 C.ar      23 UNK        -0.0193 
     14 C14         2.0435  -15.9644  -50.0911 C.ar      23 UNK        -0.1150 
     15 C15         2.0896  -18.4610  -49.5949 C.3       23 UNK        -0.0205 
     16 S16         2.3481  -18.2007  -47.8059 S.3       23 UNK        -0.2404 
     17 C17         0.6784  -17.7697  -47.2013 C.3       23 UNK        -0.0398 
     18 CA         -0.4162  -18.8084  -47.5370 C.3       11 UNK         0.1400 
     19 N          -0.0058  -20.1716  -47.1865 N.am      11 UNK        -0.5000 
     20 C          -0.6287  -21.2987  -47.5525 C.2       10 UNK         0.5000 
     21 O          -1.6654  -21.3296  -48.2143 O.2       10 UNK        -0.5000 
     22 CA         -0.0175  -22.6110  -47.0299 C.3       10 UNK         0.1400 
     23 CB          1.1557  -23.0378  -47.9258 C.3       10 UNK        -0.1800 
     24 N           0.4529  -22.5498  -45.6422 N.am      10 UNK        -0.5000 
     25 C          -0.2290  -22.0951  -44.5794 C.2       9 UNK         0.5000 
     26 O          -1.3703  -21.6417  -44.6549 O.2       9 UNK        -0.5000 
     27 CA          0.4819  -22.1430  -43.2114 C.3       9 UNK         0.1400 
     28 CB         -0.4380  -22.7414  -42.1351 C.3       9 UNK        -0.1800 
     29 N           1.7144  -22.9395  -43.2640 N.am      9 UNK        -0.5000 
     30 C           2.9865  -22.5504  -43.4524 C.2       8 UNK         0.5000 
     31 O           3.8673  -23.3869  -43.6423 O.2       8 UNK        -0.5000 
     32 CA          3.3984  -21.0584  -43.4157 C.3       8 UNK         0.1400 
     33 CB          3.0115  -20.3228  -44.7094 C.3       8 UNK        -0.1800 
     34 N           2.9515  -20.3062  -42.2386 N.am      8 UNK        -0.5000 
     35 C           3.1816  -20.6540  -40.9617 C.2       7 UNK         0.5000 
     36 O           3.8053  -21.6644  -40.6346 O.2       7 UNK        -0.5000 
     37 CA          2.6670  -19.7177  -39.8484 C.3       7 UNK         0.1400 
     38 CB          3.8373  -19.1796  -39.0080 C.3       7 UNK        -0.1800 
     39 N           1.8969  -18.5763  -40.3402 N.am      7 UNK        -0.5000 
     40 C           0.5954  -18.5938  -40.6548 C.2       6 UNK         0.5000 
     41 O          -0.1121  -19.5986  -40.5939 O.2       6 UNK        -0.5000 
     42 CA         -0.0093  -17.2541  -41.1213 C.3       6 UNK         0.1400 
     43 CB         -0.5610  -16.4887  -39.9074 C.3       6 UNK        -0.1800 
     44 N           0.9410  -16.3928  -41.8352 N.am      6 UNK        -0.5000 
     45 C           1.5774  -16.7152  -42.9697 C.2       5 UNK         0.5000 
     46 O           1.4257  -17.7923  -43.5465 O.2       5 UNK        -0.5000 
     47 CA          2.5617  -15.6670  -43.5155 C.3       5 UNK         0.1400 
     48 CB          3.0440  -15.9620  -44.9461 C.3       5 UNK        -0.1800 
     49 N           1.9590  -14.3375  -43.4933 N.am      5 UNK        -0.5000 
     50 C           2.4500  -13.2764  -42.8434 C.2       4 UNK         0.5000 
     51 O           3.4271  -13.3188  -42.0952 O.2       4 UNK        -0.5000 
     52 CA          1.7328  -11.9377  -43.0742 C.3       4 UNK         0.1400 
     53 CB          2.2319  -11.2824  -44.3710 C.3       4 UNK        -0.1800 
     54 N           0.2806  -12.0937  -43.1450 N.am      4 UNK        -0.5000 
     55 C          -0.5320  -12.0668  -42.0808 C.2       3 UNK         0.5000 
     56 O          -0.1373  -11.9534  -40.9198 O.2       3 UNK        -0.5000 
     57 CA         -2.0428  -12.1609  -42.3599 C.3       3 UNK         0.1400 
     58 CB         -2.6376  -10.7592  -42.5659 C.3       3 UNK        -0.1800 
     59 N          -2.3526  -12.9869  -43.5269 N.am      3 UNK        -0.5000 
     60 C          -2.3460  -14.3257  -43.5155 C.2       2 UNK         0.5000 
     61 O          -2.0890  -15.0010  -42.5216 O.2       2 UNK        -0.5000 
     62 CA         -2.6964  -15.0340  -44.8328 C.3       2 UNK         0.1400 
     63 CB         -4.2183  -15.2195  -44.9368 C.3       2 UNK        -0.1800 
     64 N          -2.2313  -14.3471  -46.0366 N.am      2 UNK        -0.5000 
     65 C          -0.9661  -14.0506  -46.3567 C.2       1 UNK         0.5000 
     66 O          -0.0157  -14.2024  -45.5869 O.2       1 UNK        -0.5000 
     67 C          -1.7571  -18.3890  -46.8976 C.2       11 UNK         0.5000 
     68 O          -2.4079  -17.4858  -47.4183 O.2       11 UNK        -0.5000 
     69 N          -2.1680  -19.0643  -45.8142 N.am      12 UNK        -0.5000 
     70 CA         -3.4768  -18.9118  -45.1762 C.3       12 UNK         0.1400 
     71 CB         -3.3231  -19.0857  -43.6554 C.3       12 UNK        -0.1800 
     72 C          -4.5334  -19.8663  -45.7729 C.2       12 UNK         0.5000 
     73 O          -5.5999  -20.0342  -45.1810 O.2       12 UNK        -0.5000 
     74 N          -4.2221  -20.4655  -46.9326 N.am      13 UNK        -0.5000 
     75 CA         -5.0381  -21.3919  -47.7175 C.3       13 UNK         0.1400 
     76 CB         -6.3624  -20.7447  -48.1731 C.3       13 UNK        -0.1800 
     77 C          -5.2250  -22.7634  -47.0449 C.2       13 UNK         0.5000 
     78 O          -6.2200  -23.4419  -47.3092 O.2       13 UNK        -0.5000 
     79 N          -4.2414  -23.1832  -46.2339 N.am      14 UNK        -0.5000 
     80 CA         -4.1430  -24.5393  -45.6914 C.3       14 UNK         0.1400 
     81 CB         -2.9438  -24.6299  -44.7366 C.3       14 UNK        -0.1800 
     82 C          -4.0160  -25.5556  -46.8407 C.2       14 UNK         0.5000 
     83 O          -3.1146  -25.4179  -47.6703 O.2       14 UNK        -0.5000 
     84 N          -4.9744  -26.4898  -46.9178 N.am      15 UNK        -0.5000 
     85 CA         -5.1717  -27.4585  -48.0067 C.3       15 UNK         0.1400 
     86 CB         -4.0215  -28.4873  -48.0304 C.3       15 UNK        -0.1800 
     87 C          -5.4090  -26.8035  -49.3901 C.2       15 UNK         0.5000 
     88 O          -5.1405  -27.4313  -50.4154 O.2       15 UNK        -0.5000 
     89 N          -5.8917  -25.5489  -49.3915 N.am      16 UNK        -0.5000 
     90 CA         -6.1022  -24.6677  -50.5467 C.3       16 UNK         0.1400 
     91 CB         -7.2033  -25.2224  -51.4737 C.3       16 UNK        -0.1800 
     92 C          -4.8047  -24.3165  -51.3090 C.2       16 UNK         0.5000 
     93 O          -4.8684  -23.9576  -52.4863 O.2       16 UNK        -0.5000 
     94 N          -3.6477  -24.4044  -50.6339 N.am      17 UNK        -0.5000 
     95 CA         -2.3243  -24.2131  -51.2310 C.3       17 UNK         0.1400 
     96 CB         -1.2450  -24.5602  -50.2014 C.3       17 UNK        -0.1800 
     97 C          -2.0963  -22.8086  -51.8188 C.2       17 UNK         0.5000 
     98 O          -1.4782  -22.6977  -52.8756 O.2       17 UNK        -0.5000 
     99 N          -2.6381  -21.7703  -51.1654 N.am      18 UNK        -0.5000 
    100 CA        -2.6194  -20.3879  -51.6520 C.3       18 UNK         0.1400 
    101 CB        -3.2220  -19.4489  -50.5963 C.3       18 UNK        -0.1800 
    102 C         -3.3629  -20.2145  -52.9875 C.2       18 UNK         0.5000 
    103 O         -2.8604  -19.5301  -53.8779 O.2       18 UNK        -0.5000 
    104 N         -4.5302  -20.8612  -53.1102 N.am      19 UNK        -0.5000 
    105 CA        -5.3459  -20.8591  -54.3238 C.3       19 UNK         0.1400 
    106 CB        -6.7469  -21.4052  -54.0085 C.3       19 UNK        -0.1800 
    107 C         -4.6838  -21.6536  -55.4615 C.2       19 UNK         0.5000 
    108 O         -4.7214  -21.2120  -56.6096 O.2       19 UNK        -0.5000 
    109 N         -4.0535  -22.7858  -55.1200 N.am      20 UNK        -0.5000 
    110 CA        -3.2704  -23.6026  -56.0474 C.3       20 UNK         0.1400 
    111 CB        -2.8875  -24.9252  -55.3661 C.3       20 UNK        -0.1800 
    112 C         -2.0198  -22.8708  -56.5747 C.2       20 UNK         0.5000 
    113 O         -1.7069  -22.9850  -57.7604 O.2       20 UNK        -0.5000 
    114 N         -1.3387  -22.1292  -55.6909 N.am      21 UNK        -0.5000 
    115 CA        -0.1507  -21.3396  -56.0034 C.3       21 UNK         0.1400 
    116 CB         0.5754  -20.9628  -54.7006 C.3       21 UNK        -0.1800 
    117 C         -0.4698  -20.0827  -56.8307 C.2       21 UNK         0.5000 
    118 O          0.1289  -19.8898  -57.8903 O.2       21 UNK        -0.5000 
    119 N         -1.3766  -19.2409  -56.3202 N.am      22 UNK        -0.5000 
    120 CA        -1.6599  -17.9031  -56.8670 C.3       22 UNK         0.1400 
    121 C         -2.8522  -17.8484  -57.8631 C.2       22 UNK         0.5000 
    122 N         -3.6455  -18.8973  -58.0330 N.am      22 UNK        -0.7600 
    123 O         -3.0538  -16.8290  -58.5178 O.2       22 UNK        -0.5000 
    124 C124       -1.8217  -16.8480  -55.7424 C.3       23 UNK        -0.0398 
    125 S125       -0.3160  -16.6852  -54.7198 S.3       23 UNK        -0.2404 
    126 C126       -1.0373  -16.5079  -53.0616 C.3       23 UNK        -0.0205 
    127 H127       -3.1452  -15.1522  -51.1126 H         1 UNK         0.0600 
    128 H128       -3.8562  -16.1421  -49.8314 H         1 UNK         0.0600 
    129 H129       -2.1610  -16.3512  -50.2528 H         1 UNK         0.0600 
    130 H130       -0.6154  -15.0223  -49.2587 H         1 UNK         0.3000 
    131 H131       -1.2998  -12.5760  -47.8504 H         1 UNK         0.0600 
    132 H132        1.1212  -12.4778  -47.3205 H         1 UNK         0.0800 
    133 H133        1.3671  -14.0628  -48.0023 H         1 UNK         0.0800 
    134 H134        3.0513  -13.5383  -49.9490 H         1 UNK         0.0800 
    135 H135        2.4173  -13.0283  -51.4914 H         1 UNK         0.0800 
    136 H136        0.1820  -14.1910  -52.3044 H         1 UNK         0.1150 
    137 H137        0.1428  -18.3995  -51.4960 H         1 UNK         0.1150 
    138 H138        2.8317  -15.8300  -49.3636 H         1 UNK         0.1150 
    139 H139        1.4479  -19.3314  -49.7382 H         1 UNK         0.0800 
    140 H140        3.0491  -18.7187  -50.0445 H         1 UNK         0.0800 
    141 H141        0.4119  -16.7899  -47.6013 H         1 UNK         0.0800 
    142 H142        0.7496  -17.6437  -46.1202 H         1 UNK         0.0800 
    143 H143       -0.5769  -18.7887  -48.6160 H         1 UNK         0.0600 
    144 H144        0.8425  -20.2478  -46.6461 H         1 UNK         0.3000 
    145 H145       -0.7945  -23.3756  -47.0806 H         1 UNK         0.0600 
    146 H146        1.4694  -24.0580  -47.7040 H         1 UNK         0.0600 
    147 H147        0.8864  -23.0028  -48.9814 H         1 UNK         0.0600 
    148 H148        2.0196  -22.3847  -47.7947 H         1 UNK         0.0600 
    149 H149        1.3723  -22.9301  -45.4731 H         1 UNK         0.3000 
    150 H150        0.6788  -21.1102  -42.9342 H         1 UNK         0.0600 
    151 H151       -1.3501  -22.1529  -42.0258 H         1 UNK         0.0600 
    152 H152        0.0537  -22.7506  -41.1620 H         1 UNK         0.0600 
    153 H153       -0.7315  -23.7639  -42.3755 H         1 UNK         0.0600 
    154 H154        1.5517  -23.9358  -43.2475 H         1 UNK         0.3000 
    155 H155        4.4896  -21.0518  -43.3727 H         1 UNK         0.0600 
    156 H156        1.9452  -20.1111  -44.7608 H         1 UNK         0.0600 
    157 H157        3.2781  -20.9048  -45.5926 H         1 UNK         0.0600 
    158 H158        3.5361  -19.3708  -44.7847 H         1 UNK         0.0600 
    159 H159        2.4287  -19.4590  -42.4218 H         1 UNK         0.3000 
    160 H160        2.0293  -20.3171  -39.1951 H         1 UNK         0.0600 
    161 H161        4.5224  -18.5809  -39.6095 H         1 UNK         0.0600 
    162 H162        4.4137  -19.9941  -38.5671 H         1 UNK         0.0600 
    163 H163        3.4802  -18.5583  -38.1864 H         1 UNK         0.0600 
    164 H164        2.3944  -17.7024  -40.4275 H         1 UNK         0.3000 
    165 H165       -0.8341  -17.4756  -41.8008 H         1 UNK         0.0600 
    166 H166       -1.0221  -15.5464  -40.2015 H         1 UNK         0.0600 
    167 H167       -1.3234  -17.0741  -39.3918 H         1 UNK         0.0600 
    168 H168        0.2234  -16.2615  -39.1844 H         1 UNK         0.0600 
    169 H169        1.1042  -15.4778  -41.4412 H         1 UNK         0.3000 
    170 H170        3.4338  -15.7086  -42.8604 H         1 UNK         0.0600 
    171 H171        3.4606  -16.9657  -45.0308 H         1 UNK         0.0600 
    172 H172        2.2327  -15.8726  -45.6673 H         1 UNK         0.0600 
    173 H173        3.8252  -15.2634  -45.2449 H         1 UNK         0.0600 
    174 H174        1.1483  -14.2180  -44.0963 H         1 UNK         0.3000 
    175 H175        1.9860  -11.2724  -42.2457 H         1 UNK         0.0600 
    176 H176        2.0340  -11.9094  -45.2400 H         1 UNK         0.0600 
    177 H177        1.7537  -10.3167  -44.5359 H         1 UNK         0.0600 
    178 H178        3.3081  -11.1097  -44.3308 H         1 UNK         0.0600 
    179 H179       -0.1206  -12.2439  -44.0589 H         1 UNK         0.3000 
    180 H180       -2.5165  -12.6025  -41.4802 H         1 UNK         0.0600 
    181 H181       -3.7188  -10.8054  -42.6974 H         1 UNK         0.0600 
    182 H182       -2.2132  -10.2645  -43.4404 H         1 UNK         0.0600 
    183 H183       -2.4435  -10.1221  -41.7019 H         1 UNK         0.0600 
    184 H184       -2.5921  -12.5098  -44.3836 H         1 UNK         0.3000 
    185 H185       -2.2225  -16.0173  -44.8151 H         1 UNK         0.0600 
    186 H186       -4.5981  -15.8145  -44.1051 H         1 UNK         0.0600 
    187 H187       -4.7412  -14.2623  -44.9217 H         1 UNK         0.0600 
    188 H188       -4.4940  -15.7294  -45.8602 H         1 UNK         0.0600 
    189 H189       -2.9264  -14.1952  -46.7616 H         1 UNK         0.3000 
    190 H190       -1.6093  -19.8388  -45.4700 H         1 UNK         0.3000 
    191 H191       -3.8469  -17.9042  -45.3541 H         1 UNK         0.0600 
    192 H192       -4.2560  -18.8566  -43.1394 H         1 UNK         0.0600 
    193 H193       -2.5625  -18.4140  -43.2581 H         1 UNK         0.0600 
    194 H194       -3.0451  -20.1049  -43.3880 H         1 UNK         0.0600 
    195 H195       -3.2941  -20.3053  -47.3055 H         1 UNK         0.3000 
    196 H196       -4.4589  -21.5950  -48.6182 H         1 UNK         0.0600 
    197 H197       -7.0504  -20.5978  -47.3403 H         1 UNK         0.0600 
    198 H198       -6.1888  -19.7752  -48.6401 H         1 UNK         0.0600 
    199 H199       -6.8714  -21.3703  -48.9070 H         1 UNK         0.0600 
    200 H200       -3.4528  -22.5728  -46.0722 H         1 UNK         0.3000 
    201 H201       -5.0523  -24.7424  -45.1220 H         1 UNK         0.0600 
    202 H202       -2.0003  -24.4675  -45.2575 H         1 UNK         0.0600 
    203 H203       -2.8928  -25.6140  -44.2695 H         1 UNK         0.0600 
    204 H204       -3.0180  -23.8928  -43.9367 H         1 UNK         0.0600 
    205 H205       -5.6915  -26.4953  -46.2053 H         1 UNK         0.3000 
    206 H206       -6.0901  -27.9977  -47.7709 H         1 UNK         0.0600 
    207 H207       -3.8736  -28.9364  -47.0484 H         1 UNK         0.0600 
    208 H208       -4.2351  -29.2990  -48.7268 H         1 UNK         0.0600 
    209 H209       -3.0785  -28.0340  -48.3377 H         1 UNK         0.0600 
    210 H210       -6.0733  -25.1115  -48.4935 H         1 UNK         0.3000 
    211 H211       -6.4679  -23.7246  -50.1391 H         1 UNK         0.0600 
    212 H212       -7.4769  -24.4933  -52.2372 H         1 UNK         0.0600 
    213 H213       -8.1086  -25.4577  -50.9141 H         1 UNK         0.0600 
    214 H214       -6.8818  -26.1274  -51.9897 H         1 UNK         0.0600 
    215 H215       -3.6620  -24.7269  -49.6732 H         1 UNK         0.3000 
    216 H216       -2.2367  -24.9241  -52.0547 H         1 UNK         0.0600 
    217 H217       -1.3359  -23.9346  -49.3152 H         1 UNK         0.0600 
    218 H218       -0.2458  -24.4190  -50.6149 H         1 UNK         0.0600 
    219 H219       -1.3224  -25.6004  -49.8842 H         1 UNK         0.0600 
    220 H220       -3.0610  -21.9366  -50.2653 H         1 UNK         0.3000 
    221 H221       -1.5779  -20.1031  -51.8123 H         1 UNK         0.0600 
    222 H222       -2.6314  -19.4413  -49.6835 H         1 UNK         0.0600 
    223 H223       -4.2419  -19.7321  -50.3360 H         1 UNK         0.0600 
    224 H224       -3.2546  -18.4234  -50.9639 H         1 UNK         0.0600 
    225 H225       -4.8396  -21.4566  -52.3566 H         1 UNK         0.3000 
    226 H226       -5.4534  -19.8251  -54.6589 H         1 UNK         0.0600 
    227 H227       -6.7140  -22.4424  -53.6752 H         1 UNK         0.0600 
    228 H228       -7.2336  -20.8174  -53.2302 H         1 UNK         0.0600 
    229 H229       -7.3854  -21.3667  -54.8919 H         1 UNK         0.0600 
    230 H230       -4.1135  -23.1051  -54.1584 H         1 UNK         0.3000 
    231 H231       -3.9061  -23.8355  -56.9042 H         1 UNK         0.0600 
    232 H232       -2.2335  -24.7630  -54.5097 H         1 UNK         0.0600 
    233 H233       -2.3613  -25.5819  -56.0599 H         1 UNK         0.0600 
    234 H234       -3.7708  -25.4599  -55.0161 H         1 UNK         0.0600 
    235 H235       -1.6221  -22.1508  -54.7154 H         1 UNK         0.3000 
    236 H236        0.5257  -21.9629  -56.5921 H         1 UNK         0.0600 
    237 H237        0.9017  -21.8521  -54.1613 H         1 UNK         0.0600 
    238 H238        1.4628  -20.3628  -54.9060 H         1 UNK         0.0600 
    239 H239       -0.0639  -20.3842  -54.0326 H         1 UNK         0.0600 
    240 H240       -1.8419  -19.4677  -55.4445 H         1 UNK         0.3000 
    241 H241       -0.7973  -17.5855  -57.4561 H         1 UNK         0.0600 
    242 H242       -4.4040  -18.8337  -58.6928 H         1 UNK         0.3800 
    243 H243       -3.5514  -19.7376  -57.4762 H         1 UNK         0.3800 
    244 H244       -2.6747  -17.1015  -55.1109 H         1 UNK         0.0800 
    245 H245       -2.0356  -15.8638  -56.1629 H         1 UNK         0.0800 
    246 H246       -1.6391  -17.3866  -52.8284 H         1 UNK         0.0800 
    247 H247       -1.7165  -15.6545  -53.0560 H         1 UNK         0.0800 
@<TRIPOS>BOND
     1    1    2 1    
     2    1  127 1    
     3    1  128 1    
     4    1  129 1    
     5    2    3 2    
     6    2    4 am   BACKBONE|DICT|INTERRES
     7    4    5 1    
     8    4  130 1    
     9    5    6 1    
    10    5   65 1    
    11    5  131 1    
    12    6    7 1    
    13    6  132 1    
    14    6  133 1    
    15    7    8 1    
    16    8    9 1    
    17    8  134 1    
    18    8  135 1    
    19    9   10 ar   
    20    9   14 ar   
    21   10   11 ar   
    22   10  136 1    
    23   11   12 ar   
    24   11  126 1    
    25   12   13 ar   
    26   12  137 1    
    27   13   14 ar   
    28   13   15 1    
    29   14  138 1    
    30   15   16 1    
    31   15  139 1    
    32   15  140 1    
    33   16   17 1    
    34   17   18 1    
    35   17  141 1    
    36   17  142 1    
    37   18   19 1    
    38   18   67 1    
    39   18  143 1    
    40   19   20 am   BACKBONE|DICT|INTERRES
    41   19  144 1    
    42   20   21 2    
    43   20   22 1    
    44   22   23 1    
    45   22   24 1    
    46   22  145 1    
    47   23  146 1    
    48   23  147 1    
    49   23  148 1    
    50   24   25 am   BACKBONE|DICT|INTERRES
    51   24  149 1    
    52   25   26 2    
    53   25   27 1    
    54   27   28 1    
    55   27   29 1    
    56   27  150 1    
    57   28  151 1    
    58   28  152 1    
    59   28  153 1    
    60   29   30 am   BACKBONE|DICT|INTERRES
    61   29  154 1    
    62   30   31 2    
    63   30   32 1    
    64   32   33 1    
    65   32   34 1    
    66   32  155 1    
    67   33  156 1    
    68   33  157 1    
    69   33  158 1    
    70   34   35 am   BACKBONE|DICT|INTERRES
    71   34  159 1    
    72   35   36 2    
    73   35   37 1    
    74   37   38 1    
    75   37   39 1    
    76   37  160 1    
    77   38  161 1    
    78   38  162 1    
    79   38  163 1    
    80   39   40 am   BACKBONE|DICT|INTERRES
    81   39  164 1    
    82   40   41 2    
    83   40   42 1    
    84   42   43 1    
    85   42   44 1    
    86   42  165 1    
    87   43  166 1    
    88   43  167 1    
    89   43  168 1    
    90   44   45 am   BACKBONE|DICT|INTERRES
    91   44  169 1    
    92   45   46 2    
    93   45   47 1    
    94   47   48 1    
    95   47   49 1    
    96   47  170 1    
    97   48  171 1    
    98   48  172 1    
    99   48  173 1    
   100   49   50 am   BACKBONE|DICT|INTERRES
   101   49  174 1    
   102   50   51 2    
   103   50   52 1    
   104   52   53 1    
   105   52   54 1    
   106   52  175 1    
   107   53  176 1    
   108   53  177 1    
   109   53  178 1    
   110   54   55 am   BACKBONE|DICT|INTERRES
   111   54  179 1    
   112   55   56 2    
   113   55   57 1    
   114   57   58 1    
   115   57   59 1    
   116   57  180 1    
   117   58  181 1    
   118   58  182 1    
   119   58  183 1    
   120   59   60 am   BACKBONE|DICT|INTERRES
   121   59  184 1    
   122   60   61 2    
   123   60   62 1    
   124   62   63 1    
   125   62   64 1    
   126   62  185 1    
   127   63  186 1    
   128   63  187 1    
   129   63  188 1    
   130   64   65 am   BACKBONE|DICT|INTERRES
   131   64  189 1    
   132   65   66 2    
   133   67   68 2    
   134   67   69 am   BACKBONE|DICT|INTERRES
   135   69   70 1    
   136   69  190 1    
   137   70   71 1    
   138   70   72 1    
   139   70  191 1    
   140   71  192 1    
   141   71  193 1    
   142   71  194 1    
   143   72   73 2    
   144   72   74 am   BACKBONE|DICT|INTERRES
   145   74   75 1    
   146   74  195 1    
   147   75   76 1    
   148   75   77 1    
   149   75  196 1    
   150   76  197 1    
   151   76  198 1    
   152   76  199 1    
   153   77   78 2    
   154   77   79 am   BACKBONE|DICT|INTERRES
   155   79   80 1    
   156   79  200 1    
   157   80   81 1    
   158   80   82 1    
   159   80  201 1    
   160   81  202 1    
   161   81  203 1    
   162   81  204 1    
   163   82   83 2    
   164   82   84 am   BACKBONE|DICT|INTERRES
   165   84   85 1    
   166   84  205 1    
   167   85   86 1    
   168   85   87 1    
   169   85  206 1    
   170   86  207 1    
   171   86  208 1    
   172   86  209 1    
   173   87   88 2    
   174   87   89 am   BACKBONE|DICT|INTERRES
   175   89   90 1    
   176   89  210 1    
   177   90   91 1    
   178   90   92 1    
   179   90  211 1    
   180   91  212 1    
   181   91  213 1    
   182   91  214 1    
   183   92   93 2    
   184   92   94 am   BACKBONE|DICT|INTERRES
   185   94   95 1    
   186   94  215 1    
   187   95   96 1    
   188   95   97 1    
   189   95  216 1    
   190   96  217 1    
   191   96  218 1    
   192   96  219 1    
   193   97   98 2    
   194   97   99 am   BACKBONE|DICT|INTERRES
   195   99  100 1    
   196   99  220 1    
   197  100  101 1    
   198  100  102 1    
   199  100  221 1    
   200  101  222 1    
   201  101  223 1    
   202  101  224 1    
   203  102  103 2    
   204  102  104 am   BACKBONE|DICT|INTERRES
   205  104  105 1    
   206  104  225 1    
   207  105  106 1    
   208  105  107 1    
   209  105  226 1    
   210  106  227 1    
   211  106  228 1    
   212  106  229 1    
   213  107  108 2    
   214  107  109 am   BACKBONE|DICT|INTERRES
   215  109  110 1    
   216  109  230 1    
   217  110  111 1    
   218  110  112 1    
   219  110  231 1    
   220  111  232 1    
   221  111  233 1    
   222  111  234 1    
   223  112  113 2    
   224  112  114 am   BACKBONE|DICT|INTERRES
   225  114  115 1    
   226  114  235 1    
   227  115  116 1    
   228  115  117 1    
   229  115  236 1    
   230  116  237 1    
   231  116  238 1    
   232  116  239 1    
   233  117  118 2    
   234  117  119 am   BACKBONE|DICT|INTERRES
   235  119  120 1    
   236  119  240 1    
   237  120  121 1    
   238  120  124 1    
   239  120  241 1    
   240  121  122 am   BACKBONE|DICT|INTERRES
   241  121  123 2    
   242  122  242 1    
   243  122  243 1    
   244  124  125 1    
   245  124  244 1    
   246  124  245 1    
   247  125  126 1    
   248  126  246 1    
   249  126  247 1    
@<TRIPOS>SUBSTRUCTURE
     1 UNK         1 GROUP             0       ****    0 ROOT    
