@<TRIPOS>MOLECULE
3R540
247   249    1
SMALL
USER_CHARGES


@<TRIPOS>ATOM
      1 CA          0.3021  -10.4433  -44.7910 C.3       0 UNK        -0.1800 
      2 C           0.5928  -10.9528  -46.1953 C.2       0 UNK         0.5000 
      3 O           1.4955  -10.4431  -46.8590 O.2       0 UNK        -0.5000 
      4 N          -0.1706  -11.9563  -46.6458 N.am      1 UNK        -0.5000 
      5 CA         -0.0059  -12.6343  -47.9367 C.3       1 UNK         0.1400 
      6 C6         -1.1846  -13.5833  -48.2623 C.3       23 UNK        -0.0398 
      7 S7         -2.8279  -12.7952  -48.1681 S.3       23 UNK        -0.2404 
      8 C8         -3.6678  -13.5183  -49.6143 C.3       23 UNK        -0.0205 
      9 C9         -3.7948  -15.0328  -49.5119 C.ar      23 UNK        -0.0193 
     10 C10        -2.9015  -15.8602  -50.1955 C.ar      23 UNK        -0.1150 
     11 C11        -3.0152  -17.2490  -50.1156 C.ar      23 UNK        -0.0193 
     12 C12        -4.0432  -17.8129  -49.3566 C.ar      23 UNK        -0.1150 
     13 C13        -4.9466  -16.9998  -48.6566 C.ar      23 UNK        -0.0193 
     14 C14        -4.8110  -15.6096  -48.7451 C.ar      23 UNK        -0.1150 
     15 C15        -6.0886  -17.5576  -47.8007 C.3       23 UNK        -0.0205 
     16 S16        -6.0553  -19.3523  -47.4464 S.3       23 UNK        -0.2404 
     17 C17        -4.5227  -19.5124  -46.4701 C.3       23 UNK        -0.0398 
     18 CA         -3.6288  -20.6807  -46.9677 C.3       11 UNK         0.1400 
     19 N          -2.2116  -20.3104  -46.9882 N.am      11 UNK        -0.5000 
     20 C          -1.2490  -21.0028  -47.6134 C.2       10 UNK         0.5000 
     21 O          -1.4676  -22.0158  -48.2799 O.2       10 UNK        -0.5000 
     22 CA          0.2038  -20.5173  -47.4310 C.3       10 UNK         0.1400 
     23 CB          0.6264  -19.6541  -48.6286 C.3       10 UNK        -0.1800 
     24 N           0.4364  -19.7620  -46.1953 N.am      10 UNK        -0.5000 
     25 C           0.2429  -20.2218  -44.9504 C.2       9 UNK         0.5000 
     26 O          -0.1459  -21.3613  -44.6972 O.2       9 UNK        -0.5000 
     27 CA          0.4399  -19.2190  -43.7977 C.3       9 UNK         0.1400 
     28 CB          1.9078  -19.2131  -43.3468 C.3       9 UNK        -0.1800 
     29 N           0.0213  -17.8450  -44.1051 N.am      9 UNK        -0.5000 
     30 C          -1.1758  -17.4805  -44.5902 C.2       8 UNK         0.5000 
     31 O          -2.0770  -18.2778  -44.8483 O.2       8 UNK        -0.5000 
     32 CA         -1.3861  -15.9765  -44.8146 C.3       8 UNK         0.1400 
     33 CB         -2.8055  -15.6268  -45.2987 C.3       8 UNK        -0.1800 
     34 N          -1.1030  -15.2661  -43.5715 N.am      8 UNK        -0.5000 
     35 C          -0.2373  -14.2565  -43.4435 C.2       7 UNK         0.5000 
     36 O           0.4215  -13.7946  -44.3737 O.2       7 UNK        -0.5000 
     37 CA         -0.0161  -13.7153  -42.0218 C.3       7 UNK         0.1400 
     38 CB         -1.1476  -12.7566  -41.6236 C.3       7 UNK        -0.1800 
     39 N           0.1095  -14.7717  -41.0148 N.am      7 UNK        -0.5000 
     40 C           1.0320  -15.7421  -41.0320 C.2       6 UNK         0.5000 
     41 O           1.8692  -15.8854  -41.9329 O.2       6 UNK        -0.5000 
     42 CA          1.0015  -16.7233  -39.8511 C.3       6 UNK         0.1400 
     43 CB         -0.1127  -17.7684  -40.0190 C.3       6 UNK        -0.1800 
     44 N           2.2927  -17.3890  -39.8106 N.am      6 UNK        -0.5000 
     45 C           3.0101  -17.6816  -38.7225 C.2       5 UNK         0.5000 
     46 O           2.5839  -17.5905  -37.5706 O.2       5 UNK        -0.5000 
     47 CA          4.4678  -18.1259  -38.9711 C.3       5 UNK         0.1400 
     48 CB          4.5844  -19.6558  -38.8910 C.3       5 UNK        -0.1800 
     49 N           4.9919  -17.6764  -40.2675 N.am      5 UNK        -0.5000 
     50 C           5.2166  -16.3977  -40.6059 C.2       4 UNK         0.5000 
     51 O           5.0981  -15.4591  -39.8156 O.2       4 UNK        -0.5000 
     52 CA          5.6074  -16.1091  -42.0678 C.3       4 UNK         0.1400 
     53 CB          5.5359  -17.3396  -42.9956 C.3       4 UNK        -0.1800 
     54 N           4.7163  -15.0828  -42.6025 N.am      4 UNK        -0.5000 
     55 C           5.0578  -13.8133  -42.8534 C.2       3 UNK         0.5000 
     56 O           6.1766  -13.3453  -42.6306 O.2       3 UNK        -0.5000 
     57 CA          3.9597  -12.9392  -43.5005 C.3       3 UNK         0.1400 
     58 CB          4.4692  -11.5548  -43.9514 C.3       3 UNK        -0.1800 
     59 N           3.2783  -13.6159  -44.6113 N.am      3 UNK        -0.5000 
     60 C           3.8433  -14.1477  -45.7093 C.2       2 UNK         0.5000 
     61 O           5.0472  -14.1045  -45.9636 O.2       2 UNK        -0.5000 
     62 CA          2.8966  -14.8448  -46.6971 C.3       2 UNK         0.1400 
     63 CB          2.5250  -16.2452  -46.1805 C.3       2 UNK        -0.1800 
     64 N           1.6771  -14.0616  -46.8767 N.am      2 UNK        -0.5000 
     65 C           1.3136  -13.4331  -48.0016 C.2       1 UNK         0.5000 
     66 O           1.9529  -13.4703  -49.0536 O.2       1 UNK        -0.5000 
     67 C          -3.8905  -21.9747  -46.1644 C.2       11 UNK         0.5000 
     68 O          -4.8875  -22.6488  -46.4207 O.2       11 UNK        -0.5000 
     69 N          -2.9905  -22.3063  -45.2276 N.am      12 UNK        -0.5000 
     70 CA         -3.0333  -23.5214  -44.4192 C.3       12 UNK         0.1400 
     71 CB         -2.8247  -23.1516  -42.9416 C.3       12 UNK        -0.1800 
     72 C          -1.9665  -24.5251  -44.8836 C.2       12 UNK         0.5000 
     73 O          -2.2912  -25.6898  -45.1119 O.2       12 UNK        -0.5000 
     74 N          -0.7164  -24.0602  -45.0202 N.am      13 UNK        -0.5000 
     75 CA          0.4626  -24.8852  -45.2921 C.3       13 UNK         0.1400 
     76 CB          1.7298  -24.0465  -45.0636 C.3       13 UNK        -0.1800 
     77 C           0.4759  -25.5050  -46.6989 C.2       13 UNK         0.5000 
     78 O           0.8837  -26.6577  -46.8463 O.2       13 UNK        -0.5000 
     79 N           0.0226  -24.7366  -47.6969 N.am      14 UNK        -0.5000 
     80 CA         -0.0955  -25.1690  -49.0914 C.3       14 UNK         0.1400 
     81 CB          0.6329  -24.1533  -49.9902 C.3       14 UNK        -0.1800 
     82 C          -1.5675  -25.3198  -49.5152 C.2       14 UNK         0.5000 
     83 O          -1.8272  -25.6018  -50.6851 O.2       14 UNK        -0.5000 
     84 N          -2.5071  -25.0849  -48.5839 N.am      15 UNK        -0.5000 
     85 CA         -3.9644  -25.0669  -48.7717 C.3       15 UNK         0.1400 
     86 CB         -4.4850  -26.4939  -49.0415 C.3       15 UNK        -0.1800 
     87 C          -4.4264  -24.0587  -49.8494 C.2       15 UNK         0.5000 
     88 O          -5.4242  -24.3029  -50.5299 O.2       15 UNK        -0.5000 
     89 N          -3.6424  -22.9846  -50.0473 N.am      16 UNK        -0.5000 
     90 CA         -3.7392  -22.0047  -51.1380 C.3       16 UNK         0.1400 
     91 CB         -5.0207  -21.1606  -50.9935 C.3       16 UNK        -0.1800 
     92 C          -3.6199  -22.6346  -52.5473 C.2       16 UNK         0.5000 
     93 O          -4.0881  -22.0457  -53.5227 O.2       16 UNK        -0.5000 
     94 N          -3.0182  -23.8310  -52.6363 N.am      17 UNK        -0.5000 
     95 CA         -2.9623  -24.7137  -53.8062 C.3       17 UNK         0.1400 
     96 CB         -2.1360  -24.0772  -54.9419 C.3       17 UNK        -0.1800 
     97 C          -4.3550  -25.1953  -54.2736 C.2       17 UNK         0.5000 
     98 O          -4.5222  -25.5192  -55.4505 O.2       17 UNK        -0.5000 
     99 N          -5.3351  -25.2136  -53.3541 N.am      18 UNK        -0.5000 
    100 CA        -6.7502  -25.5889  -53.4933 C.3       18 UNK         0.1400 
    101 CB        -6.9003  -27.0575  -53.9321 C.3       18 UNK        -0.1800 
    102 C         -7.5855  -24.6518  -54.3903 C.2       18 UNK         0.5000 
    103 O         -8.7152  -24.3174  -54.0334 O.2       18 UNK        -0.5000 
    104 N         -7.0179  -24.2320  -55.5250 N.am      19 UNK        -0.5000 
    105 CA        -7.6243  -23.3510  -56.5236 C.3       19 UNK         0.1400 
    106 CB        -6.9532  -23.6384  -57.8776 C.3       19 UNK        -0.1800 
    107 C         -7.5175  -21.8511  -56.1759 C.2       19 UNK         0.5000 
    108 O         -7.9899  -21.0259  -56.9583 O.2       19 UNK        -0.5000 
    109 N         -6.8721  -21.5221  -55.0456 N.am      20 UNK        -0.5000 
    110 CA        -6.4986  -20.1749  -54.5908 C.3       20 UNK         0.1400 
    111 CB        -7.7315  -19.2679  -54.3937 C.3       20 UNK        -0.1800 
    112 C         -5.3996  -19.5356  -55.4679 C.2       20 UNK         0.5000 
    113 O         -5.2980  -18.3100  -55.5420 O.2       20 UNK        -0.5000 
    114 N         -4.5932  -20.3872  -56.1157 N.am      21 UNK        -0.5000 
    115 CA        -3.4512  -20.0054  -56.9431 C.3       21 UNK         0.1400 
    116 CB        -3.2164  -21.1014  -57.9945 C.3       21 UNK        -0.1800 
    117 C         -2.1773  -19.7740  -56.1097 C.2       21 UNK         0.5000 
    118 O         -1.3008  -19.0298  -56.5499 O.2       21 UNK        -0.5000 
    119 N         -2.0965  -20.4147  -54.9340 N.am      22 UNK        -0.5000 
    120 CA        -1.0080  -20.3089  -53.9434 C.3       22 UNK         0.1400 
    121 C          0.3756  -20.8692  -54.3984 C.2       22 UNK         0.5000 
    122 N          0.4742  -21.5844  -55.5119 N.am      22 UNK        -0.7600 
    123 O          1.3760  -20.6853  -53.7106 O.2       22 UNK        -0.5000 
    124 C124       -0.8938  -18.8884  -53.3252 C.3       23 UNK        -0.0398 
    125 S125       -2.4656  -18.2995  -52.6013 S.3       23 UNK        -0.2404 
    126 C126       -2.0173  -18.1289  -50.8487 C.3       23 UNK        -0.0205 
    127 H127       -0.6641  -10.7958  -44.4303 H         1 UNK         0.0600 
    128 H128        0.2911   -9.3535  -44.7773 H         1 UNK         0.0600 
    129 H129        1.0718  -10.7892  -44.1010 H         1 UNK         0.0600 
    130 H130       -0.8889  -12.3340  -46.0450 H         1 UNK         0.3000 
    131 H131        0.0344  -11.8646  -48.7105 H         1 UNK         0.0600 
    132 H132       -1.1949  -14.4429  -47.5913 H         1 UNK         0.0800 
    133 H133       -1.0438  -13.9849  -49.2661 H         1 UNK         0.0800 
    134 H134       -3.1315  -13.2379  -50.5223 H         1 UNK         0.0800 
    135 H135       -4.6613  -13.0762  -49.7016 H         1 UNK         0.0800 
    136 H136       -2.1163  -15.4259  -50.7981 H         1 UNK         0.1150 
    137 H137       -4.1261  -18.8868  -49.3175 H         1 UNK         0.1150 
    138 H138       -5.5012  -14.9689  -48.2139 H         1 UNK         0.1150 
    139 H139       -6.1133  -17.0254  -46.8483 H         1 UNK         0.0800 
    140 H140       -7.0302  -17.3313  -48.3025 H         1 UNK         0.0800 
    141 H141       -4.7744  -19.6040  -45.4117 H         1 UNK         0.0800 
    142 H142       -3.9852  -18.5679  -46.5497 H         1 UNK         0.0800 
    143 H143       -3.8910  -20.9064  -48.0022 H         1 UNK         0.0600 
    144 H144       -1.9558  -19.5201  -46.4051 H         1 UNK         0.3000 
    145 H145        0.8398  -21.4042  -47.4045 H         1 UNK         0.0600 
    146 H146        1.6856  -19.4009  -48.5772 H         1 UNK         0.0600 
    147 H147        0.4659  -20.1811  -49.5705 H         1 UNK         0.0600 
    148 H148        0.0613  -18.7223  -48.6702 H         1 UNK         0.0600 
    149 H149        0.7442  -18.8079  -46.3032 H         1 UNK         0.3000 
    150 H150       -0.1749  -19.5681  -42.9664 H         1 UNK         0.0600 
    151 H151        2.2452  -20.2198  -43.0961 H         1 UNK         0.0600 
    152 H152        2.0474  -18.5976  -42.4598 H         1 UNK         0.0600 
    153 H153        2.5654  -18.8309  -44.1285 H         1 UNK         0.0600 
    154 H154        0.6823  -17.1175  -43.8715 H         1 UNK         0.3000 
    155 H155       -0.6819  -15.6853  -45.5957 H         1 UNK         0.0600 
    156 H156       -3.5651  -15.9366  -44.5802 H         1 UNK         0.0600 
    157 H157       -3.0281  -16.1169  -46.2475 H         1 UNK         0.0600 
    158 H158       -2.9136  -14.5539  -45.4573 H         1 UNK         0.0600 
    159 H159       -1.5640  -15.6152  -42.7430 H         1 UNK         0.3000 
    160 H160        0.9182  -13.1514  -42.0270 H         1 UNK         0.0600 
    161 H161       -2.1085  -13.2687  -41.5599 H         1 UNK         0.0600 
    162 H162       -1.2532  -11.9508  -42.3505 H         1 UNK         0.0600 
    163 H163       -0.9496  -12.2938  -40.6567 H         1 UNK         0.0600 
    164 H164       -0.5397  -14.7307  -40.2422 H         1 UNK         0.3000 
    165 H165        0.8427  -16.1548  -38.9323 H         1 UNK         0.0600 
    166 H166       -0.1171  -18.4732  -39.1874 H         1 UNK         0.0600 
    167 H167       -1.0953  -17.2965  -40.0497 H         1 UNK         0.0600 
    168 H168        0.0071  -18.3399  -40.9385 H         1 UNK         0.0600 
    169 H169        2.7557  -17.4224  -40.7086 H         1 UNK         0.3000 
    170 H170        5.0852  -17.6901  -38.1828 H         1 UNK         0.0600 
    171 H171        4.2292  -20.0245  -37.9277 H         1 UNK         0.0600 
    172 H172        3.9951  -20.1456  -39.6674 H         1 UNK         0.0600 
    173 H173        5.6198  -19.9794  -38.9991 H         1 UNK         0.0600 
    174 H174        5.1292  -18.3910  -40.9675 H         1 UNK         0.3000 
    175 H175        6.6408  -15.7573  -42.0565 H         1 UNK         0.0600 
    176 H176        4.5332  -17.7661  -43.0301 H         1 UNK         0.0600 
    177 H177        5.8098  -17.0694  -44.0159 H         1 UNK         0.0600 
    178 H178        6.2283  -18.1205  -42.6789 H         1 UNK         0.0600 
    179 H179        3.7470  -15.3554  -42.7227 H         1 UNK         0.3000 
    180 H180        3.2074  -12.7763  -42.7282 H         1 UNK         0.0600 
    181 H181        5.2575  -11.6383  -44.7001 H         1 UNK         0.0600 
    182 H182        4.8745  -10.9935  -43.1089 H         1 UNK         0.0600 
    183 H183        3.6634  -10.9593  -44.3807 H         1 UNK         0.0600 
    184 H184        2.2727  -13.7088  -44.5055 H         1 UNK         0.3000 
    185 H185        3.4243  -14.9593  -47.6463 H         1 UNK         0.0600 
    186 H186        3.4139  -16.8670  -46.0663 H         1 UNK         0.0600 
    187 H187        2.0339  -16.1961  -45.2088 H         1 UNK         0.0600 
    188 H188        1.8559  -16.7553  -46.8733 H         1 UNK         0.0600 
    189 H189        1.1095  -13.9157  -46.0451 H         1 UNK         0.3000 
    190 H190       -2.1803  -21.7119  -45.0993 H         1 UNK         0.3000 
    191 H191       -4.0074  -24.0075  -44.5059 H         1 UNK         0.0600 
    192 H192       -1.8736  -22.6431  -42.7784 H         1 UNK         0.0600 
    193 H193       -2.8352  -24.0412  -42.3106 H         1 UNK         0.0600 
    194 H194       -3.6183  -22.4932  -42.5879 H         1 UNK         0.0600 
    195 H195       -0.5312  -23.0776  -44.8248 H         1 UNK         0.3000 
    196 H196        0.4668  -25.7055  -44.5711 H         1 UNK         0.0600 
    197 H197        2.6285  -24.6453  -45.2166 H         1 UNK         0.0600 
    198 H198        1.7673  -23.6582  -44.0456 H         1 UNK         0.0600 
    199 H199        1.7802  -23.1975  -45.7463 H         1 UNK         0.0600 
    200 H200       -0.3038  -23.8010  -47.4930 H         1 UNK         0.3000 
    201 H201        0.3748  -26.1433  -49.2373 H         1 UNK         0.0600 
    202 H202        1.6758  -24.0428  -49.6928 H         1 UNK         0.0600 
    203 H203        0.1693  -23.1678  -49.9541 H         1 UNK         0.0600 
    204 H204        0.6276  -24.4769  -51.0318 H         1 UNK         0.0600 
    205 H205       -2.1867  -24.8804  -47.6489 H         1 UNK         0.3000 
    206 H206       -4.3959  -24.7366  -47.8282 H         1 UNK         0.0600 
    207 H207       -5.5753  -26.5200  -49.0418 H         1 UNK         0.0600 
    208 H208       -4.1462  -27.1883  -48.2725 H         1 UNK         0.0600 
    209 H209       -4.1490  -26.8726  -50.0074 H         1 UNK         0.0600 
    210 H210       -2.8404  -22.8659  -49.4345 H         1 UNK         0.3000 
    211 H211       -2.8831  -21.3397  -51.0210 H         1 UNK         0.0600 
    212 H212       -4.9424  -20.2396  -51.5713 H         1 UNK         0.0600 
    213 H213       -5.2013  -20.8766  -49.9587 H         1 UNK         0.0600 
    214 H214       -5.9022  -21.6998  -51.3424 H         1 UNK         0.0600 
    215 H215       -2.6551  -24.2535  -51.7860 H         1 UNK         0.3000 
    216 H216       -2.4325  -25.6092  -53.4789 H         1 UNK         0.0600 
    217 H217       -1.9462  -24.7977  -55.7381 H         1 UNK         0.0600 
    218 H218       -1.1672  -23.7381  -54.5768 H         1 UNK         0.0600 
    219 H219       -2.6478  -23.2270  -55.3903 H         1 UNK         0.0600 
    220 H220       -5.1002  -24.8835  -52.4227 H         1 UNK         0.3000 
    221 H221       -7.1690  -25.5066  -52.4889 H         1 UNK         0.0600 
    222 H222       -6.5202  -27.2247  -54.9402 H         1 UNK         0.0600 
    223 H223       -6.3669  -27.7264  -53.2567 H         1 UNK         0.0600 
    224 H224       -7.9485  -27.3585  -53.9269 H         1 UNK         0.0600 
    225 H225       -6.0873  -24.5888  -55.7306 H         1 UNK         0.3000 
    226 H226       -8.6861  -23.5906  -56.6090 H         1 UNK         0.0600 
    227 H227       -7.0592  -24.6873  -58.1551 H         1 UNK         0.0600 
    228 H228       -7.4035  -23.0471  -58.6759 H         1 UNK         0.0600 
    229 H229       -5.8880  -23.4039  -57.8552 H         1 UNK         0.0600 
    230 H230       -6.5056  -22.2789  -54.4849 H         1 UNK         0.3000 
    231 H231       -6.0505  -20.3075  -53.6080 H         1 UNK         0.0600 
    232 H232       -8.4932  -19.7627  -53.7913 H         1 UNK         0.0600 
    233 H233       -8.1847  -18.9803  -55.3424 H         1 UNK         0.0600 
    234 H234       -7.4565  -18.3484  -53.8757 H         1 UNK         0.0600 
    235 H235       -4.7384  -21.3743  -55.9639 H         1 UNK         0.3000 
    236 H236       -3.6819  -19.0748  -57.4661 H         1 UNK         0.0600 
    237 H237       -2.3817  -20.8435  -58.6477 H         1 UNK         0.0600 
    238 H238       -2.9889  -22.0635  -57.5348 H         1 UNK         0.0600 
    239 H239       -4.0943  -21.2328  -58.6275 H         1 UNK         0.0600 
    240 H240       -2.8853  -20.9831  -54.6426 H         1 UNK         0.3000 
    241 H241       -1.2982  -20.9769  -53.1336 H         1 UNK         0.0600 
    242 H242        1.3722  -21.9490  -55.7881 H         1 UNK         0.3800 
    243 H243       -0.3317  -21.7385  -56.0945 H         1 UNK         0.3800 
    244 H244       -0.1201  -18.8709  -52.5563 H         1 UNK         0.0800 
    245 H245       -0.5762  -18.1689  -54.0809 H         1 UNK         0.0800 
    246 H246       -1.0245  -17.6849  -50.7617 H         1 UNK         0.0800 
    247 H247       -1.9595  -19.1158  -50.3880 H         1 UNK         0.0800 
@<TRIPOS>BOND
     1    1    2 1    
     2    1  127 1    
     3    1  128 1    
     4    1  129 1    
     5    2    3 2    
     6    2    4 am   BACKBONE|DICT|INTERRES
     7    4    5 1    
     8    4  130 1    
     9    5    6 1    
    10    5   65 1    
    11    5  131 1    
    12    6    7 1    
    13    6  132 1    
    14    6  133 1    
    15    7    8 1    
    16    8    9 1    
    17    8  134 1    
    18    8  135 1    
    19    9   10 ar   
    20    9   14 ar   
    21   10   11 ar   
    22   10  136 1    
    23   11   12 ar   
    24   11  126 1    
    25   12   13 ar   
    26   12  137 1    
    27   13   14 ar   
    28   13   15 1    
    29   14  138 1    
    30   15   16 1    
    31   15  139 1    
    32   15  140 1    
    33   16   17 1    
    34   17   18 1    
    35   17  141 1    
    36   17  142 1    
    37   18   19 1    
    38   18   67 1    
    39   18  143 1    
    40   19   20 am   BACKBONE|DICT|INTERRES
    41   19  144 1    
    42   20   21 2    
    43   20   22 1    
    44   22   23 1    
    45   22   24 1    
    46   22  145 1    
    47   23  146 1    
    48   23  147 1    
    49   23  148 1    
    50   24   25 am   BACKBONE|DICT|INTERRES
    51   24  149 1    
    52   25   26 2    
    53   25   27 1    
    54   27   28 1    
    55   27   29 1    
    56   27  150 1    
    57   28  151 1    
    58   28  152 1    
    59   28  153 1    
    60   29   30 am   BACKBONE|DICT|INTERRES
    61   29  154 1    
    62   30   31 2    
    63   30   32 1    
    64   32   33 1    
    65   32   34 1    
    66   32  155 1    
    67   33  156 1    
    68   33  157 1    
    69   33  158 1    
    70   34   35 am   BACKBONE|DICT|INTERRES
    71   34  159 1    
    72   35   36 2    
    73   35   37 1    
    74   37   38 1    
    75   37   39 1    
    76   37  160 1    
    77   38  161 1    
    78   38  162 1    
    79   38  163 1    
    80   39   40 am   BACKBONE|DICT|INTERRES
    81   39  164 1    
    82   40   41 2    
    83   40   42 1    
    84   42   43 1    
    85   42   44 1    
    86   42  165 1    
    87   43  166 1    
    88   43  167 1    
    89   43  168 1    
    90   44   45 am   BACKBONE|DICT|INTERRES
    91   44  169 1    
    92   45   46 2    
    93   45   47 1    
    94   47   48 1    
    95   47   49 1    
    96   47  170 1    
    97   48  171 1    
    98   48  172 1    
    99   48  173 1    
   100   49   50 am   BACKBONE|DICT|INTERRES
   101   49  174 1    
   102   50   51 2    
   103   50   52 1    
   104   52   53 1    
   105   52   54 1    
   106   52  175 1    
   107   53  176 1    
   108   53  177 1    
   109   53  178 1    
   110   54   55 am   BACKBONE|DICT|INTERRES
   111   54  179 1    
   112   55   56 2    
   113   55   57 1    
   114   57   58 1    
   115   57   59 1    
   116   57  180 1    
   117   58  181 1    
   118   58  182 1    
   119   58  183 1    
   120   59   60 am   BACKBONE|DICT|INTERRES
   121   59  184 1    
   122   60   61 2    
   123   60   62 1    
   124   62   63 1    
   125   62   64 1    
   126   62  185 1    
   127   63  186 1    
   128   63  187 1    
   129   63  188 1    
   130   64   65 am   BACKBONE|DICT|INTERRES
   131   64  189 1    
   132   65   66 2    
   133   67   68 2    
   134   67   69 am   BACKBONE|DICT|INTERRES
   135   69   70 1    
   136   69  190 1    
   137   70   71 1    
   138   70   72 1    
   139   70  191 1    
   140   71  192 1    
   141   71  193 1    
   142   71  194 1    
   143   72   73 2    
   144   72   74 am   BACKBONE|DICT|INTERRES
   145   74   75 1    
   146   74  195 1    
   147   75   76 1    
   148   75   77 1    
   149   75  196 1    
   150   76  197 1    
   151   76  198 1    
   152   76  199 1    
   153   77   78 2    
   154   77   79 am   BACKBONE|DICT|INTERRES
   155   79   80 1    
   156   79  200 1    
   157   80   81 1    
   158   80   82 1    
   159   80  201 1    
   160   81  202 1    
   161   81  203 1    
   162   81  204 1    
   163   82   83 2    
   164   82   84 am   BACKBONE|DICT|INTERRES
   165   84   85 1    
   166   84  205 1    
   167   85   86 1    
   168   85   87 1    
   169   85  206 1    
   170   86  207 1    
   171   86  208 1    
   172   86  209 1    
   173   87   88 2    
   174   87   89 am   BACKBONE|DICT|INTERRES
   175   89   90 1    
   176   89  210 1    
   177   90   91 1    
   178   90   92 1    
   179   90  211 1    
   180   91  212 1    
   181   91  213 1    
   182   91  214 1    
   183   92   93 2    
   184   92   94 am   BACKBONE|DICT|INTERRES
   185   94   95 1    
   186   94  215 1    
   187   95   96 1    
   188   95   97 1    
   189   95  216 1    
   190   96  217 1    
   191   96  218 1    
   192   96  219 1    
   193   97   98 2    
   194   97   99 am   BACKBONE|DICT|INTERRES
   195   99  100 1    
   196   99  220 1    
   197  100  101 1    
   198  100  102 1    
   199  100  221 1    
   200  101  222 1    
   201  101  223 1    
   202  101  224 1    
   203  102  103 2    
   204  102  104 am   BACKBONE|DICT|INTERRES
   205  104  105 1    
   206  104  225 1    
   207  105  106 1    
   208  105  107 1    
   209  105  226 1    
   210  106  227 1    
   211  106  228 1    
   212  106  229 1    
   213  107  108 2    
   214  107  109 am   BACKBONE|DICT|INTERRES
   215  109  110 1    
   216  109  230 1    
   217  110  111 1    
   218  110  112 1    
   219  110  231 1    
   220  111  232 1    
   221  111  233 1    
   222  111  234 1    
   223  112  113 2    
   224  112  114 am   BACKBONE|DICT|INTERRES
   225  114  115 1    
   226  114  235 1    
   227  115  116 1    
   228  115  117 1    
   229  115  236 1    
   230  116  237 1    
   231  116  238 1    
   232  116  239 1    
   233  117  118 2    
   234  117  119 am   BACKBONE|DICT|INTERRES
   235  119  120 1    
   236  119  240 1    
   237  120  121 1    
   238  120  124 1    
   239  120  241 1    
   240  121  122 am   BACKBONE|DICT|INTERRES
   241  121  123 2    
   242  122  242 1    
   243  122  243 1    
   244  124  125 1    
   245  124  244 1    
   246  124  245 1    
   247  125  126 1    
   248  126  246 1    
   249  126  247 1    
@<TRIPOS>SUBSTRUCTURE
     1 UNK         1 GROUP             0       ****    0 ROOT    
