@<TRIPOS>MOLECULE
3R540
247   249    1
SMALL
USER_CHARGES


@<TRIPOS>ATOM
      1 CA          6.0779  -12.1289  -45.5404 C.3       0 UNK        -0.1800 
      2 C           5.8354  -13.6287  -45.4545 C.2       0 UNK         0.5000 
      3 O           6.2651  -14.2632  -44.4898 O.2       0 UNK        -0.5000 
      4 N           5.1507  -14.1972  -46.4560 N.am      1 UNK        -0.5000 
      5 CA          4.7740  -15.6127  -46.5373 C.3       1 UNK         0.1400 
      6 C6          4.1115  -15.9878  -47.8892 C.3       23 UNK        -0.0398 
      7 S7          2.8279  -14.8200  -48.4658 S.3       23 UNK        -0.2404 
      8 C8          2.9751  -14.9599  -50.2743 C.3       23 UNK        -0.0205 
      9 C9          2.2541  -16.1917  -50.7984 C.ar      23 UNK        -0.0193 
     10 C10         0.9574  -16.0842  -51.3083 C.ar      23 UNK        -0.1150 
     11 C11         0.2852  -17.2118  -51.7904 C.ar      23 UNK        -0.0193 
     12 C12         0.9165  -18.4584  -51.7474 C.ar      23 UNK        -0.1150 
     13 C13         2.2073  -18.5800  -51.2226 C.ar      23 UNK        -0.0193 
     14 C14         2.8768  -17.4416  -50.7675 C.ar      23 UNK        -0.1150 
     15 C15         2.8781  -19.9404  -51.1205 C.3       23 UNK        -0.0205 
     16 S16         2.7477  -20.6126  -49.4321 S.3       23 UNK        -0.2404 
     17 C17         0.9607  -20.9597  -49.3396 C.3       23 UNK        -0.0398 
     18 CA          0.6342  -22.0964  -48.3457 C.3       11 UNK         0.1400 
     19 N           0.9601  -21.7518  -46.9611 N.am      11 UNK        -0.5000 
     20 C           1.0488  -22.6377  -45.9607 C.2       10 UNK         0.5000 
     21 O           0.9014  -23.8519  -46.1051 O.2       10 UNK        -0.5000 
     22 CA          1.3033  -22.0611  -44.5563 C.3       10 UNK         0.1400 
     23 CB          2.7993  -21.7794  -44.3487 C.3       10 UNK        -0.1800 
     24 N           0.5332  -20.8413  -44.2994 N.am      10 UNK        -0.5000 
     25 C          -0.8010  -20.8048  -44.1902 C.2       9 UNK         0.5000 
     26 O          -1.5189  -21.7978  -44.2909 O.2       9 UNK        -0.5000 
     27 CA         -1.4530  -19.4297  -43.9579 C.3       9 UNK         0.1400 
     28 CB         -1.4229  -19.0641  -42.4663 C.3       9 UNK        -0.1800 
     29 N          -0.8965  -18.3160  -44.7309 N.am      9 UNK        -0.5000 
     30 C          -0.6848  -18.2800  -46.0553 C.2       8 UNK         0.5000 
     31 O          -0.7386  -19.2667  -46.7908 O.2       8 UNK        -0.5000 
     32 CA         -0.4238  -16.8759  -46.6403 C.3       8 UNK         0.1400 
     33 CB         -0.3634  -16.8632  -48.1799 C.3       8 UNK        -0.1800 
     34 N          -1.4050  -15.9024  -46.1422 N.am      8 UNK        -0.5000 
     35 C          -2.7426  -15.9592  -46.2668 C.2       7 UNK         0.5000 
     36 O          -3.3425  -16.8038  -46.9318 O.2       7 UNK        -0.5000 
     37 CA         -3.5563  -14.9087  -45.4936 C.3       7 UNK         0.1400 
     38 CB         -3.7287  -15.3483  -44.0299 C.3       7 UNK        -0.1800 
     39 N          -2.9099  -13.5985  -45.5231 N.am      7 UNK        -0.5000 
     40 C          -3.3172  -12.5552  -46.2588 C.2       6 UNK         0.5000 
     41 O          -4.3188  -12.5704  -46.9756 O.2       6 UNK        -0.5000 
     42 CA         -2.4677  -11.2688  -46.1835 C.3       6 UNK         0.1400 
     43 CB         -3.0597  -10.2943  -45.1537 C.3       6 UNK        -0.1800 
     44 N          -1.0673  -11.5245  -45.8436 N.am      6 UNK        -0.5000 
     45 C          -0.1907  -12.1395  -46.6486 C.2       5 UNK         0.5000 
     46 O          -0.4411  -12.4534  -47.8122 O.2       5 UNK        -0.5000 
     47 CA          1.1870  -12.4868  -46.0513 C.3       5 UNK         0.1400 
     48 CB          2.2567  -11.5042  -46.5494 C.3       5 UNK        -0.1800 
     49 N           1.2457  -12.5538  -44.5867 N.am      5 UNK        -0.5000 
     50 C           0.5447  -13.4014  -43.8219 C.2       4 UNK         0.5000 
     51 O          -0.3510  -14.1298  -44.2526 O.2       4 UNK        -0.5000 
     52 CA          0.9594  -13.4720  -42.3481 C.3       4 UNK         0.1400 
     53 CB          0.0679  -14.4202  -41.5199 C.3       4 UNK        -0.1800 
     54 N           2.3459  -13.9202  -42.3025 N.am      4 UNK        -0.5000 
     55 C           3.1969  -13.7386  -41.2845 C.2       3 UNK         0.5000 
     56 O           2.9210  -13.0761  -40.2827 O.2       3 UNK        -0.5000 
     57 CA          4.5862  -14.4092  -41.4081 C.3       3 UNK         0.1400 
     58 CB          5.2045  -14.7665  -40.0404 C.3       3 UNK        -0.1800 
     59 N           4.5880  -15.5705  -42.3069 N.am      3 UNK        -0.5000 
     60 C           3.8669  -16.6980  -42.1830 C.2       2 UNK         0.5000 
     61 O           3.2101  -16.9790  -41.1798 O.2       2 UNK        -0.5000 
     62 CA          3.8384  -17.6626  -43.3919 C.3       2 UNK         0.1400 
     63 CB          2.4168  -18.2040  -43.6428 C.3       2 UNK        -0.1800 
     64 N           4.3887  -17.0996  -44.6333 N.am      2 UNK        -0.5000 
     65 C           3.9247  -16.0471  -45.3240 C.2       1 UNK         0.5000 
     66 O           2.9257  -15.4002  -45.0028 O.2       1 UNK        -0.5000 
     67 C          -0.8400  -22.5164  -48.4667 C.2       11 UNK         0.5000 
     68 O          -1.1284  -23.5044  -49.1389 O.2       11 UNK        -0.5000 
     69 N          -1.7387  -21.7916  -47.7850 N.am      12 UNK        -0.5000 
     70 CA         -3.1663  -22.1027  -47.7123 C.3       12 UNK         0.1400 
     71 CB         -3.9062  -20.9799  -46.9719 C.3       12 UNK        -0.1800 
     72 C          -3.4366  -23.4708  -47.0601 C.2       12 UNK         0.5000 
     73 O          -4.2466  -24.2368  -47.5786 O.2       12 UNK        -0.5000 
     74 N          -2.7214  -23.7809  -45.9690 N.am      13 UNK        -0.5000 
     75 CA         -2.7578  -25.0782  -45.2925 C.3       13 UNK         0.1400 
     76 CB         -1.9506  -25.0112  -43.9876 C.3       13 UNK        -0.1800 
     77 C          -2.2580  -26.2257  -46.1877 C.2       13 UNK         0.5000 
     78 O          -2.9196  -27.2616  -46.2646 O.2       13 UNK        -0.5000 
     79 N          -1.1358  -26.0061  -46.8896 N.am      14 UNK        -0.5000 
     80 CA         -0.5719  -26.9437  -47.8667 C.3       14 UNK         0.1400 
     81 CB          0.8013  -26.4365  -48.3317 C.3       14 UNK        -0.1800 
     82 C          -1.5011  -27.1919  -49.0723 C.2       14 UNK         0.5000 
     83 O          -1.5618  -28.3140  -49.5753 O.2       14 UNK        -0.5000 
     84 N          -2.2400  -26.1526  -49.4800 N.am      15 UNK        -0.5000 
     85 CA         -3.2635  -26.1851  -50.5245 C.3       15 UNK         0.1400 
     86 CB         -3.3968  -24.7745  -51.1222 C.3       15 UNK        -0.1800 
     87 C          -4.6302  -26.7188  -50.0386 C.2       15 UNK         0.5000 
     88 O          -5.5855  -26.6910  -50.8139 O.2       15 UNK        -0.5000 
     89 N          -4.7150  -27.1876  -48.7837 N.am      16 UNK        -0.5000 
     90 CA         -5.8924  -27.7674  -48.1281 C.3       16 UNK         0.1400 
     91 CB         -6.3098  -29.0878  -48.8097 C.3       16 UNK        -0.1800 
     92 C          -7.0542  -26.7632  -47.9751 C.2       16 UNK         0.5000 
     93 O          -8.2063  -27.0927  -48.2619 O.2       16 UNK        -0.5000 
     94 N          -6.7114  -25.5518  -47.5170 N.am      17 UNK        -0.5000 
     95 CA         -7.5778  -24.3999  -47.2415 C.3       17 UNK         0.1400 
     96 CB         -8.7108  -24.7517  -46.2542 C.3       17 UNK        -0.1800 
     97 C          -8.0825  -23.6731  -48.5044 C.2       17 UNK         0.5000 
     98 O          -8.9725  -22.8265  -48.4005 O.2       17 UNK        -0.5000 
     99 N          -7.4889  -23.9749  -49.6661 N.am      18 UNK        -0.5000 
    100 CA        -7.6732  -23.2254  -50.9076 C.3       18 UNK         0.1400 
    101 CB        -7.3390  -24.1417  -52.0954 C.3       18 UNK        -0.1800 
    102 C         -6.8027  -21.9516  -50.9224 C.2       18 UNK         0.5000 
    103 O         -5.9713  -21.7480  -50.0346 O.2       18 UNK        -0.5000 
    104 N         -6.9935  -21.1230  -51.9570 N.am      19 UNK        -0.5000 
    105 CA        -6.3060  -19.8414  -52.1568 C.3       19 UNK         0.1400 
    106 CB        -7.0627  -19.0453  -53.2319 C.3       19 UNK        -0.1800 
    107 C         -4.8091  -19.9521  -52.5219 C.2       19 UNK         0.5000 
    108 O         -4.1395  -18.9224  -52.6030 O.2       19 UNK        -0.5000 
    109 N         -4.3146  -21.1776  -52.7583 N.am      20 UNK        -0.5000 
    110 CA        -2.9205  -21.5243  -53.0638 C.3       20 UNK         0.1400 
    111 CB        -2.0240  -21.2907  -51.8317 C.3       20 UNK        -0.1800 
    112 C         -2.3944  -20.8369  -54.3415 C.2       20 UNK         0.5000 
    113 O         -1.2624  -20.3536  -54.3710 O.2       20 UNK        -0.5000 
    114 N         -3.2588  -20.8036  -55.3663 N.am      21 UNK        -0.5000 
    115 CA        -3.0712  -20.2289  -56.7047 C.3       21 UNK         0.1400 
    116 CB        -1.8551  -20.8525  -57.4215 C.3       21 UNK        -0.1800 
    117 C         -3.0493  -18.6859  -56.7613 C.2       21 UNK         0.5000 
    118 O         -2.9254  -18.1375  -57.8583 O.2       21 UNK        -0.5000 
    119 N         -3.2034  -18.0045  -55.6191 N.am      22 UNK        -0.5000 
    120 CA        -3.3817  -16.5466  -55.5487 C.3       22 UNK         0.1400 
    121 C         -4.8327  -16.1163  -55.9053 C.2       22 UNK         0.5000 
    122 N         -5.0262  -14.8770  -56.3361 N.am      22 UNK        -0.7600 
    123 O         -5.7889  -16.8775  -55.7751 O.2       22 UNK        -0.5000 
    124 C124       -2.9549  -15.9783  -54.1734 C.3       23 UNK        -0.0398 
    125 S125       -1.1600  -16.1466  -53.8915 S.3       23 UNK        -0.2404 
    126 C126       -1.1301  -17.0794  -52.3313 C.3       23 UNK        -0.0205 
    127 H127        5.5340  -11.6159  -44.7474 H         1 UNK         0.0600 
    128 H128        5.7547  -11.7203  -46.4981 H         1 UNK         0.0600 
    129 H129        7.1397  -11.9133  -45.4221 H         1 UNK         0.0600 
    130 H130        4.7917  -13.6212  -47.2038 H         1 UNK         0.3000 
    131 H131        5.7116  -16.1710  -46.4880 H         1 UNK         0.0600 
    132 H132        3.6830  -16.9913  -47.8530 H         1 UNK         0.0800 
    133 H133        4.8931  -16.0326  -48.6482 H         1 UNK         0.0800 
    134 H134        4.0244  -14.9770  -50.5718 H         1 UNK         0.0800 
    135 H135        2.5499  -14.0621  -50.7254 H         1 UNK         0.0800 
    136 H136        0.4660  -15.1215  -51.3292 H         1 UNK         0.1150 
    137 H137        0.3980  -19.3349  -52.1101 H         1 UNK         0.1150 
    138 H138        3.8760  -17.5356  -50.3674 H         1 UNK         0.1150 
    139 H139        2.4465  -20.6420  -51.8361 H         1 UNK         0.0800 
    140 H140        3.9328  -19.8476  -51.3838 H         1 UNK         0.0800 
    141 H141        0.6197  -21.2327  -50.3388 H         1 UNK         0.0800 
    142 H142        0.4356  -20.0401  -49.0763 H         1 UNK         0.0800 
    143 H143        1.2365  -22.9643  -48.6239 H         1 UNK         0.0600 
    144 H144        1.0104  -20.7655  -46.7484 H         1 UNK         0.3000 
    145 H145        0.9955  -22.8139  -43.8273 H         1 UNK         0.0600 
    146 H146        2.9969  -21.4109  -43.3419 H         1 UNK         0.0600 
    147 H147        3.3867  -22.6888  -44.4816 H         1 UNK         0.0600 
    148 H148        3.1761  -21.0420  -45.0584 H         1 UNK         0.0600 
    149 H149        1.0468  -19.9776  -44.2148 H         1 UNK         0.3000 
    150 H150       -2.4989  -19.5203  -44.2562 H         1 UNK         0.0600 
    151 H151       -1.8481  -19.8635  -41.8578 H         1 UNK         0.0600 
    152 H152       -2.0052  -18.1638  -42.2686 H         1 UNK         0.0600 
    153 H153       -0.4055  -18.8889  -42.1145 H         1 UNK         0.0600 
    154 H154       -0.8246  -17.4402  -44.2345 H         1 UNK         0.3000 
    155 H155        0.5504  -16.5547  -46.2679 H         1 UNK         0.0600 
    156 H156       -1.2803  -17.2436  -48.6309 H         1 UNK         0.0600 
    157 H157       -0.1983  -15.8538  -48.5564 H         1 UNK         0.0600 
    158 H158        0.4590  -17.4819  -48.5410 H         1 UNK         0.0600 
    159 H159       -1.0197  -15.1856  -45.5305 H         1 UNK         0.3000 
    160 H160       -4.5483  -14.8564  -45.9472 H         1 UNK         0.0600 
    161 H161       -2.7720  -15.4137  -43.5100 H         1 UNK         0.0600 
    162 H162       -4.2029  -16.3288  -43.9693 H         1 UNK         0.0600 
    163 H163       -4.3587  -14.6478  -43.4818 H         1 UNK         0.0600 
    164 H164       -2.0483  -13.5160  -44.9941 H         1 UNK         0.3000 
    165 H165       -2.5008  -10.7918  -47.1653 H         1 UNK         0.0600 
    166 H166       -2.5094   -9.3533  -45.1385 H         1 UNK         0.0600 
    167 H167       -4.0978  -10.0583  -45.3915 H         1 UNK         0.0600 
    168 H168       -3.0406  -10.7123  -44.1464 H         1 UNK         0.0600 
    169 H169       -0.7734  -11.2905  -44.9070 H         1 UNK         0.3000 
    170 H170        1.4379  -13.4833  -46.4141 H         1 UNK         0.0600 
    171 H171        2.2819  -11.4729  -47.6395 H         1 UNK         0.0600 
    172 H172        2.0686  -10.4907  -46.1934 H         1 UNK         0.0600 
    173 H173        3.2483  -11.8016  -46.2126 H         1 UNK         0.0600 
    174 H174        1.9637  -11.9981  -44.1456 H         1 UNK         0.3000 
    175 H175        0.8842  -12.4638  -41.9359 H         1 UNK         0.0600 
    176 H176        0.1388  -15.4490  -41.8758 H         1 UNK         0.0600 
    177 H177        0.3506  -14.4125  -40.4674 H         1 UNK         0.0600 
    178 H178       -0.9798  -14.1221  -41.5759 H         1 UNK         0.0600 
    179 H179        2.6515  -14.4523  -43.1124 H         1 UNK         0.3000 
    180 H180        5.2343  -13.6673  -41.8763 H         1 UNK         0.0600 
    181 H181        4.5682  -15.4443  -39.4708 H         1 UNK         0.0600 
    182 H182        5.3530  -13.8728  -39.4332 H         1 UNK         0.0600 
    183 H183        6.1786  -15.2405  -40.1600 H         1 UNK         0.0600 
    184 H184        5.1047  -15.4305  -43.1687 H         1 UNK         0.3000 
    185 H185        4.4781  -18.5065  -43.1297 H         1 UNK         0.0600 
    186 H186        2.1009  -18.8545  -42.8266 H         1 UNK         0.0600 
    187 H187        1.6871  -17.3968  -43.7174 H         1 UNK         0.0600 
    188 H188        2.3754  -18.7768  -44.5680 H         1 UNK         0.0600 
    189 H189        5.2417  -17.5378  -44.9530 H         1 UNK         0.3000 
    190 H190       -1.4193  -20.9653  -47.2852 H         1 UNK         0.3000 
    191 H191       -3.5480  -22.1416  -48.7343 H         1 UNK         0.0600 
    192 H192       -3.5903  -20.9052  -45.9319 H         1 UNK         0.0600 
    193 H193       -4.9825  -21.1569  -46.9784 H         1 UNK         0.0600 
    194 H194       -3.7323  -20.0131  -47.4454 H         1 UNK         0.0600 
    195 H195       -2.1194  -23.0729  -45.5568 H         1 UNK         0.3000 
    196 H196       -3.7980  -25.2886  -45.0354 H         1 UNK         0.0600 
    197 H197       -1.9616  -25.9714  -43.4703 H         1 UNK         0.0600 
    198 H198       -2.3679  -24.2705  -43.3054 H         1 UNK         0.0600 
    199 H199       -0.9087  -24.7470  -44.1703 H         1 UNK         0.0600 
    200 H200       -0.6315  -25.1370  -46.7507 H         1 UNK         0.3000 
    201 H201       -0.4262  -27.9005  -47.3612 H         1 UNK         0.0600 
    202 H202        1.4856  -26.3238  -47.4907 H         1 UNK         0.0600 
    203 H203        0.7261  -25.4715  -48.8329 H         1 UNK         0.0600 
    204 H204        1.2590  -27.1356  -49.0326 H         1 UNK         0.0600 
    205 H205       -2.0687  -25.2462  -49.0548 H         1 UNK         0.3000 
    206 H206       -2.9245  -26.8528  -51.3189 H         1 UNK         0.0600 
    207 H207       -2.4257  -24.3838  -51.4262 H         1 UNK         0.0600 
    208 H208       -4.0261  -24.7843  -52.0112 H         1 UNK         0.0600 
    209 H209       -3.8331  -24.0729  -50.4100 H         1 UNK         0.0600 
    210 H210       -3.8867  -27.1326  -48.2033 H         1 UNK         0.3000 
    211 H211       -5.5773  -28.0148  -47.1134 H         1 UNK         0.0600 
    212 H212       -6.6906  -28.9240  -49.8181 H         1 UNK         0.0600 
    213 H213       -7.0958  -29.5874  -48.2423 H         1 UNK         0.0600 
    214 H214       -5.4696  -29.7791  -48.8762 H         1 UNK         0.0600 
    215 H215       -5.7187  -25.3471  -47.4160 H         1 UNK         0.3000 
    216 H216       -6.9335  -23.6779  -46.7378 H         1 UNK         0.0600 
    217 H217       -9.2172  -23.8509  -45.9058 H         1 UNK         0.0600 
    218 H218       -8.3233  -25.2644  -45.3738 H         1 UNK         0.0600 
    219 H219       -9.4672  -25.3896  -46.7115 H         1 UNK         0.0600 
    220 H220       -6.7538  -24.6676  -49.6606 H         1 UNK         0.3000 
    221 H221       -8.7195  -22.9238  -50.9906 H         1 UNK         0.0600 
    222 H222       -6.2825  -24.4026  -52.1173 H         1 UNK         0.0600 
    223 H223       -7.9089  -25.0701  -52.0494 H         1 UNK         0.0600 
    224 H224       -7.5785  -23.6648  -53.0463 H         1 UNK         0.0600 
    225 H225       -7.6861  -21.3646  -52.6512 H         1 UNK         0.3000 
    226 H226       -6.3608  -19.2821  -51.2205 H         1 UNK         0.0600 
    227 H227       -8.1080  -18.9025  -52.9578 H         1 UNK         0.0600 
    228 H228       -6.6277  -18.0536  -53.3637 H         1 UNK         0.0600 
    229 H229       -7.0324  -19.5460  -54.2004 H         1 UNK         0.0600 
    230 H230       -4.9544  -21.9536  -52.6772 H         1 UNK         0.3000 
    231 H231       -2.9102  -22.5944  -53.2747 H         1 UNK         0.0600 
    232 H232       -1.0184  -21.6731  -52.0065 H         1 UNK         0.0600 
    233 H233       -2.4218  -21.8074  -50.9594 H         1 UNK         0.0600 
    234 H234       -1.9394  -20.2340  -51.5797 H         1 UNK         0.0600 
    235 H235       -4.1712  -21.2063  -55.2045 H         1 UNK         0.3000 
    236 H236       -3.9578  -20.5241  -57.2676 H         1 UNK         0.0600 
    237 H237       -1.8285  -20.5589  -58.4715 H         1 UNK         0.0600 
    238 H238       -0.9123  -20.5361  -56.9750 H         1 UNK         0.0600 
    239 H239       -1.8937  -21.9414  -57.3923 H         1 UNK         0.0600 
    240 H240       -3.3241  -18.5117  -54.7526 H         1 UNK         0.3000 
    241 H241       -2.7317  -16.0952  -56.3014 H         1 UNK         0.0600 
    242 H242       -4.2616  -14.2301  -56.4555 H         1 UNK         0.3800 
    243 H243       -5.9627  -14.5800  -56.5634 H         1 UNK         0.3800 
    244 H244       -3.1869  -14.9140  -54.1068 H         1 UNK         0.0800 
    245 H245       -3.5149  -16.4579  -53.3695 H         1 UNK         0.0800 
    246 H246       -1.5735  -18.0611  -52.5000 H         1 UNK         0.0800 
    247 H247       -1.7516  -16.5774  -51.5882 H         1 UNK         0.0800 
@<TRIPOS>BOND
     1    1    2 1    
     2    1  127 1    
     3    1  128 1    
     4    1  129 1    
     5    2    3 2    
     6    2    4 am   BACKBONE|DICT|INTERRES
     7    4    5 1    
     8    4  130 1    
     9    5    6 1    
    10    5   65 1    
    11    5  131 1    
    12    6    7 1    
    13    6  132 1    
    14    6  133 1    
    15    7    8 1    
    16    8    9 1    
    17    8  134 1    
    18    8  135 1    
    19    9   10 ar   
    20    9   14 ar   
    21   10   11 ar   
    22   10  136 1    
    23   11   12 ar   
    24   11  126 1    
    25   12   13 ar   
    26   12  137 1    
    27   13   14 ar   
    28   13   15 1    
    29   14  138 1    
    30   15   16 1    
    31   15  139 1    
    32   15  140 1    
    33   16   17 1    
    34   17   18 1    
    35   17  141 1    
    36   17  142 1    
    37   18   19 1    
    38   18   67 1    
    39   18  143 1    
    40   19   20 am   BACKBONE|DICT|INTERRES
    41   19  144 1    
    42   20   21 2    
    43   20   22 1    
    44   22   23 1    
    45   22   24 1    
    46   22  145 1    
    47   23  146 1    
    48   23  147 1    
    49   23  148 1    
    50   24   25 am   BACKBONE|DICT|INTERRES
    51   24  149 1    
    52   25   26 2    
    53   25   27 1    
    54   27   28 1    
    55   27   29 1    
    56   27  150 1    
    57   28  151 1    
    58   28  152 1    
    59   28  153 1    
    60   29   30 am   BACKBONE|DICT|INTERRES
    61   29  154 1    
    62   30   31 2    
    63   30   32 1    
    64   32   33 1    
    65   32   34 1    
    66   32  155 1    
    67   33  156 1    
    68   33  157 1    
    69   33  158 1    
    70   34   35 am   BACKBONE|DICT|INTERRES
    71   34  159 1    
    72   35   36 2    
    73   35   37 1    
    74   37   38 1    
    75   37   39 1    
    76   37  160 1    
    77   38  161 1    
    78   38  162 1    
    79   38  163 1    
    80   39   40 am   BACKBONE|DICT|INTERRES
    81   39  164 1    
    82   40   41 2    
    83   40   42 1    
    84   42   43 1    
    85   42   44 1    
    86   42  165 1    
    87   43  166 1    
    88   43  167 1    
    89   43  168 1    
    90   44   45 am   BACKBONE|DICT|INTERRES
    91   44  169 1    
    92   45   46 2    
    93   45   47 1    
    94   47   48 1    
    95   47   49 1    
    96   47  170 1    
    97   48  171 1    
    98   48  172 1    
    99   48  173 1    
   100   49   50 am   BACKBONE|DICT|INTERRES
   101   49  174 1    
   102   50   51 2    
   103   50   52 1    
   104   52   53 1    
   105   52   54 1    
   106   52  175 1    
   107   53  176 1    
   108   53  177 1    
   109   53  178 1    
   110   54   55 am   BACKBONE|DICT|INTERRES
   111   54  179 1    
   112   55   56 2    
   113   55   57 1    
   114   57   58 1    
   115   57   59 1    
   116   57  180 1    
   117   58  181 1    
   118   58  182 1    
   119   58  183 1    
   120   59   60 am   BACKBONE|DICT|INTERRES
   121   59  184 1    
   122   60   61 2    
   123   60   62 1    
   124   62   63 1    
   125   62   64 1    
   126   62  185 1    
   127   63  186 1    
   128   63  187 1    
   129   63  188 1    
   130   64   65 am   BACKBONE|DICT|INTERRES
   131   64  189 1    
   132   65   66 2    
   133   67   68 2    
   134   67   69 am   BACKBONE|DICT|INTERRES
   135   69   70 1    
   136   69  190 1    
   137   70   71 1    
   138   70   72 1    
   139   70  191 1    
   140   71  192 1    
   141   71  193 1    
   142   71  194 1    
   143   72   73 2    
   144   72   74 am   BACKBONE|DICT|INTERRES
   145   74   75 1    
   146   74  195 1    
   147   75   76 1    
   148   75   77 1    
   149   75  196 1    
   150   76  197 1    
   151   76  198 1    
   152   76  199 1    
   153   77   78 2    
   154   77   79 am   BACKBONE|DICT|INTERRES
   155   79   80 1    
   156   79  200 1    
   157   80   81 1    
   158   80   82 1    
   159   80  201 1    
   160   81  202 1    
   161   81  203 1    
   162   81  204 1    
   163   82   83 2    
   164   82   84 am   BACKBONE|DICT|INTERRES
   165   84   85 1    
   166   84  205 1    
   167   85   86 1    
   168   85   87 1    
   169   85  206 1    
   170   86  207 1    
   171   86  208 1    
   172   86  209 1    
   173   87   88 2    
   174   87   89 am   BACKBONE|DICT|INTERRES
   175   89   90 1    
   176   89  210 1    
   177   90   91 1    
   178   90   92 1    
   179   90  211 1    
   180   91  212 1    
   181   91  213 1    
   182   91  214 1    
   183   92   93 2    
   184   92   94 am   BACKBONE|DICT|INTERRES
   185   94   95 1    
   186   94  215 1    
   187   95   96 1    
   188   95   97 1    
   189   95  216 1    
   190   96  217 1    
   191   96  218 1    
   192   96  219 1    
   193   97   98 2    
   194   97   99 am   BACKBONE|DICT|INTERRES
   195   99  100 1    
   196   99  220 1    
   197  100  101 1    
   198  100  102 1    
   199  100  221 1    
   200  101  222 1    
   201  101  223 1    
   202  101  224 1    
   203  102  103 2    
   204  102  104 am   BACKBONE|DICT|INTERRES
   205  104  105 1    
   206  104  225 1    
   207  105  106 1    
   208  105  107 1    
   209  105  226 1    
   210  106  227 1    
   211  106  228 1    
   212  106  229 1    
   213  107  108 2    
   214  107  109 am   BACKBONE|DICT|INTERRES
   215  109  110 1    
   216  109  230 1    
   217  110  111 1    
   218  110  112 1    
   219  110  231 1    
   220  111  232 1    
   221  111  233 1    
   222  111  234 1    
   223  112  113 2    
   224  112  114 am   BACKBONE|DICT|INTERRES
   225  114  115 1    
   226  114  235 1    
   227  115  116 1    
   228  115  117 1    
   229  115  236 1    
   230  116  237 1    
   231  116  238 1    
   232  116  239 1    
   233  117  118 2    
   234  117  119 am   BACKBONE|DICT|INTERRES
   235  119  120 1    
   236  119  240 1    
   237  120  121 1    
   238  120  124 1    
   239  120  241 1    
   240  121  122 am   BACKBONE|DICT|INTERRES
   241  121  123 2    
   242  122  242 1    
   243  122  243 1    
   244  124  125 1    
   245  124  244 1    
   246  124  245 1    
   247  125  126 1    
   248  126  246 1    
   249  126  247 1    
@<TRIPOS>SUBSTRUCTURE
     1 UNK         1 GROUP             0       ****    0 ROOT    
