@<TRIPOS>MOLECULE
3R540
247   249    1
SMALL
USER_CHARGES


@<TRIPOS>ATOM
      1 CA          4.8013  -10.0420  -49.5689 C.3       0 UNK        -0.1800 
      2 C           3.8727  -11.0195  -48.8629 C.2       0 UNK         0.5000 
      3 O           4.2689  -11.6382  -47.8743 O.2       0 UNK        -0.5000 
      4 N           2.6354  -11.1568  -49.3566 N.am      1 UNK        -0.5000 
      5 CA          1.5909  -12.0317  -48.8120 C.3       1 UNK         0.1400 
      6 C6          0.5860  -12.4572  -49.9151 C.3       23 UNK        -0.0398 
      7 S7         -0.3282  -13.9749  -49.4719 S.3       23 UNK        -0.2404 
      8 C8          0.2959  -15.1484  -50.7127 C.3       23 UNK        -0.0205 
      9 C9         -0.2768  -16.5366  -50.4791 C.ar      23 UNK        -0.0193 
     10 C10        -1.5584  -16.8559  -50.9381 C.ar      23 UNK        -0.1150 
     11 C11        -2.1059  -18.1216  -50.7069 C.ar      23 UNK        -0.0193 
     12 C12        -1.3488  -19.0717  -50.0110 C.ar      23 UNK        -0.1150 
     13 C13        -0.0622  -18.7693  -49.5559 C.ar      23 UNK        -0.0193 
     14 C14         0.4684  -17.4990  -49.7931 C.ar      23 UNK        -0.1150 
     15 C15         0.7600  -19.8122  -48.8129 C.3       23 UNK        -0.0205 
     16 S16         0.7506  -19.5354  -47.0146 S.3       23 UNK        -0.2404 
     17 C17        -0.9319  -20.0678  -46.5589 C.3       23 UNK        -0.0398 
     18 CA         -0.9377  -21.4845  -45.9434 C.3       11 UNK         0.1400 
     19 N          -0.2686  -21.5240  -44.6350 N.am      11 UNK        -0.5000 
     20 C          -0.0763  -22.6164  -43.8811 C.2       10 UNK         0.5000 
     21 O          -0.5380  -23.7244  -44.1619 O.2       10 UNK        -0.5000 
     22 CA          0.7553  -22.4275  -42.5978 C.3       10 UNK         0.1400 
     23 CB          1.1690  -23.7622  -41.9443 C.3       10 UNK        -0.1800 
     24 N           1.9188  -21.5623  -42.8051 N.am      10 UNK        -0.5000 
     25 C           2.9582  -21.7587  -43.6307 C.2       9 UNK         0.5000 
     26 O           3.0993  -22.7599  -44.3338 O.2       9 UNK        -0.5000 
     27 CA          4.0273  -20.6469  -43.6895 C.3       9 UNK         0.1400 
     28 CB          3.9503  -19.8969  -45.0276 C.3       9 UNK        -0.1800 
     29 N           3.9192  -19.6723  -42.6018 N.am      9 UNK        -0.5000 
     30 C           4.2721  -19.8959  -41.3292 C.2       8 UNK         0.5000 
     31 O           4.8031  -20.9361  -40.9386 O.2       8 UNK        -0.5000 
     32 CA          3.9381  -18.7838  -40.3166 C.3       8 UNK         0.1400 
     33 CB          5.0369  -17.7105  -40.3058 C.3       8 UNK        -0.1800 
     34 N           2.6370  -18.1547  -40.5641 N.am      8 UNK        -0.5000 
     35 C           1.4558  -18.7834  -40.4670 C.2       7 UNK         0.5000 
     36 O           1.3357  -19.9640  -40.1405 O.2       7 UNK        -0.5000 
     37 CA          0.1982  -17.9765  -40.8351 C.3       7 UNK         0.1400 
     38 CB         -0.2139  -17.0477  -39.6834 C.3       7 UNK        -0.1800 
     39 N           0.3725  -17.2014  -42.0627 N.am      7 UNK        -0.5000 
     40 C           0.5271  -17.7361  -43.2826 C.2       6 UNK         0.5000 
     41 O           0.4628  -18.9449  -43.5106 O.2       6 UNK        -0.5000 
     42 CA          0.8467  -16.7623  -44.4328 C.3       6 UNK         0.1400 
     43 CB         -0.4370  -16.1520  -45.0139 C.3       6 UNK        -0.1800 
     44 N           1.7594  -15.6915  -44.0335 N.am      6 UNK        -0.5000 
     45 C           3.0241  -15.8816  -43.6328 C.2       5 UNK         0.5000 
     46 O           3.5697  -16.9828  -43.5834 O.2       5 UNK        -0.5000 
     47 CA          3.7887  -14.6385  -43.1508 C.3       5 UNK         0.1400 
     48 CB          4.3149  -13.8158  -44.3373 C.3       5 UNK        -0.1800 
     49 N           2.9635  -13.7974  -42.2838 N.am      5 UNK        -0.5000 
     50 C           2.5605  -14.1496  -41.0543 C.2       4 UNK         0.5000 
     51 O           2.8693  -15.2096  -40.5109 O.2       4 UNK        -0.5000 
     52 CA          1.6231  -13.1697  -40.3261 C.3       4 UNK         0.1400 
     53 CB          2.4301  -12.0626  -39.6318 C.3       4 UNK        -0.1800 
     54 N           0.6384  -12.5635  -41.2227 N.am      4 UNK        -0.5000 
     55 C          -0.3509  -13.2369  -41.8270 C.2       3 UNK         0.5000 
     56 O          -0.5580  -14.4391  -41.6681 O.2       3 UNK        -0.5000 
     57 CA         -1.2184  -12.4403  -42.8189 C.3       3 UNK         0.1400 
     58 CB         -2.3411  -11.6954  -42.0817 C.3       3 UNK        -0.1800 
     59 N          -0.4454  -11.4889  -43.6240 N.am      3 UNK        -0.5000 
     60 C           0.5323  -11.8391  -44.4693 C.2       2 UNK         0.5000 
     61 O           0.9093  -13.0023  -44.6308 O.2       2 UNK        -0.5000 
     62 CA          1.2434  -10.6988  -45.2172 C.3       2 UNK         0.1400 
     63 CB          2.4483  -10.1962  -44.4071 C.3       2 UNK        -0.1800 
     64 N           1.7090  -11.1535  -46.5249 N.am      2 UNK        -0.5000 
     65 C           0.9169  -11.3834  -47.5784 C.2       1 UNK         0.5000 
     66 O          -0.2772  -11.0772  -47.6016 O.2       1 UNK        -0.5000 
     67 C          -2.3697  -22.0555  -45.9305 C.2       11 UNK         0.5000 
     68 O          -2.7868  -22.6400  -46.9283 O.2       11 UNK        -0.5000 
     69 N          -3.0722  -21.9325  -44.7956 N.am      12 UNK        -0.5000 
     70 CA         -4.4037  -22.5000  -44.5688 C.3       12 UNK         0.1400 
     71 CB         -4.9196  -22.0207  -43.2033 C.3       12 UNK        -0.1800 
     72 C          -4.4572  -24.0412  -44.6542 C.2       12 UNK         0.5000 
     73 O          -5.5229  -24.5857  -44.9456 O.2       12 UNK        -0.5000 
     74 N          -3.3225  -24.7082  -44.4037 N.am      13 UNK        -0.5000 
     75 CA         -3.1600  -26.1554  -44.5238 C.3       13 UNK         0.1400 
     76 CB         -2.5197  -26.6922  -43.2334 C.3       13 UNK        -0.1800 
     77 C          -2.2962  -26.5260  -45.7417 C.2       13 UNK         0.5000 
     78 O          -2.5825  -27.5260  -46.4011 O.2       13 UNK        -0.5000 
     79 N          -1.2411  -25.7413  -46.0023 N.am      14 UNK        -0.5000 
     80 CA         -0.2343  -26.0217  -47.0249 C.3       14 UNK         0.1400 
     81 CB          1.0266  -25.1929  -46.7320 C.3       14 UNK        -0.1800 
     82 C          -0.7147  -25.7816  -48.4675 C.2       14 UNK         0.5000 
     83 O          -0.2805  -26.5061  -49.3648 O.2       14 UNK        -0.5000 
     84 N          -1.5742  -24.7765  -48.6783 N.am      15 UNK        -0.5000 
     85 CA         -2.1118  -24.4227  -49.9922 C.3       15 UNK         0.1400 
     86 CB         -2.1782  -22.8944  -50.1058 C.3       15 UNK        -0.1800 
     87 C          -3.4979  -25.0547  -50.2040 C.2       15 UNK         0.5000 
     88 O          -4.1696  -25.4236  -49.2370 O.2       15 UNK        -0.5000 
     89 N          -3.9021  -25.1664  -51.4742 N.am      16 UNK        -0.5000 
     90 CA         -5.1850  -25.7376  -51.8834 C.3       16 UNK         0.1400 
     91 CB         -5.0303  -26.3690  -53.2765 C.3       16 UNK        -0.1800 
     92 C          -6.3100  -24.6895  -51.9004 C.2       16 UNK         0.5000 
     93 O          -7.4571  -25.0349  -51.6161 O.2       16 UNK        -0.5000 
     94 N          -5.9637  -23.4430  -52.2611 N.am      17 UNK        -0.5000 
     95 CA         -6.8580  -22.2913  -52.4498 C.3       17 UNK         0.1400 
     96 CB         -7.4862  -21.8571  -51.1098 C.3       17 UNK        -0.1800 
     97 C          -7.9021  -22.5004  -53.5715 C.2       17 UNK         0.5000 
     98 O          -8.9850  -21.9145  -53.5291 O.2       17 UNK        -0.5000 
     99 N          -7.5563  -23.3386  -54.5585 N.am      18 UNK        -0.5000 
    100 CA        -8.4287  -23.7512  -55.6605 C.3       18 UNK         0.1400 
    101 CB        -7.9385  -25.1141  -56.1756 C.3       18 UNK        -0.1800 
    102 C         -8.4958  -22.7334  -56.8168 C.2       18 UNK         0.5000 
    103 O         -9.3826  -22.8420  -57.6650 O.2       18 UNK        -0.5000 
    104 N         -7.5599  -21.7802  -56.8467 N.am      19 UNK        -0.5000 
    105 CA        -7.4128  -20.7444  -57.8638 C.3       19 UNK         0.1400 
    106 CB        -6.6815  -21.3274  -59.0891 C.3       19 UNK        -0.1800 
    107 C         -6.6340  -19.5686  -57.2559 C.2       19 UNK         0.5000 
    108 O         -6.1659  -19.6684  -56.1185 O.2       19 UNK        -0.5000 
    109 N         -6.4641  -18.4902  -58.0331 N.am      20 UNK        -0.5000 
    110 CA        -5.7193  -17.2813  -57.6534 C.3       20 UNK         0.1400 
    111 CB        -5.8796  -16.2273  -58.7596 C.3       20 UNK        -0.1800 
    112 C         -4.2241  -17.5247  -57.3535 C.2       20 UNK         0.5000 
    113 O         -3.6295  -16.7732  -56.5805 O.2       20 UNK        -0.5000 
    114 N         -3.6553  -18.5877  -57.9401 N.am      21 UNK        -0.5000 
    115 CA        -2.3053  -19.0872  -57.6618 C.3       21 UNK         0.1400 
    116 CB        -1.8699  -19.9858  -58.8306 C.3       21 UNK        -0.1800 
    117 C         -2.1966  -19.8511  -56.3221 C.2       21 UNK         0.5000 
    118 O         -1.0858  -20.1721  -55.8995 O.2       21 UNK        -0.5000 
    119 N         -3.3413  -20.1394  -55.6890 N.am      22 UNK        -0.5000 
    120 CA        -3.5089  -20.8700  -54.4250 C.3       22 UNK         0.1400 
    121 C         -3.3096  -22.4132  -54.5145 C.2       22 UNK         0.5000 
    122 N         -3.1405  -22.9954  -55.6942 N.am      22 UNK        -0.7600 
    123 O         -3.3669  -23.1083  -53.5040 O.2       22 UNK        -0.5000 
    124 C124       -2.7601  -20.2141  -53.2286 C.3       23 UNK        -0.0398 
    125 S125       -3.8004  -20.1351  -51.7304 S.3       23 UNK        -0.2404 
    126 C126       -3.5304  -18.4185  -51.1743 C.3       23 UNK        -0.0205 
    127 H127        5.1155   -9.2589  -48.8789 H         1 UNK         0.0600 
    128 H128        4.3181   -9.5687  -50.4240 H         1 UNK         0.0600 
    129 H129        5.6910  -10.5611  -49.9253 H         1 UNK         0.0600 
    130 H130        2.3606  -10.5925  -50.1484 H         1 UNK         0.3000 
    131 H131        2.0810  -12.9414  -48.4568 H         1 UNK         0.0600 
    132 H132       -0.1250  -11.6606  -50.1406 H         1 UNK         0.0800 
    133 H133        1.1200  -12.6410  -50.8484 H         1 UNK         0.0800 
    134 H134        1.3861  -15.1763  -50.6726 H         1 UNK         0.0800 
    135 H135        0.0286  -14.8012  -51.7120 H         1 UNK         0.0800 
    136 H136       -2.1371  -16.1064  -51.4598 H         1 UNK         0.1150 
    137 H137       -1.7642  -20.0488  -49.8152 H         1 UNK         0.1150 
    138 H138        1.4585  -17.2578  -49.4321 H         1 UNK         0.1150 
    139 H139        0.4024  -20.8194  -49.0301 H         1 UNK         0.0800 
    140 H140        1.7914  -19.7750  -49.1664 H         1 UNK         0.0800 
    141 H141       -1.5712  -20.0206  -47.4403 H         1 UNK         0.0800 
    142 H142       -1.3445  -19.3456  -45.8530 H         1 UNK         0.0800 
    143 H143       -0.3647  -22.1351  -46.6060 H         1 UNK         0.0600 
    144 H144        0.1238  -20.6423  -44.3111 H         1 UNK         0.3000 
    145 H145        0.1091  -21.9025  -41.8932 H         1 UNK         0.0600 
    146 H146        1.7469  -23.5926  -41.0357 H         1 UNK         0.0600 
    147 H147        0.2924  -24.3488  -41.6666 H         1 UNK         0.0600 
    148 H148        1.7706  -24.3747  -42.6165 H         1 UNK         0.0600 
    149 H149        1.8998  -20.6932  -42.2881 H         1 UNK         0.3000 
    150 H150        5.0036  -21.1314  -43.6260 H         1 UNK         0.0600 
    151 H151        4.0070  -20.5837  -45.8730 H         1 UNK         0.0600 
    152 H152        4.7706  -19.1861  -45.1286 H         1 UNK         0.0600 
    153 H153        3.0168  -19.3413  -45.1156 H         1 UNK         0.0600 
    154 H154        3.5589  -18.7551  -42.8536 H         1 UNK         0.3000 
    155 H155        3.9027  -19.2406  -39.3255 H         1 UNK         0.0600 
    156 H156        6.0143  -18.1529  -40.1097 H         1 UNK         0.0600 
    157 H157        4.8544  -16.9683  -39.5285 H         1 UNK         0.0600 
    158 H158        5.0980  -17.1869  -41.2601 H         1 UNK         0.0600 
    159 H159        2.6504  -17.1662  -40.7965 H         1 UNK         0.3000 
    160 H160       -0.6147  -18.6867  -41.0011 H         1 UNK         0.0600 
    161 H161        0.5394  -16.2838  -39.4904 H         1 UNK         0.0600 
    162 H162       -0.3566  -17.6099  -38.7598 H         1 UNK         0.0600 
    163 H163       -1.1538  -16.5415  -39.9039 H         1 UNK         0.0600 
    164 H164        0.3646  -16.1909  -41.9677 H         1 UNK         0.3000 
    165 H165        1.3408  -17.3317  -45.2207 H         1 UNK         0.0600 
    166 H166       -0.2170  -15.5204  -45.8751 H         1 UNK         0.0600 
    167 H167       -1.1236  -16.9298  -45.3489 H         1 UNK         0.0600 
    168 H168       -0.9614  -15.5426  -44.2774 H         1 UNK         0.0600 
    169 H169        1.4012  -14.7411  -44.0875 H         1 UNK         0.3000 
    170 H170        4.6490  -14.9800  -42.5711 H         1 UNK         0.0600 
    171 H171        4.9710  -14.4193  -44.9657 H         1 UNK         0.0600 
    172 H172        3.5080  -13.4483  -44.9713 H         1 UNK         0.0600 
    173 H173        4.8932  -12.9569  -43.9969 H         1 UNK         0.0600 
    174 H174        2.6180  -12.9367  -42.6793 H         1 UNK         0.3000 
    175 H175        1.0846  -13.7313  -39.5598 H         1 UNK         0.0600 
    176 H176        3.1627  -12.4873  -38.9441 H         1 UNK         0.0600 
    177 H177        2.9724  -11.4461  -40.3498 H         1 UNK         0.0600 
    178 H178        1.7812  -11.4081  -39.0495 H         1 UNK         0.0600 
    179 H179        0.7360  -11.5771  -41.4119 H         1 UNK         0.3000 
    180 H180       -1.6777  -13.1575  -43.5025 H         1 UNK         0.0600 
    181 H181       -1.9464  -10.9367  -41.4048 H         1 UNK         0.0600 
    182 H182       -2.9418  -12.3853  -41.4873 H         1 UNK         0.0600 
    183 H183       -3.0144  -11.2026  -42.7833 H         1 UNK         0.0600 
    184 H184       -0.6950  -10.5143  -43.5347 H         1 UNK         0.3000 
    185 H185        0.5435   -9.8724  -45.3581 H         1 UNK         0.0600 
    186 H186        2.1386   -9.8312  -43.4271 H         1 UNK         0.0600 
    187 H187        3.1856  -10.9833  -44.2472 H         1 UNK         0.0600 
    188 H188        2.9472   -9.3715  -44.9166 H         1 UNK         0.0600 
    189 H189        2.6849  -11.4185  -46.6026 H         1 UNK         0.3000 
    190 H190       -2.6461  -21.4499  -44.0182 H         1 UNK         0.3000 
    191 H191       -5.0668  -22.1088  -45.3431 H         1 UNK         0.0600 
    192 H192       -4.2783  -22.3616  -42.3895 H         1 UNK         0.0600 
    193 H193       -5.9243  -22.3991  -43.0099 H         1 UNK         0.0600 
    194 H194       -4.9703  -20.9326  -43.1593 H         1 UNK         0.0600 
    195 H195       -2.4821  -24.1802  -44.1955 H         1 UNK         0.3000 
    196 H196       -4.1289  -26.6438  -44.6461 H         1 UNK         0.0600 
    197 H197       -2.3787  -27.7724  -43.2868 H         1 UNK         0.0600 
    198 H198       -3.1508  -26.4888  -42.3682 H         1 UNK         0.0600 
    199 H199       -1.5436  -26.2411  -43.0484 H         1 UNK         0.0600 
    200 H200       -1.0395  -24.9646  -45.3773 H         1 UNK         0.3000 
    201 H201        0.0384  -27.0762  -46.9443 H         1 UNK         0.0600 
    202 H202        1.4142  -25.4002  -45.7341 H         1 UNK         0.0600 
    203 H203        0.8316  -24.1230  -46.7962 H         1 UNK         0.0600 
    204 H204        1.8203  -25.4240  -47.4434 H         1 UNK         0.0600 
    205 H205       -1.9548  -24.2614  -47.8918 H         1 UNK         0.3000 
    206 H206       -1.4437  -24.7847  -50.7767 H         1 UNK         0.0600 
    207 H207       -1.2469  -22.4322  -49.7811 H         1 UNK         0.0600 
    208 H208       -2.3388  -22.5971  -51.1403 H         1 UNK         0.0600 
    209 H209       -2.9916  -22.4725  -49.5150 H         1 UNK         0.0600 
    210 H210       -3.3405  -24.7531  -52.2108 H         1 UNK         0.3000 
    211 H211       -5.4719  -26.5277  -51.1859 H         1 UNK         0.0600 
    212 H212       -5.9689  -26.8128  -53.6113 H         1 UNK         0.0600 
    213 H213       -4.2818  -27.1614  -53.2678 H         1 UNK         0.0600 
    214 H214       -4.7298  -25.6332  -54.0236 H         1 UNK         0.0600 
    215 H215       -4.9884  -23.2826  -52.4994 H         1 UNK         0.3000 
    216 H216       -6.2298  -21.4695  -52.7884 H         1 UNK         0.0600 
    217 H217       -8.0263  -20.9159  -51.2175 H         1 UNK         0.0600 
    218 H218       -6.7199  -21.7034  -50.3497 H         1 UNK         0.0600 
    219 H219       -8.1917  -22.5974  -50.7320 H         1 UNK         0.0600 
    220 H220       -6.6475  -23.7751  -54.5163 H         1 UNK         0.3000 
    221 H221       -9.4435  -23.8779  -55.2775 H         1 UNK         0.0600 
    222 H222       -6.9232  -25.0540  -56.5698 H         1 UNK         0.0600 
    223 H223       -7.9472  -25.8619  -55.3821 H         1 UNK         0.0600 
    224 H224       -8.5802  -25.4850  -56.9760 H         1 UNK         0.0600 
    225 H225       -6.9103  -21.7005  -56.0756 H         1 UNK         0.3000 
    226 H226       -8.3991  -20.3797  -58.1577 H         1 UNK         0.0600 
    227 H227       -7.2285  -22.1701  -59.5122 H         1 UNK         0.0600 
    228 H228       -6.5769  -20.5868  -59.8824 H         1 UNK         0.0600 
    229 H229       -5.6816  -21.6776  -58.8296 H         1 UNK         0.0600 
    230 H230       -6.8756  -18.4860  -58.9556 H         1 UNK         0.3000 
    231 H231       -6.1713  -16.8890  -56.7400 H         1 UNK         0.0600 
    232 H232       -6.9286  -15.9754  -58.9164 H         1 UNK         0.0600 
    233 H233       -5.4709  -16.5754  -59.7091 H         1 UNK         0.0600 
    234 H234       -5.3614  -15.3036  -58.4981 H         1 UNK         0.0600 
    235 H235       -4.2165  -19.1354  -58.5752 H         1 UNK         0.3000 
    236 H236       -1.6214  -18.2375  -57.6091 H         1 UNK         0.0600 
    237 H237       -0.8536  -20.3546  -58.6851 H         1 UNK         0.0600 
    238 H238       -2.5222  -20.8535  -58.9368 H         1 UNK         0.0600 
    239 H239       -1.8819  -19.4391  -59.7737 H         1 UNK         0.0600 
    240 H240       -4.2139  -19.8263  -56.1008 H         1 UNK         0.3000 
    241 H241       -4.5766  -20.7635  -54.2409 H         1 UNK         0.0600 
    242 H242       -3.0201  -23.9943  -55.7391 H         1 UNK         0.3800 
    243 H243       -3.0954  -22.4468  -56.5365 H         1 UNK         0.3800 
    244 H244       -1.8314  -20.7387  -52.9977 H         1 UNK         0.0800 
    245 H245       -2.4616  -19.1960  -53.4816 H         1 UNK         0.0800 
    246 H246       -3.8175  -17.7428  -51.9817 H         1 UNK         0.0800 
    247 H247       -4.2099  -18.2144  -50.3461 H         1 UNK         0.0800 
@<TRIPOS>BOND
     1    1    2 1    
     2    1  127 1    
     3    1  128 1    
     4    1  129 1    
     5    2    3 2    
     6    2    4 am   BACKBONE|DICT|INTERRES
     7    4    5 1    
     8    4  130 1    
     9    5    6 1    
    10    5   65 1    
    11    5  131 1    
    12    6    7 1    
    13    6  132 1    
    14    6  133 1    
    15    7    8 1    
    16    8    9 1    
    17    8  134 1    
    18    8  135 1    
    19    9   10 ar   
    20    9   14 ar   
    21   10   11 ar   
    22   10  136 1    
    23   11   12 ar   
    24   11  126 1    
    25   12   13 ar   
    26   12  137 1    
    27   13   14 ar   
    28   13   15 1    
    29   14  138 1    
    30   15   16 1    
    31   15  139 1    
    32   15  140 1    
    33   16   17 1    
    34   17   18 1    
    35   17  141 1    
    36   17  142 1    
    37   18   19 1    
    38   18   67 1    
    39   18  143 1    
    40   19   20 am   BACKBONE|DICT|INTERRES
    41   19  144 1    
    42   20   21 2    
    43   20   22 1    
    44   22   23 1    
    45   22   24 1    
    46   22  145 1    
    47   23  146 1    
    48   23  147 1    
    49   23  148 1    
    50   24   25 am   BACKBONE|DICT|INTERRES
    51   24  149 1    
    52   25   26 2    
    53   25   27 1    
    54   27   28 1    
    55   27   29 1    
    56   27  150 1    
    57   28  151 1    
    58   28  152 1    
    59   28  153 1    
    60   29   30 am   BACKBONE|DICT|INTERRES
    61   29  154 1    
    62   30   31 2    
    63   30   32 1    
    64   32   33 1    
    65   32   34 1    
    66   32  155 1    
    67   33  156 1    
    68   33  157 1    
    69   33  158 1    
    70   34   35 am   BACKBONE|DICT|INTERRES
    71   34  159 1    
    72   35   36 2    
    73   35   37 1    
    74   37   38 1    
    75   37   39 1    
    76   37  160 1    
    77   38  161 1    
    78   38  162 1    
    79   38  163 1    
    80   39   40 am   BACKBONE|DICT|INTERRES
    81   39  164 1    
    82   40   41 2    
    83   40   42 1    
    84   42   43 1    
    85   42   44 1    
    86   42  165 1    
    87   43  166 1    
    88   43  167 1    
    89   43  168 1    
    90   44   45 am   BACKBONE|DICT|INTERRES
    91   44  169 1    
    92   45   46 2    
    93   45   47 1    
    94   47   48 1    
    95   47   49 1    
    96   47  170 1    
    97   48  171 1    
    98   48  172 1    
    99   48  173 1    
   100   49   50 am   BACKBONE|DICT|INTERRES
   101   49  174 1    
   102   50   51 2    
   103   50   52 1    
   104   52   53 1    
   105   52   54 1    
   106   52  175 1    
   107   53  176 1    
   108   53  177 1    
   109   53  178 1    
   110   54   55 am   BACKBONE|DICT|INTERRES
   111   54  179 1    
   112   55   56 2    
   113   55   57 1    
   114   57   58 1    
   115   57   59 1    
   116   57  180 1    
   117   58  181 1    
   118   58  182 1    
   119   58  183 1    
   120   59   60 am   BACKBONE|DICT|INTERRES
   121   59  184 1    
   122   60   61 2    
   123   60   62 1    
   124   62   63 1    
   125   62   64 1    
   126   62  185 1    
   127   63  186 1    
   128   63  187 1    
   129   63  188 1    
   130   64   65 am   BACKBONE|DICT|INTERRES
   131   64  189 1    
   132   65   66 2    
   133   67   68 2    
   134   67   69 am   BACKBONE|DICT|INTERRES
   135   69   70 1    
   136   69  190 1    
   137   70   71 1    
   138   70   72 1    
   139   70  191 1    
   140   71  192 1    
   141   71  193 1    
   142   71  194 1    
   143   72   73 2    
   144   72   74 am   BACKBONE|DICT|INTERRES
   145   74   75 1    
   146   74  195 1    
   147   75   76 1    
   148   75   77 1    
   149   75  196 1    
   150   76  197 1    
   151   76  198 1    
   152   76  199 1    
   153   77   78 2    
   154   77   79 am   BACKBONE|DICT|INTERRES
   155   79   80 1    
   156   79  200 1    
   157   80   81 1    
   158   80   82 1    
   159   80  201 1    
   160   81  202 1    
   161   81  203 1    
   162   81  204 1    
   163   82   83 2    
   164   82   84 am   BACKBONE|DICT|INTERRES
   165   84   85 1    
   166   84  205 1    
   167   85   86 1    
   168   85   87 1    
   169   85  206 1    
   170   86  207 1    
   171   86  208 1    
   172   86  209 1    
   173   87   88 2    
   174   87   89 am   BACKBONE|DICT|INTERRES
   175   89   90 1    
   176   89  210 1    
   177   90   91 1    
   178   90   92 1    
   179   90  211 1    
   180   91  212 1    
   181   91  213 1    
   182   91  214 1    
   183   92   93 2    
   184   92   94 am   BACKBONE|DICT|INTERRES
   185   94   95 1    
   186   94  215 1    
   187   95   96 1    
   188   95   97 1    
   189   95  216 1    
   190   96  217 1    
   191   96  218 1    
   192   96  219 1    
   193   97   98 2    
   194   97   99 am   BACKBONE|DICT|INTERRES
   195   99  100 1    
   196   99  220 1    
   197  100  101 1    
   198  100  102 1    
   199  100  221 1    
   200  101  222 1    
   201  101  223 1    
   202  101  224 1    
   203  102  103 2    
   204  102  104 am   BACKBONE|DICT|INTERRES
   205  104  105 1    
   206  104  225 1    
   207  105  106 1    
   208  105  107 1    
   209  105  226 1    
   210  106  227 1    
   211  106  228 1    
   212  106  229 1    
   213  107  108 2    
   214  107  109 am   BACKBONE|DICT|INTERRES
   215  109  110 1    
   216  109  230 1    
   217  110  111 1    
   218  110  112 1    
   219  110  231 1    
   220  111  232 1    
   221  111  233 1    
   222  111  234 1    
   223  112  113 2    
   224  112  114 am   BACKBONE|DICT|INTERRES
   225  114  115 1    
   226  114  235 1    
   227  115  116 1    
   228  115  117 1    
   229  115  236 1    
   230  116  237 1    
   231  116  238 1    
   232  116  239 1    
   233  117  118 2    
   234  117  119 am   BACKBONE|DICT|INTERRES
   235  119  120 1    
   236  119  240 1    
   237  120  121 1    
   238  120  124 1    
   239  120  241 1    
   240  121  122 am   BACKBONE|DICT|INTERRES
   241  121  123 2    
   242  122  242 1    
   243  122  243 1    
   244  124  125 1    
   245  124  244 1    
   246  124  245 1    
   247  125  126 1    
   248  126  246 1    
   249  126  247 1    
@<TRIPOS>SUBSTRUCTURE
     1 UNK         1 GROUP             0       ****    0 ROOT    
