@<TRIPOS>MOLECULE
3R540
247   249    1
SMALL
USER_CHARGES


@<TRIPOS>ATOM
      1 CA         -0.9239  -15.8201  -51.6155 C.3       0 UNK        -0.1800 
      2 C          -1.3162  -15.8690  -50.1480 C.2       0 UNK         0.5000 
      3 O          -0.8677  -16.7580  -49.4270 O.2       0 UNK        -0.5000 
      4 N          -2.1386  -14.9086  -49.7041 N.am      1 UNK        -0.5000 
      5 CA         -2.6375  -14.8082  -48.3259 C.3       1 UNK         0.1400 
      6 C6         -3.8087  -13.8005  -48.1790 C.3       23 UNK        -0.0398 
      7 S7         -5.0943  -13.9091  -49.4711 S.3       23 UNK        -0.2404 
      8 C8         -6.2150  -15.1786  -48.8040 C.3       23 UNK        -0.0205 
      9 C9         -5.7449  -16.5837  -49.1483 C.ar      23 UNK        -0.0193 
     10 C10        -5.7343  -17.0048  -50.4808 C.ar      23 UNK        -0.1150 
     11 C11        -5.3121  -18.2926  -50.8184 C.ar      23 UNK        -0.0193 
     12 C12        -4.9230  -19.1730  -49.8045 C.ar      23 UNK        -0.1150 
     13 C13        -4.9482  -18.7725  -48.4652 C.ar      23 UNK        -0.0193 
     14 C14        -5.3494  -17.4716  -48.1441 C.ar      23 UNK        -0.1150 
     15 C15        -4.5781  -19.7498  -47.3602 C.3       23 UNK        -0.0205 
     16 S16        -2.7775  -19.8487  -47.1243 S.3       23 UNK        -0.2404 
     17 C17        -2.6789  -20.5353  -45.4347 C.3       23 UNK        -0.0398 
     18 CA         -2.3131  -22.0340  -45.4095 C.3       11 UNK         0.1400 
     19 N          -1.0063  -22.2969  -46.0147 N.am      11 UNK        -0.5000 
     20 C          -0.5514  -23.5103  -46.3509 C.2       10 UNK         0.5000 
     21 O          -1.2166  -24.5398  -46.2418 O.2       10 UNK        -0.5000 
     22 CA          0.8931  -23.5890  -46.8732 C.3       10 UNK         0.1400 
     23 CB          0.9254  -23.3892  -48.3943 C.3       10 UNK        -0.1800 
     24 N           1.7735  -22.6100  -46.2369 N.am      10 UNK        -0.5000 
     25 C           2.0737  -22.5762  -44.9331 C.2       9 UNK         0.5000 
     26 O           1.6510  -23.3966  -44.1188 O.2       9 UNK        -0.5000 
     27 CA          2.9407  -21.4047  -44.4451 C.3       9 UNK         0.1400 
     28 CB          4.4291  -21.6228  -44.7720 C.3       9 UNK        -0.1800 
     29 N           2.4684  -20.0937  -44.9025 N.am      9 UNK        -0.5000 
     30 C           2.4627  -19.5573  -46.1320 C.2       8 UNK         0.5000 
     31 O           2.8422  -20.1454  -47.1452 O.2       8 UNK        -0.5000 
     32 CA          1.9328  -18.1148  -46.2406 C.3       8 UNK         0.1400 
     33 CB          0.4210  -18.1194  -46.5056 C.3       8 UNK        -0.1800 
     34 N           2.2095  -17.3307  -45.0354 N.am      8 UNK        -0.5000 
     35 C           3.4321  -16.9317  -44.6539 C.2       7 UNK         0.5000 
     36 O           4.4489  -17.0899  -45.3303 O.2       7 UNK        -0.5000 
     37 CA          3.5413  -16.2874  -43.2615 C.3       7 UNK         0.1400 
     38 CB          3.2611  -14.7780  -43.3241 C.3       7 UNK        -0.1800 
     39 N           2.6339  -16.9261  -42.3060 N.am      7 UNK        -0.5000 
     40 C           2.8603  -18.1214  -41.7398 C.2       6 UNK         0.5000 
     41 O           3.8924  -18.7709  -41.9064 O.2       6 UNK        -0.5000 
     42 CA          1.7427  -18.7060  -40.8559 C.3       6 UNK         0.1400 
     43 CB          1.9626  -18.3236  -39.3849 C.3       6 UNK        -0.1800 
     44 N           0.4066  -18.2752  -41.2667 N.am      6 UNK        -0.5000 
     45 C          -0.2298  -18.6991  -42.3668 C.2       5 UNK         0.5000 
     46 O           0.2193  -19.5493  -43.1362 O.2       5 UNK        -0.5000 
     47 CA         -1.5850  -18.0358  -42.6745 C.3       5 UNK         0.1400 
     48 CB         -2.7317  -18.8417  -42.0467 C.3       5 UNK        -0.1800 
     49 N          -1.6678  -16.6399  -42.2360 N.am      5 UNK        -0.5000 
     50 C          -0.9010  -15.6569  -42.7238 C.2       4 UNK         0.5000 
     51 O          -0.0061  -15.8379  -43.5531 O.2       4 UNK        -0.5000 
     52 CA         -1.1239  -14.2562  -42.1461 C.3       4 UNK         0.1400 
     53 CB         -0.0511  -13.9474  -41.0831 C.3       4 UNK        -0.1800 
     54 N          -1.0681  -13.2979  -43.2434 N.am      4 UNK        -0.5000 
     55 C          -1.4009  -12.0025  -43.1835 C.2       3 UNK         0.5000 
     56 O          -1.8130  -11.4614  -42.1561 O.2       3 UNK        -0.5000 
     57 CA         -1.3045  -11.1647  -44.4806 C.3       3 UNK         0.1400 
     58 CB         -0.5503   -9.8373  -44.2574 C.3       3 UNK        -0.1800 
     59 N          -0.7740  -11.8889  -45.6436 N.am      3 UNK        -0.5000 
     60 C           0.4619  -12.3749  -45.8306 C.2       2 UNK         0.5000 
     61 O           1.3926  -12.1890  -45.0465 O.2       2 UNK        -0.5000 
     62 CA          0.6960  -13.2271  -47.0994 C.3       2 UNK         0.1400 
     63 CB          1.6002  -14.4368  -46.8034 C.3       2 UNK        -0.1800 
     64 N          -0.5230  -13.6733  -47.7940 N.am      2 UNK        -0.5000 
     65 C          -1.5208  -14.4426  -47.3228 C.2       1 UNK         0.5000 
     66 O          -1.6057  -14.8237  -46.1562 O.2       1 UNK        -0.5000 
     67 C          -2.3917  -22.5992  -43.9769 C.2       11 UNK         0.5000 
     68 O          -3.3821  -23.2489  -43.6440 O.2       11 UNK        -0.5000 
     69 N          -1.3352  -22.3959  -43.1734 N.am      12 UNK        -0.5000 
     70 CA         -1.2089  -22.9552  -41.8221 C.3       12 UNK         0.1400 
     71 CB         -0.0174  -22.3107  -41.0984 C.3       12 UNK        -0.1800 
     72 C          -1.0897  -24.4918  -41.8158 C.2       12 UNK         0.5000 
     73 O          -1.6174  -25.1397  -40.9118 O.2       12 UNK        -0.5000 
     74 N          -0.4420  -25.0469  -42.8489 N.am      13 UNK        -0.5000 
     75 CA         -0.3476  -26.4848  -43.1138 C.3       13 UNK         0.1400 
     76 CB          0.8034  -26.7268  -44.1034 C.3       13 UNK        -0.1800 
     77 C          -1.6573  -27.1077  -43.6481 C.2       13 UNK         0.5000 
     78 O          -1.7277  -28.3310  -43.7698 O.2       13 UNK        -0.5000 
     79 N          -2.6531  -26.2679  -43.9737 N.am      14 UNK        -0.5000 
     80 CA         -3.9671  -26.5956  -44.5405 C.3       14 UNK         0.1400 
     81 CB         -4.7795  -27.4989  -43.5892 C.3       14 UNK        -0.1800 
     82 C          -3.9091  -27.1412  -45.9841 C.2       14 UNK         0.5000 
     83 O          -4.8764  -27.7465  -46.4489 O.2       14 UNK        -0.5000 
     84 N          -2.7935  -26.8922  -46.6804 N.am      15 UNK        -0.5000 
     85 CA         -2.6060  -27.1895  -48.0994 C.3       15 UNK         0.1400 
     86 CB         -1.1111  -27.4322  -48.3620 C.3       15 UNK        -0.1800 
     87 C          -3.1299  -26.0451  -48.9869 C.2       15 UNK         0.5000 
     88 O          -3.6222  -26.3127  -50.0834 O.2       15 UNK        -0.5000 
     89 N          -3.0181  -24.8086  -48.4742 N.am      16 UNK        -0.5000 
     90 CA         -3.3158  -23.5127  -49.0943 C.3       16 UNK         0.1400 
     91 CB         -4.7746  -23.4425  -49.5870 C.3       16 UNK        -0.1800 
     92 C          -2.3187  -23.1263  -50.2048 C.2       16 UNK         0.5000 
     93 O          -1.6922  -23.9886  -50.8247 O.2       16 UNK        -0.5000 
     94 N          -2.1791  -21.8134  -50.4296 N.am      17 UNK        -0.5000 
     95 CA         -1.3866  -21.2417  -51.5189 C.3       17 UNK         0.1400 
     96 CB         -1.2617  -19.7267  -51.3058 C.3       17 UNK        -0.1800 
     97 C          -1.9854  -21.5833  -52.9000 C.2       17 UNK         0.5000 
     98 O          -3.2064  -21.6894  -53.0369 O.2       17 UNK        -0.5000 
     99 N          -1.1098  -21.7706  -53.8946 N.am      18 UNK        -0.5000 
    100 CA        -1.3947  -22.4011  -55.1890 C.3       18 UNK         0.1400 
    101 CB        -0.0708  -22.9471  -55.7563 C.3       18 UNK        -0.1800 
    102 C         -2.1521  -21.5245  -56.2142 C.2       18 UNK         0.5000 
    103 O         -1.8648  -21.6096  -57.4097 O.2       18 UNK        -0.5000 
    104 N         -3.1072  -20.7097  -55.7458 N.am      19 UNK        -0.5000 
    105 CA        -4.0619  -19.8644  -56.4831 C.3       19 UNK         0.1400 
    106 CB        -4.9893  -20.7198  -57.3655 C.3       19 UNK        -0.1800 
    107 C         -3.4510  -18.7054  -57.2991 C.2       19 UNK         0.5000 
    108 O         -3.9834  -17.5954  -57.2606 O.2       19 UNK        -0.5000 
    109 N         -2.3445  -18.9593  -58.0064 N.am      20 UNK        -0.5000 
    110 CA        -1.6245  -17.9963  -58.8428 C.3       20 UNK         0.1400 
    111 CB        -0.5393  -18.7354  -59.6398 C.3       20 UNK        -0.1800 
    112 C         -1.0121  -16.8371  -58.0359 C.2       20 UNK         0.5000 
    113 O         -0.9795  -15.7060  -58.5216 O.2       20 UNK        -0.5000 
    114 N         -0.5668  -17.1375  -56.8084 N.am      21 UNK        -0.5000 
    115 CA        -0.0950  -16.1513  -55.8363 C.3       21 UNK         0.1400 
    116 CB         0.7451  -16.8694  -54.7685 C.3       21 UNK        -0.1800 
    117 C         -1.2555  -15.3808  -55.1773 C.2       21 UNK         0.5000 
    118 O         -1.0777  -14.2231  -54.7977 O.2       21 UNK        -0.5000 
    119 N         -2.4090  -16.0459  -55.0388 N.am      22 UNK        -0.5000 
    120 CA        -3.6347  -15.5129  -54.4265 C.3       22 UNK         0.1400 
    121 C         -4.3363  -14.4531  -55.3175 C.2       22 UNK         0.5000 
    122 N         -4.4290  -14.6796  -56.6226 N.am      22 UNK        -0.7600 
    123 O         -4.7976  -13.4277  -54.8248 O.2       22 UNK        -0.5000 
    124 C124       -4.6407  -16.6330  -54.0496 C.3       23 UNK        -0.0398 
    125 S125       -3.8782  -18.0428  -53.1752 S.3       23 UNK        -0.2404 
    126 C126       -5.2949  -18.7409  -52.2722 C.3       23 UNK        -0.0205 
    127 H127        0.1598  -15.8717  -51.7163 H         1 UNK         0.0600 
    128 H128       -1.2651  -14.9014  -52.0916 H         1 UNK         0.0600 
    129 H129       -1.3578  -16.6656  -52.1480 H         1 UNK         0.0600 
    130 H130       -2.5021  -14.2227  -50.3501 H         1 UNK         0.3000 
    131 H131       -3.0076  -15.7963  -48.0449 H         1 UNK         0.0600 
    132 H132       -3.4325  -12.7762  -48.2142 H         1 UNK         0.0800 
    133 H133       -4.2784  -13.9089  -47.1998 H         1 UNK         0.0800 
    134 H134       -6.3303  -15.0501  -47.7269 H         1 UNK         0.0800 
    135 H135       -7.2058  -15.0282  -49.2348 H         1 UNK         0.0800 
    136 H136       -6.0501  -16.3203  -51.2538 H         1 UNK         0.1150 
    137 H137       -4.6096  -20.1734  -50.0596 H         1 UNK         0.1150 
    138 H138       -5.3672  -17.1558  -47.1105 H         1 UNK         0.1150 
    139 H139       -5.0591  -19.4404  -46.4312 H         1 UNK         0.0800 
    140 H140       -4.9684  -20.7421  -47.5908 H         1 UNK         0.0800 
    141 H141       -1.9228  -19.9680  -44.8959 H         1 UNK         0.0800 
    142 H142       -3.6195  -20.3570  -44.9110 H         1 UNK         0.0800 
    143 H143       -3.0657  -22.5669  -45.9932 H         1 UNK         0.0600 
    144 H144       -0.4010  -21.5012  -46.1497 H         1 UNK         0.3000 
    145 H145        1.2782  -24.5850  -46.6485 H         1 UNK         0.0600 
    146 H146        1.9406  -23.4750  -48.7819 H         1 UNK         0.0600 
    147 H147        0.3233  -24.1461  -48.8980 H         1 UNK         0.0600 
    148 H148        0.5382  -22.4110  -48.6833 H         1 UNK         0.0600 
    149 H149        2.1583  -21.8731  -46.8227 H         1 UNK         0.3000 
    150 H150        2.8479  -21.3806  -43.3580 H         1 UNK         0.0600 
    151 H151        4.7896  -22.5536  -44.3328 H         1 UNK         0.0600 
    152 H152        5.0400  -20.8146  -44.3694 H         1 UNK         0.0600 
    153 H153        4.6109  -21.6782  -45.8455 H         1 UNK         0.0600 
    154 H154        2.0166  -19.5477  -44.1783 H         1 UNK         0.3000 
    155 H155        2.4292  -17.6358  -47.0869 H         1 UNK         0.0600 
    156 H156        0.0386  -17.1093  -46.6486 H         1 UNK         0.0600 
    157 H157       -0.1314  -18.5685  -45.6817 H         1 UNK         0.0600 
    158 H158        0.1831  -18.6822  -47.4093 H         1 UNK         0.0600 
    159 H159        1.4164  -17.0852  -44.4532 H         1 UNK         0.3000 
    160 H160        4.5671  -16.4211  -42.9112 H         1 UNK         0.0600 
    161 H161        2.2543  -14.5618  -43.6803 H         1 UNK         0.0600 
    162 H162        3.9560  -14.2820  -44.0028 H         1 UNK         0.0600 
    163 H163        3.3772  -14.3139  -42.3449 H         1 UNK         0.0600 
    164 H164        1.7391  -16.4790  -42.1672 H         1 UNK         0.3000 
    165 H165        1.7958  -19.7936  -40.9371 H         1 UNK         0.0600 
    166 H166        1.9053  -17.2446  -39.2357 H         1 UNK         0.0600 
    167 H167        1.2186  -18.7925  -38.7406 H         1 UNK         0.0600 
    168 H168        2.9436  -18.6516  -39.0386 H         1 UNK         0.0600 
    169 H169       -0.0466  -17.5839  -40.6878 H         1 UNK         0.3000 
    170 H170       -1.7124  -18.0368  -43.7579 H         1 UNK         0.0600 
    171 H171       -2.6915  -19.8881  -42.3505 H         1 UNK         0.0600 
    172 H172       -2.6905  -18.8182  -40.9570 H         1 UNK         0.0600 
    173 H173       -3.7021  -18.4525  -42.3553 H         1 UNK         0.0600 
    174 H174       -2.3720  -16.4229  -41.5451 H         1 UNK         0.3000 
    175 H175       -2.1150  -14.2096  -41.6906 H         1 UNK         0.0600 
    176 H176       -0.2350  -12.9921  -40.5924 H         1 UNK         0.0600 
    177 H177       -0.0398  -14.7097  -40.3031 H         1 UNK         0.0600 
    178 H178        0.9467  -13.9092  -41.5209 H         1 UNK         0.0600 
    179 H179       -0.7722  -13.6945  -44.1285 H         1 UNK         0.3000 
    180 H180       -2.3330  -10.9111  -44.7412 H         1 UNK         0.0600 
    181 H181       -1.0542   -9.2230  -43.5104 H         1 UNK         0.0600 
    182 H182        0.4684  -10.0014  -43.9056 H         1 UNK         0.0600 
    183 H183       -0.4997   -9.2520  -45.1755 H         1 UNK         0.0600 
    184 H184       -1.4570  -12.1188  -46.3501 H         1 UNK         0.3000 
    185 H185        1.2253  -12.5819  -47.8018 H         1 UNK         0.0600 
    186 H186        1.1659  -15.0589  -46.0224 H         1 UNK         0.0600 
    187 H187        1.7438  -15.0566  -47.6885 H         1 UNK         0.0600 
    188 H188        2.5868  -14.1231  -46.4609 H         1 UNK         0.0600 
    189 H189       -0.5784  -13.4078  -48.7674 H         1 UNK         0.3000 
    190 H190       -0.5517  -21.8531  -43.5101 H         1 UNK         0.3000 
    191 H191       -2.1142  -22.7002  -41.2671 H         1 UNK         0.0600 
    192 H192        0.1510  -22.7758  -40.1263 H         1 UNK         0.0600 
    193 H193       -0.2003  -21.2532  -40.9165 H         1 UNK         0.0600 
    194 H194        0.9054  -22.4026  -41.6715 H         1 UNK         0.0600 
    195 H195        0.0405  -24.4345  -43.4989 H         1 UNK         0.3000 
    196 H196       -0.1042  -26.9910  -42.1776 H         1 UNK         0.0600 
    197 H197        0.9681  -27.7935  -44.2601 H         1 UNK         0.0600 
    198 H198        1.7387  -26.3050  -43.7346 H         1 UNK         0.0600 
    199 H199        0.5954  -26.2827  -45.0764 H         1 UNK         0.0600 
    200 H200       -2.4879  -25.2783  -43.8405 H         1 UNK         0.3000 
    201 H201       -4.4977  -25.6453  -44.6113 H         1 UNK         0.0600 
    202 H202       -4.8030  -27.0878  -42.5800 H         1 UNK         0.0600 
    203 H203       -4.3672  -28.5065  -43.5331 H         1 UNK         0.0600 
    204 H204       -5.8131  -27.5899  -43.9246 H         1 UNK         0.0600 
    205 H205       -2.0734  -26.3298  -46.2395 H         1 UNK         0.3000 
    206 H206       -3.1508  -28.0999  -48.3584 H         1 UNK         0.0600 
    207 H207       -0.7381  -28.2672  -47.7687 H         1 UNK         0.0600 
    208 H208       -0.9337  -27.6721  -49.4111 H         1 UNK         0.0600 
    209 H209       -0.5100  -26.5550  -48.1199 H         1 UNK         0.0600 
    210 H210       -2.5443  -24.7461  -47.5786 H         1 UNK         0.3000 
    211 H211       -3.2022  -22.7765  -48.2992 H         1 UNK         0.0600 
    212 H212       -4.9488  -24.0947  -50.4429 H         1 UNK         0.0600 
    213 H213       -5.0351  -22.4324  -49.9007 H         1 UNK         0.0600 
    214 H214       -5.4720  -23.7266  -48.7989 H         1 UNK         0.0600 
    215 H215       -2.7097  -21.1566  -49.8779 H         1 UNK         0.3000 
    216 H216       -0.3851  -21.6742  -51.4668 H         1 UNK         0.0600 
    217 H217       -0.7740  -19.2425  -52.1526 H         1 UNK         0.0600 
    218 H218       -0.6680  -19.5043  -50.4187 H         1 UNK         0.0600 
    219 H219       -2.2347  -19.2568  -51.1700 H         1 UNK         0.0600 
    220 H220       -0.1319  -21.6066  -53.7039 H         1 UNK         0.3000 
    221 H221       -2.0413  -23.2604  -54.9994 H         1 UNK         0.0600 
    222 H222        0.6245  -22.1419  -55.9969 H         1 UNK         0.0600 
    223 H223        0.4190  -23.6135  -55.0459 H         1 UNK         0.0600 
    224 H224       -0.2367  -23.5228  -56.6679 H         1 UNK         0.0600 
    225 H225       -3.2579  -20.7464  -54.7414 H         1 UNK         0.3000 
    226 H226       -4.6893  -19.4045  -55.7192 H         1 UNK         0.0600 
    227 H227       -5.4983  -21.4832  -56.7769 H         1 UNK         0.0600 
    228 H228       -5.7587  -20.1038  -57.8327 H         1 UNK         0.0600 
    229 H229       -4.4442  -21.2210  -58.1658 H         1 UNK         0.0600 
    230 H230       -1.9899  -19.9136  -57.9799 H         1 UNK         0.3000 
    231 H231       -2.3380  -17.5672  -59.5493 H         1 UNK         0.0600 
    232 H232        0.0065  -18.0486  -60.2881 H         1 UNK         0.0600 
    233 H233       -0.9746  -19.5061  -60.2763 H         1 UNK         0.0600 
    234 H234        0.1865  -19.2153  -58.9820 H         1 UNK         0.0600 
    235 H235       -0.6176  -18.0976  -56.5022 H         1 UNK         0.3000 
    236 H236        0.5440  -15.4278  -56.3472 H         1 UNK         0.0600 
    237 H237        0.1553  -17.6002  -54.2133 H         1 UNK         0.0600 
    238 H238        1.5914  -17.3905  -55.2164 H         1 UNK         0.0600 
    239 H239        1.1488  -16.1570  -54.0480 H         1 UNK         0.0600 
    240 H240       -2.4775  -16.9798  -55.4110 H         1 UNK         0.3000 
    241 H241       -3.3432  -15.0141  -53.5003 H         1 UNK         0.0600 
    242 H242       -4.1104  -15.5624  -57.0075 H         1 UNK         0.3800 
    243 H243       -4.8779  -14.0029  -57.2189 H         1 UNK         0.3800 
    244 H244       -5.4350  -16.2136  -53.4323 H         1 UNK         0.0800 
    245 H245       -5.1337  -17.0284  -54.9385 H         1 UNK         0.0800 
    246 H246       -6.2314  -18.4680  -52.7603 H         1 UNK         0.0800 
    247 H247       -5.2328  -19.8289  -52.3284 H         1 UNK         0.0800 
@<TRIPOS>BOND
     1    1    2 1    
     2    1  127 1    
     3    1  128 1    
     4    1  129 1    
     5    2    3 2    
     6    2    4 am   BACKBONE|DICT|INTERRES
     7    4    5 1    
     8    4  130 1    
     9    5    6 1    
    10    5   65 1    
    11    5  131 1    
    12    6    7 1    
    13    6  132 1    
    14    6  133 1    
    15    7    8 1    
    16    8    9 1    
    17    8  134 1    
    18    8  135 1    
    19    9   10 ar   
    20    9   14 ar   
    21   10   11 ar   
    22   10  136 1    
    23   11   12 ar   
    24   11  126 1    
    25   12   13 ar   
    26   12  137 1    
    27   13   14 ar   
    28   13   15 1    
    29   14  138 1    
    30   15   16 1    
    31   15  139 1    
    32   15  140 1    
    33   16   17 1    
    34   17   18 1    
    35   17  141 1    
    36   17  142 1    
    37   18   19 1    
    38   18   67 1    
    39   18  143 1    
    40   19   20 am   BACKBONE|DICT|INTERRES
    41   19  144 1    
    42   20   21 2    
    43   20   22 1    
    44   22   23 1    
    45   22   24 1    
    46   22  145 1    
    47   23  146 1    
    48   23  147 1    
    49   23  148 1    
    50   24   25 am   BACKBONE|DICT|INTERRES
    51   24  149 1    
    52   25   26 2    
    53   25   27 1    
    54   27   28 1    
    55   27   29 1    
    56   27  150 1    
    57   28  151 1    
    58   28  152 1    
    59   28  153 1    
    60   29   30 am   BACKBONE|DICT|INTERRES
    61   29  154 1    
    62   30   31 2    
    63   30   32 1    
    64   32   33 1    
    65   32   34 1    
    66   32  155 1    
    67   33  156 1    
    68   33  157 1    
    69   33  158 1    
    70   34   35 am   BACKBONE|DICT|INTERRES
    71   34  159 1    
    72   35   36 2    
    73   35   37 1    
    74   37   38 1    
    75   37   39 1    
    76   37  160 1    
    77   38  161 1    
    78   38  162 1    
    79   38  163 1    
    80   39   40 am   BACKBONE|DICT|INTERRES
    81   39  164 1    
    82   40   41 2    
    83   40   42 1    
    84   42   43 1    
    85   42   44 1    
    86   42  165 1    
    87   43  166 1    
    88   43  167 1    
    89   43  168 1    
    90   44   45 am   BACKBONE|DICT|INTERRES
    91   44  169 1    
    92   45   46 2    
    93   45   47 1    
    94   47   48 1    
    95   47   49 1    
    96   47  170 1    
    97   48  171 1    
    98   48  172 1    
    99   48  173 1    
   100   49   50 am   BACKBONE|DICT|INTERRES
   101   49  174 1    
   102   50   51 2    
   103   50   52 1    
   104   52   53 1    
   105   52   54 1    
   106   52  175 1    
   107   53  176 1    
   108   53  177 1    
   109   53  178 1    
   110   54   55 am   BACKBONE|DICT|INTERRES
   111   54  179 1    
   112   55   56 2    
   113   55   57 1    
   114   57   58 1    
   115   57   59 1    
   116   57  180 1    
   117   58  181 1    
   118   58  182 1    
   119   58  183 1    
   120   59   60 am   BACKBONE|DICT|INTERRES
   121   59  184 1    
   122   60   61 2    
   123   60   62 1    
   124   62   63 1    
   125   62   64 1    
   126   62  185 1    
   127   63  186 1    
   128   63  187 1    
   129   63  188 1    
   130   64   65 am   BACKBONE|DICT|INTERRES
   131   64  189 1    
   132   65   66 2    
   133   67   68 2    
   134   67   69 am   BACKBONE|DICT|INTERRES
   135   69   70 1    
   136   69  190 1    
   137   70   71 1    
   138   70   72 1    
   139   70  191 1    
   140   71  192 1    
   141   71  193 1    
   142   71  194 1    
   143   72   73 2    
   144   72   74 am   BACKBONE|DICT|INTERRES
   145   74   75 1    
   146   74  195 1    
   147   75   76 1    
   148   75   77 1    
   149   75  196 1    
   150   76  197 1    
   151   76  198 1    
   152   76  199 1    
   153   77   78 2    
   154   77   79 am   BACKBONE|DICT|INTERRES
   155   79   80 1    
   156   79  200 1    
   157   80   81 1    
   158   80   82 1    
   159   80  201 1    
   160   81  202 1    
   161   81  203 1    
   162   81  204 1    
   163   82   83 2    
   164   82   84 am   BACKBONE|DICT|INTERRES
   165   84   85 1    
   166   84  205 1    
   167   85   86 1    
   168   85   87 1    
   169   85  206 1    
   170   86  207 1    
   171   86  208 1    
   172   86  209 1    
   173   87   88 2    
   174   87   89 am   BACKBONE|DICT|INTERRES
   175   89   90 1    
   176   89  210 1    
   177   90   91 1    
   178   90   92 1    
   179   90  211 1    
   180   91  212 1    
   181   91  213 1    
   182   91  214 1    
   183   92   93 2    
   184   92   94 am   BACKBONE|DICT|INTERRES
   185   94   95 1    
   186   94  215 1    
   187   95   96 1    
   188   95   97 1    
   189   95  216 1    
   190   96  217 1    
   191   96  218 1    
   192   96  219 1    
   193   97   98 2    
   194   97   99 am   BACKBONE|DICT|INTERRES
   195   99  100 1    
   196   99  220 1    
   197  100  101 1    
   198  100  102 1    
   199  100  221 1    
   200  101  222 1    
   201  101  223 1    
   202  101  224 1    
   203  102  103 2    
   204  102  104 am   BACKBONE|DICT|INTERRES
   205  104  105 1    
   206  104  225 1    
   207  105  106 1    
   208  105  107 1    
   209  105  226 1    
   210  106  227 1    
   211  106  228 1    
   212  106  229 1    
   213  107  108 2    
   214  107  109 am   BACKBONE|DICT|INTERRES
   215  109  110 1    
   216  109  230 1    
   217  110  111 1    
   218  110  112 1    
   219  110  231 1    
   220  111  232 1    
   221  111  233 1    
   222  111  234 1    
   223  112  113 2    
   224  112  114 am   BACKBONE|DICT|INTERRES
   225  114  115 1    
   226  114  235 1    
   227  115  116 1    
   228  115  117 1    
   229  115  236 1    
   230  116  237 1    
   231  116  238 1    
   232  116  239 1    
   233  117  118 2    
   234  117  119 am   BACKBONE|DICT|INTERRES
   235  119  120 1    
   236  119  240 1    
   237  120  121 1    
   238  120  124 1    
   239  120  241 1    
   240  121  122 am   BACKBONE|DICT|INTERRES
   241  121  123 2    
   242  122  242 1    
   243  122  243 1    
   244  124  125 1    
   245  124  244 1    
   246  124  245 1    
   247  125  126 1    
   248  126  246 1    
   249  126  247 1    
@<TRIPOS>SUBSTRUCTURE
     1 UNK         1 GROUP             0       ****    0 ROOT    
