@<TRIPOS>MOLECULE
3R540
247   249    1
SMALL
USER_CHARGES


@<TRIPOS>ATOM
      1 CA          2.5902  -16.6079  -47.2537 C.3       0 UNK        -0.1800 
      2 C           2.1593  -15.4483  -46.3692 C.2       0 UNK         0.5000 
      3 O           2.6128  -15.3452  -45.2293 O.2       0 UNK        -0.5000 
      4 N           1.2947  -14.5713  -46.8926 N.am      1 UNK        -0.5000 
      5 CA          0.7304  -13.3998  -46.2092 C.3       1 UNK         0.1400 
      6 C6         -0.6468  -12.9889  -46.8025 C.3       23 UNK        -0.0398 
      7 S7         -1.8413  -14.3689  -46.8779 S.3       23 UNK        -0.2404 
      8 C8         -2.0549  -14.5823  -48.6734 C.3       23 UNK        -0.0205 
      9 C9         -2.4116  -16.0193  -49.0200 C.ar      23 UNK        -0.0193 
     10 C10        -3.7051  -16.5030  -48.7998 C.ar      23 UNK        -0.1150 
     11 C11        -4.0313  -17.8264  -49.1135 C.ar      23 UNK        -0.0193 
     12 C12        -3.0533  -18.6651  -49.6548 C.ar      23 UNK        -0.1150 
     13 C13        -1.7589  -18.1903  -49.8877 C.ar      23 UNK        -0.0193 
     14 C14        -1.4453  -16.8662  -49.5699 C.ar      23 UNK        -0.1150 
     15 C15        -0.7123  -19.1079  -50.5036 C.3       23 UNK        -0.0205 
     16 S16         0.8192  -19.2594  -49.5280 S.3       23 UNK        -0.2404 
     17 C17         0.2060  -19.7081  -47.8723 C.3       23 UNK        -0.0398 
     18 CA          0.0047  -21.2308  -47.6734 C.3       11 UNK         0.1400 
     19 N           0.3203  -21.6302  -46.3001 N.am      11 UNK        -0.5000 
     20 C           0.3258  -22.8848  -45.8302 C.2       10 UNK         0.5000 
     21 O           0.1040  -23.8799  -46.5184 O.2       10 UNK        -0.5000 
     22 CA          0.5666  -23.0429  -44.3201 C.3       10 UNK         0.1400 
     23 CB          2.0660  -22.9840  -43.9912 C.3       10 UNK        -0.1800 
     24 N          -0.1480  -22.0224  -43.5528 N.am      10 UNK        -0.5000 
     25 C          -1.4809  -21.9793  -43.4175 C.2       9 UNK         0.5000 
     26 O          -2.2434  -22.8249  -43.8856 O.2       9 UNK        -0.5000 
     27 CA         -2.0587  -20.7618  -42.6728 C.3       9 UNK         0.1400 
     28 CB         -1.9653  -20.9587  -41.1525 C.3       9 UNK        -0.1800 
     29 N          -1.4016  -19.5065  -43.0426 N.am      9 UNK        -0.5000 
     30 C          -1.4506  -18.9591  -44.2653 C.2       8 UNK         0.5000 
     31 O          -2.0613  -19.4523  -45.2104 O.2       8 UNK        -0.5000 
     32 CA         -0.6509  -17.6646  -44.4844 C.3       8 UNK         0.1400 
     33 CB         -1.5012  -16.4576  -44.0681 C.3       8 UNK        -0.1800 
     34 N           0.6398  -17.6297  -43.7873 N.am      8 UNK        -0.5000 
     35 C           1.6225  -18.5328  -43.9357 C.2       7 UNK         0.5000 
     36 O           1.5009  -19.5463  -44.6259 O.2       7 UNK        -0.5000 
     37 CA          2.9580  -18.2834  -43.2084 C.3       7 UNK         0.1400 
     38 CB          4.1604  -18.5857  -44.1201 C.3       7 UNK        -0.1800 
     39 N           3.0774  -16.9077  -42.7278 N.am      7 UNK        -0.5000 
     40 C           3.1925  -16.5421  -41.4443 C.2       6 UNK         0.5000 
     41 O           3.1912  -17.3357  -40.5017 O.2       6 UNK        -0.5000 
     42 CA          3.3324  -15.0329  -41.1464 C.3       6 UNK         0.1400 
     43 CB          3.8958  -14.2098  -42.3229 C.3       6 UNK        -0.1800 
     44 N           2.0984  -14.4032  -40.6678 N.am      6 UNK        -0.5000 
     45 C           0.8670  -14.5057  -41.1937 C.2       5 UNK         0.5000 
     46 O           0.5533  -15.2909  -42.0850 O.2       5 UNK        -0.5000 
     47 CA         -0.1801  -13.4999  -40.6771 C.3       5 UNK         0.1400 
     48 CB         -0.8251  -14.0014  -39.3766 C.3       5 UNK        -0.1800 
     49 N           0.3855  -12.1628  -40.4650 N.am      5 UNK        -0.5000 
     50 C           0.9428  -11.4174  -41.4310 C.2       4 UNK         0.5000 
     51 O           0.9395  -11.7401  -42.6231 O.2       4 UNK        -0.5000 
     52 CA          1.6462  -10.1224  -40.9736 C.3       4 UNK         0.1400 
     53 CB          2.7576  -10.4233  -39.9517 C.3       4 UNK        -0.1800 
     54 N           2.2567   -9.4447  -42.1121 N.am      4 UNK        -0.5000 
     55 C           1.6297   -8.6353  -42.9691 C.2       3 UNK         0.5000 
     56 O           0.4920   -8.1968  -42.7923 O.2       3 UNK        -0.5000 
     57 CA          2.3915   -8.2866  -44.2622 C.3       3 UNK         0.1400 
     58 CB          3.5136   -7.2627  -44.0034 C.3       3 UNK        -0.1800 
     59 N           2.8843   -9.4661  -44.9895 N.am      3 UNK        -0.5000 
     60 C           3.8364  -10.3476  -44.6519 C.2       2 UNK         0.5000 
     61 O           4.4960  -10.2830  -43.6122 O.2       2 UNK        -0.5000 
     62 CA          4.0587  -11.5117  -45.6408 C.3       2 UNK         0.1400 
     63 CB          5.3447  -12.3041  -45.3461 C.3       2 UNK        -0.1800 
     64 N           2.9308  -12.4446  -45.6650 N.am      2 UNK        -0.5000 
     65 C           1.7370  -12.2250  -46.2293 C.2       1 UNK         0.5000 
     66 O           1.4468  -11.1665  -46.7927 O.2       1 UNK        -0.5000 
     67 C          -1.4162  -21.6711  -48.0858 C.2       11 UNK         0.5000 
     68 O          -1.5898  -22.2539  -49.1573 O.2       11 UNK        -0.5000 
     69 N          -2.3920  -21.4147  -47.2034 N.am      12 UNK        -0.5000 
     70 CA         -3.7914  -21.8096  -47.3334 C.3       12 UNK         0.1400 
     71 CB         -4.6024  -21.1755  -46.1928 C.3       12 UNK        -0.1800 
     72 C          -3.9788  -23.3344  -47.3514 C.2       12 UNK         0.5000 
     73 O          -4.6904  -23.8396  -48.2205 O.2       12 UNK        -0.5000 
     74 N          -3.3086  -24.0384  -46.4260 N.am      13 UNK        -0.5000 
     75 CA         -3.3186  -25.5001  -46.3178 C.3       13 UNK         0.1400 
     76 CB         -2.6022  -25.9262  -45.0279 C.3       13 UNK        -0.1800 
     77 C          -2.6990  -26.2014  -47.5411 C.2       13 UNK         0.5000 
     78 O          -3.2254  -27.2201  -47.9899 O.2       13 UNK        -0.5000 
     79 N          -1.6180  -25.6228  -48.0811 N.am      14 UNK        -0.5000 
     80 CA         -0.9805  -26.0432  -49.3305 C.3       14 UNK         0.1400 
     81 CB          0.4404  -25.4591  -49.3815 C.3       14 UNK        -0.1800 
     82 C          -1.7674  -25.6196  -50.5868 C.2       14 UNK         0.5000 
     83 O          -1.4310  -26.0664  -51.6846 O.2       14 UNK        -0.5000 
     84 N          -2.7598  -24.7327  -50.4212 N.am      15 UNK        -0.5000 
     85 CA         -3.5883  -24.1134  -51.4577 C.3       15 UNK         0.1400 
     86 CB         -4.5236  -25.1688  -52.0855 C.3       15 UNK        -0.1800 
     87 C          -2.7515  -23.3444  -52.4992 C.2       15 UNK         0.5000 
     88 O          -3.0608  -23.3940  -53.6883 O.2       15 UNK        -0.5000 
     89 N          -1.6662  -22.6981  -52.0455 N.am      16 UNK        -0.5000 
     90 CA         -0.6225  -22.0548  -52.8586 C.3       16 UNK         0.1400 
     91 CB         -1.1827  -20.8161  -53.5885 C.3       16 UNK        -0.1800 
     92 C           0.0806  -23.0295  -53.8330 C.2       16 UNK         0.5000 
     93 O           0.4632  -22.6253  -54.9313 O.2       16 UNK        -0.5000 
     94 N           0.2155  -24.2983  -53.4166 N.am      17 UNK        -0.5000 
     95 CA          0.6459  -25.4534  -54.2121 C.3       17 UNK         0.1400 
     96 CB          2.0873  -25.2872  -54.7393 C.3       17 UNK        -0.1800 
     97 C          -0.3866  -25.7920  -55.3080 C.2       17 UNK         0.5000 
     98 O          -0.0283  -25.9556  -56.4757 O.2       17 UNK        -0.5000 
     99 N          -1.6570  -25.8837  -54.8852 N.am      18 UNK        -0.5000 
    100 CA        -2.8554  -26.1581  -55.6865 C.3       18 UNK         0.1400 
    101 CB        -2.8325  -27.6070  -56.2164 C.3       18 UNK        -0.1800 
    102 C         -3.0983  -25.1072  -56.7921 C.2       18 UNK         0.5000 
    103 O         -3.2837  -25.4620  -57.9585 O.2       18 UNK        -0.5000 
    104 N         -3.0889  -23.8291  -56.3972 N.am      19 UNK        -0.5000 
    105 CA        -3.2842  -22.6721  -57.2714 C.3       19 UNK         0.1400 
    106 CB        -1.9155  -22.0544  -57.6011 C.3       19 UNK        -0.1800 
    107 C         -4.2371  -21.6118  -56.6841 C.2       19 UNK         0.5000 
    108 O         -4.7408  -20.7922  -57.4540 O.2       19 UNK        -0.5000 
    109 N         -4.4822  -21.6244  -55.3659 N.am      20 UNK        -0.5000 
    110 CA        -5.3704  -20.6932  -54.6716 C.3       20 UNK         0.1400 
    111 CB        -4.5589  -19.8424  -53.6820 C.3       20 UNK        -0.1800 
    112 C         -6.4490  -21.4887  -53.9286 C.2       20 UNK         0.5000 
    113 O         -6.1204  -22.3345  -53.0943 O.2       20 UNK        -0.5000 
    114 N         -7.7198  -21.1812  -54.2172 N.am      21 UNK        -0.5000 
    115 CA        -8.9009  -21.8516  -53.6618 C.3       21 UNK         0.1400 
    116 CB       -10.1529  -21.3232  -54.3796 C.3       21 UNK        -0.1800 
    117 C         -9.0600  -21.7183  -52.1331 C.2       21 UNK         0.5000 
    118 O         -9.7595  -22.5326  -51.5289 O.2       21 UNK        -0.5000 
    119 N         -8.4118  -20.7097  -51.5368 N.am      22 UNK        -0.5000 
    120 CA        -8.3356  -20.5053  -50.0839 C.3       22 UNK         0.1400 
    121 C         -7.4194  -21.5096  -49.3226 C.2       22 UNK         0.5000 
    122 N         -6.5961  -22.3138  -49.9863 N.am      22 UNK        -0.7600 
    123 O         -7.4735  -21.5678  -48.0987 O.2       22 UNK        -0.5000 
    124 C124       -8.0154  -19.0302  -49.7268 C.3       23 UNK        -0.0398 
    125 S125       -6.4219  -18.4167  -50.3830 S.3       23 UNK        -0.2404 
    126 C126       -5.4335  -18.3558  -48.8567 C.3       23 UNK        -0.0205 
    127 H127        2.0332  -16.6326  -48.1906 H         1 UNK         0.0600 
    128 H128        2.4269  -17.5526  -46.7376 H         1 UNK         0.0600 
    129 H129        3.6515  -16.5266  -47.4871 H         1 UNK         0.0600 
    130 H130        0.9791  -14.7046  -47.8415 H         1 UNK         0.3000 
    131 H131        0.5690  -13.6587  -45.1598 H         1 UNK         0.0600 
    132 H132       -0.5290  -12.5609  -47.7993 H         1 UNK         0.0800 
    133 H133       -1.0917  -12.2014  -46.1919 H         1 UNK         0.0800 
    134 H134       -2.8377  -13.9093  -49.0262 H         1 UNK         0.0800 
    135 H135       -1.1427  -14.2941  -49.1975 H         1 UNK         0.0800 
    136 H136       -4.4543  -15.8486  -48.3767 H         1 UNK         0.1150 
    137 H137       -3.3065  -19.6866  -49.9025 H         1 UNK         0.1150 
    138 H138       -0.4448  -16.4988  -49.7501 H         1 UNK         0.1150 
    139 H139       -1.1237  -20.1048  -50.6540 H         1 UNK         0.0800 
    140 H140       -0.4539  -18.7260  -51.4917 H         1 UNK         0.0800 
    141 H141       -0.6849  -19.1335  -47.6148 H         1 UNK         0.0800 
    142 H142        0.9733  -19.3512  -47.1869 H         1 UNK         0.0800 
    143 H143        0.7104  -21.7659  -48.3124 H         1 UNK         0.0600 
    144 H144        0.5580  -20.8814  -45.6555 H         1 UNK         0.3000 
    145 H145        0.1915  -24.0238  -44.0205 H         1 UNK         0.0600 
    146 H146        2.5056  -22.0239  -44.2629 H         1 UNK         0.0600 
    147 H147        2.2425  -23.1444  -42.9276 H         1 UNK         0.0600 
    148 H148        2.6123  -23.7582  -44.5315 H         1 UNK         0.0600 
    149 H149        0.4017  -21.2551  -43.1947 H         1 UNK         0.3000 
    150 H150       -3.1140  -20.6802  -42.9414 H         1 UNK         0.0600 
    151 H151       -2.4609  -21.8815  -40.8479 H         1 UNK         0.0600 
    152 H152       -2.4488  -20.1403  -40.6188 H         1 UNK         0.0600 
    153 H153       -0.9298  -21.0149  -40.8146 H         1 UNK         0.0600 
    154 H154       -0.8689  -19.0352  -42.3264 H         1 UNK         0.3000 
    155 H155       -0.4437  -17.5793  -45.5530 H         1 UNK         0.0600 
    156 H156       -2.4436  -16.4353  -44.6168 H         1 UNK         0.0600 
    157 H157       -0.9821  -15.5222  -44.2747 H         1 UNK         0.0600 
    158 H158       -1.7404  -16.4794  -43.0044 H         1 UNK         0.0600 
    159 H159        0.7994  -16.8210  -43.1900 H         1 UNK         0.3000 
    160 H160        2.9844  -18.9868  -42.3743 H         1 UNK         0.0600 
    161 H161        5.1004  -18.4568  -43.5837 H         1 UNK         0.0600 
    162 H162        4.1802  -17.9276  -44.9891 H         1 UNK         0.0600 
    163 H163        4.1362  -19.6138  -44.4837 H         1 UNK         0.0600 
    164 H164        3.0147  -16.1897  -43.4451 H         1 UNK         0.3000 
    165 H165        4.0531  -14.9598  -40.3306 H         1 UNK         0.0600 
    166 H166        3.1482  -14.0483  -43.0979 H         1 UNK         0.0600 
    167 H167        4.2214  -13.2258  -41.9850 H         1 UNK         0.0600 
    168 H168        4.7599  -14.6957  -42.7779 H         1 UNK         0.0600 
    169 H169        2.2196  -13.7461  -39.9116 H         1 UNK         0.3000 
    170 H170       -0.9608  -13.4167  -41.4363 H         1 UNK         0.0600 
    171 H171       -0.0979  -14.0782  -38.5674 H         1 UNK         0.0600 
    172 H172       -1.6232  -13.3346  -39.0495 H         1 UNK         0.0600 
    173 H173       -1.2658  -14.9894  -39.5170 H         1 UNK         0.0600 
    174 H174        0.4086  -11.8291  -39.5124 H         1 UNK         0.3000 
    175 H175        0.9034   -9.4688  -40.5121 H         1 UNK         0.0600 
    176 H176        3.4895  -11.1272  -40.3507 H         1 UNK         0.0600 
    177 H177        3.2898   -9.5138  -39.6721 H         1 UNK         0.0600 
    178 H178        2.3541  -10.8505  -39.0333 H         1 UNK         0.0600 
    179 H179        3.1653   -9.7933  -42.4069 H         1 UNK         0.3000 
    180 H180        1.6706   -7.8133  -44.9308 H         1 UNK         0.0600 
    181 H181        4.2739   -7.6472  -43.3233 H         1 UNK         0.0600 
    182 H182        3.1108   -6.3528  -43.5568 H         1 UNK         0.0600 
    183 H183        4.0079   -6.9775  -44.9320 H         1 UNK         0.0600 
    184 H184        2.3469   -9.7044  -45.8183 H         1 UNK         0.3000 
    185 H185        4.1657  -11.0753  -46.6361 H         1 UNK         0.0600 
    186 H186        5.5095  -13.0809  -46.0930 H         1 UNK         0.0600 
    187 H187        6.2175  -11.6500  -45.3601 H         1 UNK         0.0600 
    188 H188        5.3102  -12.7830  -44.3680 H         1 UNK         0.0600 
    189 H189        3.0812  -13.3539  -45.2418 H         1 UNK         0.3000 
    190 H190       -2.1653  -20.8680  -46.3752 H         1 UNK         0.3000 
    191 H191       -4.1632  -21.4197  -48.2824 H         1 UNK         0.0600 
    192 H192       -4.2240  -21.4731  -45.2150 H         1 UNK         0.0600 
    193 H193       -4.5698  -20.0872  -46.2429 H         1 UNK         0.0600 
    194 H194       -5.6495  -21.4731  -46.2381 H         1 UNK         0.0600 
    195 H195       -2.7734  -23.5382  -45.7234 H         1 UNK         0.3000 
    196 H196       -4.3607  -25.8189  -46.2483 H         1 UNK         0.0600 
    197 H197       -3.0906  -25.5058  -44.1487 H         1 UNK         0.0600 
    198 H198       -1.5614  -25.6016  -45.0197 H         1 UNK         0.0600 
    199 H199       -2.6096  -27.0111  -44.9159 H         1 UNK         0.0600 
    200 H200       -1.1998  -24.8266  -47.6069 H         1 UNK         0.3000 
    201 H201       -0.9063  -27.1324  -49.3393 H         1 UNK         0.0600 
    202 H202        0.9678  -25.7810  -50.2804 H         1 UNK         0.0600 
    203 H203        1.0308  -25.7853  -48.5251 H         1 UNK         0.0600 
    204 H204        0.4257  -24.3683  -49.3803 H         1 UNK         0.0600 
    205 H205       -2.9437  -24.4090  -49.4803 H         1 UNK         0.3000 
    206 H206       -4.2060  -23.3653  -50.9623 H         1 UNK         0.0600 
    207 H207       -5.1591  -25.6241  -51.3260 H         1 UNK         0.0600 
    208 H208       -3.9671  -25.9670  -52.5755 H         1 UNK         0.0600 
    209 H209       -5.1826  -24.7283  -52.8329 H         1 UNK         0.0600 
    210 H210       -1.5209  -22.6822  -51.0382 H         1 UNK         0.3000 
    211 H211        0.1426  -21.7141  -52.1596 H         1 UNK         0.0600 
    212 H212       -1.7383  -20.1679  -52.9148 H         1 UNK         0.0600 
    213 H213       -0.3785  -20.2207  -54.0217 H         1 UNK         0.0600 
    214 H214       -1.8525  -21.0958  -54.4004 H         1 UNK         0.0600 
    215 H215       -0.1835  -24.5391  -52.5182 H         1 UNK         0.3000 
    216 H216        0.6524  -26.3045  -53.5295 H         1 UNK         0.0600 
    217 H217        2.4407  -26.2136  -55.1930 H         1 UNK         0.0600 
    218 H218        2.1619  -24.5084  -55.4983 H         1 UNK         0.0600 
    219 H219        2.7759  -25.0377  -53.9322 H         1 UNK         0.0600 
    220 H220       -1.8247  -25.7219  -53.8997 H         1 UNK         0.3000 
    221 H221       -3.7032  -26.0757  -55.0055 H         1 UNK         0.0600 
    222 H222       -2.0255  -27.7657  -56.9321 H         1 UNK         0.0600 
    223 H223       -2.7046  -28.3213  -55.4030 H         1 UNK         0.0600 
    224 H224       -3.7684  -27.8533  -56.7192 H         1 UNK         0.0600 
    225 H225       -2.9461  -23.6379  -55.4062 H         1 UNK         0.3000 
    226 H226       -3.7417  -22.9962  -58.2083 H         1 UNK         0.0600 
    227 H227       -1.2604  -22.7817  -58.0812 H         1 UNK         0.0600 
    228 H228       -2.0192  -21.2092  -58.2824 H         1 UNK         0.0600 
    229 H229       -1.4118  -21.6941  -56.7044 H         1 UNK         0.0600 
    230 H230       -4.0659  -22.3406  -54.7754 H         1 UNK         0.3000 
    231 H231       -5.8559  -20.0169  -55.3780 H         1 UNK         0.0600 
    232 H232       -5.1959  -19.1113  -53.1834 H         1 UNK         0.0600 
    233 H233       -3.7701  -19.2898  -54.1921 H         1 UNK         0.0600 
    234 H234       -4.0979  -20.4547  -52.9061 H         1 UNK         0.0600 
    235 H235       -7.9017  -20.4621  -54.9026 H         1 UNK         0.3000 
    236 H236       -8.8065  -22.9172  -53.8809 H         1 UNK         0.0600 
    237 H237      -10.0970  -21.4997  -55.4539 H         1 UNK         0.0600 
    238 H238      -11.0525  -21.8226  -54.0173 H         1 UNK         0.0600 
    239 H239      -10.2853  -20.2524  -54.2199 H         1 UNK         0.0600 
    240 H240       -7.8482  -20.0926  -52.1020 H         1 UNK         0.3000 
    241 H241       -9.3371  -20.6966  -49.6932 H         1 UNK         0.0600 
    242 H242       -6.5449  -22.2934  -50.9975 H         1 UNK         0.3800 
    243 H243       -6.0267  -22.9640  -49.4571 H         1 UNK         0.3800 
    244 H244       -8.8007  -18.3886  -50.1284 H         1 UNK         0.0800 
    245 H245       -8.0541  -18.8837  -48.6460 H         1 UNK         0.0800 
    246 H246       -5.9414  -17.7326  -48.1190 H         1 UNK         0.0800 
    247 H247       -5.3758  -19.3556  -48.4278 H         1 UNK         0.0800 
@<TRIPOS>BOND
     1    1    2 1    
     2    1  127 1    
     3    1  128 1    
     4    1  129 1    
     5    2    3 2    
     6    2    4 am   BACKBONE|DICT|INTERRES
     7    4    5 1    
     8    4  130 1    
     9    5    6 1    
    10    5   65 1    
    11    5  131 1    
    12    6    7 1    
    13    6  132 1    
    14    6  133 1    
    15    7    8 1    
    16    8    9 1    
    17    8  134 1    
    18    8  135 1    
    19    9   10 ar   
    20    9   14 ar   
    21   10   11 ar   
    22   10  136 1    
    23   11   12 ar   
    24   11  126 1    
    25   12   13 ar   
    26   12  137 1    
    27   13   14 ar   
    28   13   15 1    
    29   14  138 1    
    30   15   16 1    
    31   15  139 1    
    32   15  140 1    
    33   16   17 1    
    34   17   18 1    
    35   17  141 1    
    36   17  142 1    
    37   18   19 1    
    38   18   67 1    
    39   18  143 1    
    40   19   20 am   BACKBONE|DICT|INTERRES
    41   19  144 1    
    42   20   21 2    
    43   20   22 1    
    44   22   23 1    
    45   22   24 1    
    46   22  145 1    
    47   23  146 1    
    48   23  147 1    
    49   23  148 1    
    50   24   25 am   BACKBONE|DICT|INTERRES
    51   24  149 1    
    52   25   26 2    
    53   25   27 1    
    54   27   28 1    
    55   27   29 1    
    56   27  150 1    
    57   28  151 1    
    58   28  152 1    
    59   28  153 1    
    60   29   30 am   BACKBONE|DICT|INTERRES
    61   29  154 1    
    62   30   31 2    
    63   30   32 1    
    64   32   33 1    
    65   32   34 1    
    66   32  155 1    
    67   33  156 1    
    68   33  157 1    
    69   33  158 1    
    70   34   35 am   BACKBONE|DICT|INTERRES
    71   34  159 1    
    72   35   36 2    
    73   35   37 1    
    74   37   38 1    
    75   37   39 1    
    76   37  160 1    
    77   38  161 1    
    78   38  162 1    
    79   38  163 1    
    80   39   40 am   BACKBONE|DICT|INTERRES
    81   39  164 1    
    82   40   41 2    
    83   40   42 1    
    84   42   43 1    
    85   42   44 1    
    86   42  165 1    
    87   43  166 1    
    88   43  167 1    
    89   43  168 1    
    90   44   45 am   BACKBONE|DICT|INTERRES
    91   44  169 1    
    92   45   46 2    
    93   45   47 1    
    94   47   48 1    
    95   47   49 1    
    96   47  170 1    
    97   48  171 1    
    98   48  172 1    
    99   48  173 1    
   100   49   50 am   BACKBONE|DICT|INTERRES
   101   49  174 1    
   102   50   51 2    
   103   50   52 1    
   104   52   53 1    
   105   52   54 1    
   106   52  175 1    
   107   53  176 1    
   108   53  177 1    
   109   53  178 1    
   110   54   55 am   BACKBONE|DICT|INTERRES
   111   54  179 1    
   112   55   56 2    
   113   55   57 1    
   114   57   58 1    
   115   57   59 1    
   116   57  180 1    
   117   58  181 1    
   118   58  182 1    
   119   58  183 1    
   120   59   60 am   BACKBONE|DICT|INTERRES
   121   59  184 1    
   122   60   61 2    
   123   60   62 1    
   124   62   63 1    
   125   62   64 1    
   126   62  185 1    
   127   63  186 1    
   128   63  187 1    
   129   63  188 1    
   130   64   65 am   BACKBONE|DICT|INTERRES
   131   64  189 1    
   132   65   66 2    
   133   67   68 2    
   134   67   69 am   BACKBONE|DICT|INTERRES
   135   69   70 1    
   136   69  190 1    
   137   70   71 1    
   138   70   72 1    
   139   70  191 1    
   140   71  192 1    
   141   71  193 1    
   142   71  194 1    
   143   72   73 2    
   144   72   74 am   BACKBONE|DICT|INTERRES
   145   74   75 1    
   146   74  195 1    
   147   75   76 1    
   148   75   77 1    
   149   75  196 1    
   150   76  197 1    
   151   76  198 1    
   152   76  199 1    
   153   77   78 2    
   154   77   79 am   BACKBONE|DICT|INTERRES
   155   79   80 1    
   156   79  200 1    
   157   80   81 1    
   158   80   82 1    
   159   80  201 1    
   160   81  202 1    
   161   81  203 1    
   162   81  204 1    
   163   82   83 2    
   164   82   84 am   BACKBONE|DICT|INTERRES
   165   84   85 1    
   166   84  205 1    
   167   85   86 1    
   168   85   87 1    
   169   85  206 1    
   170   86  207 1    
   171   86  208 1    
   172   86  209 1    
   173   87   88 2    
   174   87   89 am   BACKBONE|DICT|INTERRES
   175   89   90 1    
   176   89  210 1    
   177   90   91 1    
   178   90   92 1    
   179   90  211 1    
   180   91  212 1    
   181   91  213 1    
   182   91  214 1    
   183   92   93 2    
   184   92   94 am   BACKBONE|DICT|INTERRES
   185   94   95 1    
   186   94  215 1    
   187   95   96 1    
   188   95   97 1    
   189   95  216 1    
   190   96  217 1    
   191   96  218 1    
   192   96  219 1    
   193   97   98 2    
   194   97   99 am   BACKBONE|DICT|INTERRES
   195   99  100 1    
   196   99  220 1    
   197  100  101 1    
   198  100  102 1    
   199  100  221 1    
   200  101  222 1    
   201  101  223 1    
   202  101  224 1    
   203  102  103 2    
   204  102  104 am   BACKBONE|DICT|INTERRES
   205  104  105 1    
   206  104  225 1    
   207  105  106 1    
   208  105  107 1    
   209  105  226 1    
   210  106  227 1    
   211  106  228 1    
   212  106  229 1    
   213  107  108 2    
   214  107  109 am   BACKBONE|DICT|INTERRES
   215  109  110 1    
   216  109  230 1    
   217  110  111 1    
   218  110  112 1    
   219  110  231 1    
   220  111  232 1    
   221  111  233 1    
   222  111  234 1    
   223  112  113 2    
   224  112  114 am   BACKBONE|DICT|INTERRES
   225  114  115 1    
   226  114  235 1    
   227  115  116 1    
   228  115  117 1    
   229  115  236 1    
   230  116  237 1    
   231  116  238 1    
   232  116  239 1    
   233  117  118 2    
   234  117  119 am   BACKBONE|DICT|INTERRES
   235  119  120 1    
   236  119  240 1    
   237  120  121 1    
   238  120  124 1    
   239  120  241 1    
   240  121  122 am   BACKBONE|DICT|INTERRES
   241  121  123 2    
   242  122  242 1    
   243  122  243 1    
   244  124  125 1    
   245  124  244 1    
   246  124  245 1    
   247  125  126 1    
   248  126  246 1    
   249  126  247 1    
@<TRIPOS>SUBSTRUCTURE
     1 UNK         1 GROUP             0       ****    0 ROOT    
