@<TRIPOS>MOLECULE
3R540
247   249    1
SMALL
USER_CHARGES


@<TRIPOS>ATOM
      1 CA         -2.1682  -11.6129  -44.4751 C.3       0 UNK        -0.1800 
      2 C          -2.0042  -12.9913  -45.0964 C.2       0 UNK         0.5000 
      3 O          -1.3527  -13.8574  -44.5122 O.2       0 UNK        -0.5000 
      4 N          -2.5973  -13.2164  -46.2741 N.am      1 UNK        -0.5000 
      5 CA         -2.5810  -14.5053  -46.9842 C.3       1 UNK         0.1400 
      6 C6         -2.9596  -14.3338  -48.4765 C.3       23 UNK        -0.0398 
      7 S7         -1.5827  -13.5666  -49.4048 S.3       23 UNK        -0.2404 
      8 C8         -1.4069  -14.6662  -50.8558 C.3       23 UNK        -0.0205 
      9 C9         -0.5868  -15.9387  -50.6302 C.ar      23 UNK        -0.0193 
     10 C10         0.2172  -16.4292  -51.6648 C.ar      23 UNK        -0.1150 
     11 C11         0.9035  -17.6422  -51.5334 C.ar      23 UNK        -0.0193 
     12 C12         0.7776  -18.3762  -50.3485 C.ar      23 UNK        -0.1150 
     13 C13        -0.0047  -17.8902  -49.3004 C.ar      23 UNK        -0.0193 
     14 C14        -0.6766  -16.6777  -49.4481 C.ar      23 UNK        -0.1150 
     15 C15        -0.2237  -18.7050  -48.0409 C.3       23 UNK        -0.0205 
     16 S16         0.4312  -17.8898  -46.5438 S.3       23 UNK        -0.2404 
     17 C17        -0.6168  -18.4804  -45.1530 C.3       23 UNK        -0.0398 
     18 CA         -1.6267  -19.6189  -45.4300 C.3       11 UNK         0.1400 
     19 N          -0.9718  -20.8602  -45.8552 N.am      11 UNK        -0.5000 
     20 C          -1.6035  -21.8892  -46.4391 C.2       10 UNK         0.5000 
     21 O          -2.8002  -21.8648  -46.7251 O.2       10 UNK        -0.5000 
     22 CA         -0.7908  -23.1589  -46.7513 C.3       10 UNK         0.1400 
     23 CB         -0.4296  -23.1889  -48.2421 C.3       10 UNK        -0.1800 
     24 N           0.4366  -23.2940  -45.9674 N.am      10 UNK        -0.5000 
     25 C           0.5137  -23.3802  -44.6314 C.2       9 UNK         0.5000 
     26 O          -0.4681  -23.3978  -43.8898 O.2       9 UNK        -0.5000 
     27 CA          1.9313  -23.3785  -44.0253 C.3       9 UNK         0.1400 
     28 CB          2.4075  -24.8154  -43.7663 C.3       9 UNK        -0.1800 
     29 N           2.9182  -22.6849  -44.8628 N.am      9 UNK        -0.5000 
     30 C           2.8701  -21.3824  -45.1734 C.2       8 UNK         0.5000 
     31 O           1.9846  -20.6186  -44.7812 O.2       8 UNK        -0.5000 
     32 CA          3.9411  -20.8703  -46.1448 C.3       8 UNK         0.1400 
     33 CB          3.3897  -20.8600  -47.5805 C.3       8 UNK        -0.1800 
     34 N           4.3204  -19.5100  -45.7858 N.am      8 UNK        -0.5000 
     35 C           5.3888  -19.1682  -45.0553 C.2       7 UNK         0.5000 
     36 O           6.1907  -19.9870  -44.6020 O.2       7 UNK        -0.5000 
     37 CA          5.5873  -17.6603  -44.7769 C.3       7 UNK         0.1400 
     38 CB          7.0741  -17.2628  -44.6698 C.3       7 UNK        -0.1800 
     39 N           4.8754  -16.7881  -45.7206 N.am      7 UNK        -0.5000 
     40 C           5.0630  -16.6821  -47.0468 C.2       6 UNK         0.5000 
     41 O           5.9528  -17.2722  -47.6601 O.2       6 UNK        -0.5000 
     42 CA          4.0659  -15.8084  -47.8354 C.3       6 UNK         0.1400 
     43 CB          3.2973  -16.6629  -48.8530 C.3       6 UNK        -0.1800 
     44 N           3.0984  -15.1253  -46.9717 N.am      6 UNK        -0.5000 
     45 C           3.3098  -13.9264  -46.4147 C.2       5 UNK         0.5000 
     46 O           4.3263  -13.2560  -46.6007 O.2       5 UNK        -0.5000 
     47 CA          2.2134  -13.3891  -45.4734 C.3       5 UNK         0.1400 
     48 CB          1.1806  -12.5960  -46.2862 C.3       5 UNK        -0.1800 
     49 N           1.5434  -14.4025  -44.6373 N.am      5 UNK        -0.5000 
     50 C           2.1878  -15.2118  -43.7792 C.2       4 UNK         0.5000 
     51 O           3.4150  -15.2262  -43.6791 O.2       4 UNK        -0.5000 
     52 CA          1.3635  -16.1627  -42.8879 C.3       4 UNK         0.1400 
     53 CB          2.1093  -16.5202  -41.5819 C.3       4 UNK        -0.1800 
     54 N           0.0267  -15.6461  -42.5838 N.am      4 UNK        -0.5000 
     55 C          -0.9852  -16.3864  -42.1083 C.2       3 UNK         0.5000 
     56 O          -0.9251  -17.6072  -41.9601 O.2       3 UNK        -0.5000 
     57 CA         -2.2888  -15.6608  -41.7420 C.3       3 UNK         0.1400 
     58 CB         -2.0659  -14.2448  -41.1753 C.3       3 UNK        -0.1800 
     59 N          -3.1312  -15.5896  -42.9299 N.am      3 UNK        -0.5000 
     60 C          -4.3417  -16.1509  -43.0620 C.2       2 UNK         0.5000 
     61 O          -4.9156  -16.7449  -42.1479 O.2       2 UNK        -0.5000 
     62 CA         -5.0526  -16.0129  -44.4281 C.3       2 UNK         0.1400 
     63 CB         -6.4687  -15.4355  -44.2644 C.3       2 UNK        -0.1800 
     64 N          -4.3110  -15.1615  -45.3592 N.am      2 UNK        -0.5000 
     65 C          -3.4424  -15.5850  -46.2876 C.2       1 UNK         0.5000 
     66 O          -3.2723  -16.7690  -46.5758 O.2       1 UNK        -0.5000 
     67 C          -2.5918  -19.8377  -44.2477 C.2       11 UNK         0.5000 
     68 O          -3.5834  -19.1164  -44.1536 O.2       11 UNK        -0.5000 
     69 N          -2.3784  -20.8903  -43.4424 N.am      12 UNK        -0.5000 
     70 CA         -3.3351  -21.3413  -42.4250 C.3       12 UNK         0.1400 
     71 CB         -2.6603  -22.3822  -41.5196 C.3       12 UNK        -0.1800 
     72 C          -4.6389  -21.9104  -43.0299 C.2       12 UNK         0.5000 
     73 O          -5.6503  -21.9793  -42.3315 O.2       12 UNK        -0.5000 
     74 N          -4.5943  -22.2846  -44.3158 N.am      13 UNK        -0.5000 
     75 CA         -5.7177  -22.7513  -45.1237 C.3       13 UNK         0.1400 
     76 CB         -5.3444  -24.1176  -45.7273 C.3       13 UNK        -0.1800 
     77 C          -6.0866  -21.7273  -46.2185 C.2       13 UNK         0.5000 
     78 O          -6.7229  -22.1075  -47.2009 O.2       13 UNK        -0.5000 
     79 N          -5.6742  -20.4589  -46.0533 N.am      14 UNK        -0.5000 
     80 CA         -5.9141  -19.3274  -46.9581 C.3       14 UNK         0.1400 
     81 CB         -7.4036  -18.9281  -46.9457 C.3       14 UNK        -0.1800 
     82 C          -5.3643  -19.5678  -48.3787 C.2       14 UNK         0.5000 
     83 O          -6.1100  -19.5116  -49.3580 O.2       14 UNK        -0.5000 
     84 N          -4.0622  -19.8754  -48.4460 N.am      15 UNK        -0.5000 
     85 CA         -3.2904  -20.2081  -49.6489 C.3       15 UNK         0.1400 
     86 CB         -3.2417  -19.0149  -50.6252 C.3       15 UNK        -0.1800 
     87 C          -3.7793  -21.5125  -50.3025 C.2       15 UNK         0.5000 
     88 O          -3.8612  -21.5954  -51.5302 O.2       15 UNK        -0.5000 
     89 N          -4.1036  -22.4936  -49.4455 N.am      16 UNK        -0.5000 
     90 CA         -4.6965  -23.7949  -49.7650 C.3       16 UNK         0.1400 
     91 CB         -3.6806  -24.6868  -50.5083 C.3       16 UNK        -0.1800 
     92 C          -6.0431  -23.6441  -50.5022 C.2       16 UNK         0.5000 
     93 O          -6.2187  -24.1853  -51.5934 O.2       16 UNK        -0.5000 
     94 N          -6.9543  -22.8727  -49.8917 N.am      17 UNK        -0.5000 
     95 CA         -8.2694  -22.4728  -50.4006 C.3       17 UNK         0.1400 
     96 CB         -9.2145  -23.6886  -50.4981 C.3       17 UNK        -0.1800 
     97 C          -8.1676  -21.6676  -51.7127 C.2       17 UNK         0.5000 
     98 O          -8.8634  -21.9683  -52.6848 O.2       17 UNK        -0.5000 
     99 N          -7.2825  -20.6598  -51.7053 N.am      18 UNK        -0.5000 
    100 CA        -6.9677  -19.7389  -52.8023 C.3       18 UNK         0.1400 
    101 CB        -8.1780  -18.8358  -53.1194 C.3       18 UNK        -0.1800 
    102 C         -6.3835  -20.4237  -54.0583 C.2       18 UNK         0.5000 
    103 O         -6.5298  -19.9001  -55.1644 O.2       18 UNK        -0.5000 
    104 N         -5.7132  -21.5692  -53.8741 N.am      19 UNK        -0.5000 
    105 CA        -5.0281  -22.3066  -54.9373 C.3       19 UNK         0.1400 
    106 CB        -4.8534  -23.7701  -54.5093 C.3       19 UNK        -0.1800 
    107 C         -3.6642  -21.6937  -55.3058 C.2       19 UNK         0.5000 
    108 O         -3.1819  -21.9442  -56.4106 O.2       19 UNK        -0.5000 
    109 N         -3.0786  -20.9144  -54.3817 N.am      20 UNK        -0.5000 
    110 CA        -1.7627  -20.2729  -54.4615 C.3       20 UNK         0.1400 
    111 CB        -1.6850  -19.2640  -55.6260 C.3       20 UNK        -0.1800 
    112 C         -0.6414  -21.3273  -54.4865 C.2       20 UNK         0.5000 
    113 O          0.0405  -21.5080  -55.4982 O.2       20 UNK        -0.5000 
    114 N         -0.4882  -22.0086  -53.3423 N.am      21 UNK        -0.5000 
    115 CA         0.4301  -23.1262  -53.0873 C.3       21 UNK         0.1400 
    116 CB         0.2536  -23.5645  -51.6261 C.3       21 UNK        -0.1800 
    117 C          1.9235  -22.8649  -53.3868 C.2       21 UNK         0.5000 
    118 O          2.6860  -23.8244  -53.5101 O.2       21 UNK        -0.5000 
    119 N          2.3122  -21.5899  -53.5127 N.am      22 UNK        -0.5000 
    120 CA         3.6340  -21.1395  -53.9805 C.3       22 UNK         0.1400 
    121 C          3.9735  -21.5694  -55.4398 C.2       22 UNK         0.5000 
    122 N          2.9916  -21.8443  -56.2927 N.am      22 UNK        -0.7600 
    123 O          5.1443  -21.6484  -55.8014 O.2       22 UNK        -0.5000 
    124 C124        3.8162  -19.6025  -53.8499 C.3       23 UNK        -0.0398 
    125 S125        3.3089  -18.9163  -52.2358 S.3       23 UNK        -0.2404 
    126 C126        1.7085  -18.1790  -52.7096 C.3       23 UNK        -0.0205 
    127 H127       -2.6183  -10.9064  -45.1727 H         1 UNK         0.0600 
    128 H128       -1.1999  -11.2185  -44.1683 H         1 UNK         0.0600 
    129 H129       -2.8038  -11.6766  -43.5921 H         1 UNK         0.0600 
    130 H130       -3.0972  -12.4667  -46.7313 H         1 UNK         0.3000 
    131 H131       -1.5583  -14.8859  -46.9344 H         1 UNK         0.0600 
    132 H132       -3.2178  -15.2878  -48.9392 H         1 UNK         0.0800 
    133 H133       -3.8489  -13.7106  -48.5813 H         1 UNK         0.0800 
    134 H134       -0.9447  -14.0763  -51.6486 H         1 UNK         0.0800 
    135 H135       -2.3952  -14.9431  -51.2249 H         1 UNK         0.0800 
    136 H136        0.2834  -15.8782  -52.5925 H         1 UNK         0.1150 
    137 H137        1.2765  -19.3296  -50.2475 H         1 UNK         0.1150 
    138 H138       -1.2998  -16.3492  -48.6366 H         1 UNK         0.1150 
    139 H139       -1.2995  -18.8188  -47.9709 H         1 UNK         0.0800 
    140 H140        0.2012  -19.7044  -48.1355 H         1 UNK         0.0800 
    141 H141       -1.1544  -17.6017  -44.7936 H         1 UNK         0.0800 
    142 H142        0.0451  -18.7815  -44.3407 H         1 UNK         0.0800 
    143 H143       -2.2925  -19.2924  -46.2257 H         1 UNK         0.0600 
    144 H144        0.0142  -20.9397  -45.6329 H         1 UNK         0.3000 
    145 H145       -1.4291  -24.0163  -46.5290 H         1 UNK         0.0600 
    146 H146       -1.3199  -23.1044  -48.8654 H         1 UNK         0.0600 
    147 H147        0.2373  -22.3682  -48.5091 H         1 UNK         0.0600 
    148 H148        0.0627  -24.1239  -48.5103 H         1 UNK         0.0600 
    149 H149        1.3017  -23.2900  -46.4861 H         1 UNK         0.3000 
    150 H150        1.8768  -22.8561  -43.0679 H         1 UNK         0.0600 
    151 H151        1.7046  -25.3502  -43.1260 H         1 UNK         0.0600 
    152 H152        3.3749  -24.8262  -43.2637 H         1 UNK         0.0600 
    153 H153        2.5033  -25.3819  -44.6935 H         1 UNK         0.0600 
    154 H154        3.6711  -23.2500  -45.2289 H         1 UNK         0.3000 
    155 H155        4.8109  -21.5296  -46.1086 H         1 UNK         0.0600 
    156 H156        3.0955  -21.8610  -47.8982 H         1 UNK         0.0600 
    157 H157        4.1397  -20.5026  -48.2866 H         1 UNK         0.0600 
    158 H158        2.5160  -20.2143  -47.6724 H         1 UNK         0.0600 
    159 H159        3.6745  -18.7843  -46.0578 H         1 UNK         0.3000 
    160 H160        5.1316  -17.4779  -43.8028 H         1 UNK         0.0600 
    161 H161        7.1828  -16.1966  -44.4709 H         1 UNK         0.0600 
    162 H162        7.6235  -17.4925  -45.5830 H         1 UNK         0.0600 
    163 H163        7.5636  -17.7946  -43.8533 H         1 UNK         0.0600 
    164 H164        4.1600  -16.2081  -45.2964 H         1 UNK         0.3000 
    165 H165        4.6460  -15.0692  -48.3917 H         1 UNK         0.0600 
    166 H166        2.7752  -17.4883  -48.3699 H         1 UNK         0.0600 
    167 H167        2.5619  -16.0688  -49.3961 H         1 UNK         0.0600 
    168 H168        3.9715  -17.0960  -49.5928 H         1 UNK         0.0600 
    169 H169        2.2345  -15.6117  -46.7765 H         1 UNK         0.3000 
    170 H170        2.7042  -12.6900  -44.7931 H         1 UNK         0.0600 
    171 H171        0.5161  -13.2533  -46.8481 H         1 UNK         0.0600 
    172 H172        0.5792  -11.9647  -45.6357 H         1 UNK         0.0600 
    173 H173        1.6644  -11.9311  -47.0033 H         1 UNK         0.0600 
    174 H174        0.5291  -14.4227  -44.6801 H         1 UNK         0.3000 
    175 H175        1.2553  -17.0778  -43.4687 H         1 UNK         0.0600 
    176 H176        3.0899  -16.9511  -41.7879 H         1 UNK         0.0600 
    177 H177        2.2601  -15.6392  -40.9573 H         1 UNK         0.0600 
    178 H178        1.5653  -17.2578  -40.9925 H         1 UNK         0.0600 
    179 H179       -0.1234  -14.6577  -42.7414 H         1 UNK         0.3000 
    180 H180       -2.7686  -16.2548  -40.9615 H         1 UNK         0.0600 
    181 H181       -1.6487  -13.5577  -41.9106 H         1 UNK         0.0600 
    182 H182       -1.3866  -14.2689  -40.3222 H         1 UNK         0.0600 
    183 H183       -3.0059  -13.8171  -40.8266 H         1 UNK         0.0600 
    184 H184       -2.7058  -15.1361  -43.7302 H         1 UNK         0.3000 
    185 H185       -5.1466  -17.0184  -44.8373 H         1 UNK         0.0600 
    186 H186       -6.9781  -15.3658  -45.2257 H         1 UNK         0.0600 
    187 H187       -7.0807  -16.0699  -43.6221 H         1 UNK         0.0600 
    188 H188       -6.4484  -14.4394  -43.8209 H         1 UNK         0.0600 
    189 H189       -4.3830  -14.1666  -45.2025 H         1 UNK         0.3000 
    190 H190       -1.5733  -21.4849  -43.5993 H         1 UNK         0.3000 
    191 H191       -3.6056  -20.4796  -41.8107 H         1 UNK         0.0600 
    192 H192       -2.4152  -23.2930  -42.0666 H         1 UNK         0.0600 
    193 H193       -1.7401  -21.9923  -41.0842 H         1 UNK         0.0600 
    194 H194       -3.3164  -22.6641  -40.6952 H         1 UNK         0.0600 
    195 H195       -3.7251  -22.1702  -44.8215 H         1 UNK         0.3000 
    196 H196       -6.6064  -22.8833  -44.5039 H         1 UNK         0.0600 
    197 H197       -5.1089  -24.8394  -44.9452 H         1 UNK         0.0600 
    198 H198       -4.4769  -24.0436  -46.3835 H         1 UNK         0.0600 
    199 H199       -6.1672  -24.5330  -46.3105 H         1 UNK         0.0600 
    200 H200       -5.1381  -20.2395  -45.2225 H         1 UNK         0.3000 
    201 H201       -5.3473  -18.4881  -46.5585 H         1 UNK         0.0600 
    202 H202       -7.5713  -18.0330  -47.5459 H         1 UNK         0.0600 
    203 H203       -7.7429  -18.7076  -45.9337 H         1 UNK         0.0600 
    204 H204       -8.0399  -19.7162  -47.3496 H         1 UNK         0.0600 
    205 H205       -3.5773  -20.0174  -47.5708 H         1 UNK         0.3000 
    206 H206       -2.2713  -20.4095  -49.3202 H         1 UNK         0.0600 
    207 H207       -4.1924  -18.8654  -51.1355 H         1 UNK         0.0600 
    208 H208       -2.4782  -19.1665  -51.3872 H         1 UNK         0.0600 
    209 H209       -3.0005  -18.0893  -50.1045 H         1 UNK         0.0600 
    210 H210       -3.9813  -22.2994  -48.4583 H         1 UNK         0.3000 
    211 H211       -4.9230  -24.2792  -48.8145 H         1 UNK         0.0600 
    212 H212       -2.7842  -24.8434  -49.9089 H         1 UNK         0.0600 
    213 H213       -4.1035  -25.6697  -50.7188 H         1 UNK         0.0600 
    214 H214       -3.3736  -24.2522  -51.4590 H         1 UNK         0.0600 
    215 H215       -6.7259  -22.4957  -48.9728 H         1 UNK         0.3000 
    216 H216       -8.6866  -21.7922  -49.6568 H         1 UNK         0.0600 
    217 H217      -10.2252  -23.3756  -50.7624 H         1 UNK         0.0600 
    218 H218       -8.8854  -24.4011  -51.2550 H         1 UNK         0.0600 
    219 H219       -9.2769  -24.2153  -49.5459 H         1 UNK         0.0600 
    220 H220       -6.7862  -20.4670  -50.8375 H         1 UNK         0.3000 
    221 H221       -6.1751  -19.0927  -52.4250 H         1 UNK         0.0600 
    222 H222       -8.9975  -19.3988  -53.5670 H         1 UNK         0.0600 
    223 H223       -8.5550  -18.3524  -52.2181 H         1 UNK         0.0600 
    224 H224       -7.9051  -18.0448  -53.8187 H         1 UNK         0.0600 
    225 H225       -5.5991  -21.9225  -52.9317 H         1 UNK         0.3000 
    226 H226       -5.6511  -22.2907  -55.8340 H         1 UNK         0.0600 
    227 H227       -5.8168  -24.2396  -54.3105 H         1 UNK         0.0600 
    228 H228       -4.3636  -24.3525  -55.2906 H         1 UNK         0.0600 
    229 H229       -4.2458  -23.8524  -53.6083 H         1 UNK         0.0600 
    230 H230       -3.5408  -20.8595  -53.4804 H         1 UNK         0.3000 
    231 H231       -1.6391  -19.7022  -53.5406 H         1 UNK         0.0600 
    232 H232       -0.7392  -18.7214  -55.6029 H         1 UNK         0.0600 
    233 H233       -2.4849  -18.5265  -55.5605 H         1 UNK         0.0600 
    234 H234       -1.7551  -19.7485  -56.5999 H         1 UNK         0.0600 
    235 H235       -1.1236  -21.7955  -52.5874 H         1 UNK         0.3000 
    236 H236        0.1176  -23.9495  -53.7324 H         1 UNK         0.0600 
    237 H237       -0.7793  -23.8417  -51.4154 H         1 UNK         0.0600 
    238 H238        0.8739  -24.4318  -51.3960 H         1 UNK         0.0600 
    239 H239        0.5376  -22.7665  -50.9398 H         1 UNK         0.0600 
    240 H240        1.6213  -20.8703  -53.3779 H         1 UNK         0.3000 
    241 H241        4.3726  -21.6162  -53.3336 H         1 UNK         0.0600 
    242 H242        3.2156  -22.1223  -57.2350 H         1 UNK         0.3800 
    243 H243        2.0200  -21.7684  -56.0095 H         1 UNK         0.3800 
    244 H244        4.8655  -19.3425  -54.0002 H         1 UNK         0.0800 
    245 H245        3.2699  -19.0845  -54.6405 H         1 UNK         0.0800 
    246 H246        1.1002  -18.9216  -53.2251 H         1 UNK         0.0800 
    247 H247        1.9007  -17.3815  -53.4293 H         1 UNK         0.0800 
@<TRIPOS>BOND
     1    1    2 1    
     2    1  127 1    
     3    1  128 1    
     4    1  129 1    
     5    2    3 2    
     6    2    4 am   BACKBONE|DICT|INTERRES
     7    4    5 1    
     8    4  130 1    
     9    5    6 1    
    10    5   65 1    
    11    5  131 1    
    12    6    7 1    
    13    6  132 1    
    14    6  133 1    
    15    7    8 1    
    16    8    9 1    
    17    8  134 1    
    18    8  135 1    
    19    9   10 ar   
    20    9   14 ar   
    21   10   11 ar   
    22   10  136 1    
    23   11   12 ar   
    24   11  126 1    
    25   12   13 ar   
    26   12  137 1    
    27   13   14 ar   
    28   13   15 1    
    29   14  138 1    
    30   15   16 1    
    31   15  139 1    
    32   15  140 1    
    33   16   17 1    
    34   17   18 1    
    35   17  141 1    
    36   17  142 1    
    37   18   19 1    
    38   18   67 1    
    39   18  143 1    
    40   19   20 am   BACKBONE|DICT|INTERRES
    41   19  144 1    
    42   20   21 2    
    43   20   22 1    
    44   22   23 1    
    45   22   24 1    
    46   22  145 1    
    47   23  146 1    
    48   23  147 1    
    49   23  148 1    
    50   24   25 am   BACKBONE|DICT|INTERRES
    51   24  149 1    
    52   25   26 2    
    53   25   27 1    
    54   27   28 1    
    55   27   29 1    
    56   27  150 1    
    57   28  151 1    
    58   28  152 1    
    59   28  153 1    
    60   29   30 am   BACKBONE|DICT|INTERRES
    61   29  154 1    
    62   30   31 2    
    63   30   32 1    
    64   32   33 1    
    65   32   34 1    
    66   32  155 1    
    67   33  156 1    
    68   33  157 1    
    69   33  158 1    
    70   34   35 am   BACKBONE|DICT|INTERRES
    71   34  159 1    
    72   35   36 2    
    73   35   37 1    
    74   37   38 1    
    75   37   39 1    
    76   37  160 1    
    77   38  161 1    
    78   38  162 1    
    79   38  163 1    
    80   39   40 am   BACKBONE|DICT|INTERRES
    81   39  164 1    
    82   40   41 2    
    83   40   42 1    
    84   42   43 1    
    85   42   44 1    
    86   42  165 1    
    87   43  166 1    
    88   43  167 1    
    89   43  168 1    
    90   44   45 am   BACKBONE|DICT|INTERRES
    91   44  169 1    
    92   45   46 2    
    93   45   47 1    
    94   47   48 1    
    95   47   49 1    
    96   47  170 1    
    97   48  171 1    
    98   48  172 1    
    99   48  173 1    
   100   49   50 am   BACKBONE|DICT|INTERRES
   101   49  174 1    
   102   50   51 2    
   103   50   52 1    
   104   52   53 1    
   105   52   54 1    
   106   52  175 1    
   107   53  176 1    
   108   53  177 1    
   109   53  178 1    
   110   54   55 am   BACKBONE|DICT|INTERRES
   111   54  179 1    
   112   55   56 2    
   113   55   57 1    
   114   57   58 1    
   115   57   59 1    
   116   57  180 1    
   117   58  181 1    
   118   58  182 1    
   119   58  183 1    
   120   59   60 am   BACKBONE|DICT|INTERRES
   121   59  184 1    
   122   60   61 2    
   123   60   62 1    
   124   62   63 1    
   125   62   64 1    
   126   62  185 1    
   127   63  186 1    
   128   63  187 1    
   129   63  188 1    
   130   64   65 am   BACKBONE|DICT|INTERRES
   131   64  189 1    
   132   65   66 2    
   133   67   68 2    
   134   67   69 am   BACKBONE|DICT|INTERRES
   135   69   70 1    
   136   69  190 1    
   137   70   71 1    
   138   70   72 1    
   139   70  191 1    
   140   71  192 1    
   141   71  193 1    
   142   71  194 1    
   143   72   73 2    
   144   72   74 am   BACKBONE|DICT|INTERRES
   145   74   75 1    
   146   74  195 1    
   147   75   76 1    
   148   75   77 1    
   149   75  196 1    
   150   76  197 1    
   151   76  198 1    
   152   76  199 1    
   153   77   78 2    
   154   77   79 am   BACKBONE|DICT|INTERRES
   155   79   80 1    
   156   79  200 1    
   157   80   81 1    
   158   80   82 1    
   159   80  201 1    
   160   81  202 1    
   161   81  203 1    
   162   81  204 1    
   163   82   83 2    
   164   82   84 am   BACKBONE|DICT|INTERRES
   165   84   85 1    
   166   84  205 1    
   167   85   86 1    
   168   85   87 1    
   169   85  206 1    
   170   86  207 1    
   171   86  208 1    
   172   86  209 1    
   173   87   88 2    
   174   87   89 am   BACKBONE|DICT|INTERRES
   175   89   90 1    
   176   89  210 1    
   177   90   91 1    
   178   90   92 1    
   179   90  211 1    
   180   91  212 1    
   181   91  213 1    
   182   91  214 1    
   183   92   93 2    
   184   92   94 am   BACKBONE|DICT|INTERRES
   185   94   95 1    
   186   94  215 1    
   187   95   96 1    
   188   95   97 1    
   189   95  216 1    
   190   96  217 1    
   191   96  218 1    
   192   96  219 1    
   193   97   98 2    
   194   97   99 am   BACKBONE|DICT|INTERRES
   195   99  100 1    
   196   99  220 1    
   197  100  101 1    
   198  100  102 1    
   199  100  221 1    
   200  101  222 1    
   201  101  223 1    
   202  101  224 1    
   203  102  103 2    
   204  102  104 am   BACKBONE|DICT|INTERRES
   205  104  105 1    
   206  104  225 1    
   207  105  106 1    
   208  105  107 1    
   209  105  226 1    
   210  106  227 1    
   211  106  228 1    
   212  106  229 1    
   213  107  108 2    
   214  107  109 am   BACKBONE|DICT|INTERRES
   215  109  110 1    
   216  109  230 1    
   217  110  111 1    
   218  110  112 1    
   219  110  231 1    
   220  111  232 1    
   221  111  233 1    
   222  111  234 1    
   223  112  113 2    
   224  112  114 am   BACKBONE|DICT|INTERRES
   225  114  115 1    
   226  114  235 1    
   227  115  116 1    
   228  115  117 1    
   229  115  236 1    
   230  116  237 1    
   231  116  238 1    
   232  116  239 1    
   233  117  118 2    
   234  117  119 am   BACKBONE|DICT|INTERRES
   235  119  120 1    
   236  119  240 1    
   237  120  121 1    
   238  120  124 1    
   239  120  241 1    
   240  121  122 am   BACKBONE|DICT|INTERRES
   241  121  123 2    
   242  122  242 1    
   243  122  243 1    
   244  124  125 1    
   245  124  244 1    
   246  124  245 1    
   247  125  126 1    
   248  126  246 1    
   249  126  247 1    
@<TRIPOS>SUBSTRUCTURE
     1 UNK         1 GROUP             0       ****    0 ROOT    
