@<TRIPOS>MOLECULE
3R540
247   249    1
SMALL
USER_CHARGES


@<TRIPOS>ATOM
      1 CA         -6.0338  -16.3031  -45.3684 C.3       0 UNK        -0.1800 
      2 C          -5.4707  -14.9119  -45.1113 C.2       0 UNK         0.5000 
      3 O          -5.9345  -14.2125  -44.2102 O.2       0 UNK        -0.5000 
      4 N          -4.4743  -14.5126  -45.9086 N.am      1 UNK        -0.5000 
      5 CA         -3.6997  -13.2776  -45.7534 C.3       1 UNK         0.1400 
      6 C6         -3.0369  -12.8478  -47.0922 C.3       23 UNK        -0.0398 
      7 S7         -2.0993  -14.1778  -47.9277 S.3       23 UNK        -0.2404 
      8 C8         -3.1285  -14.4605  -49.4025 C.3       23 UNK        -0.0205 
      9 C9         -2.8935  -15.8318  -50.0206 C.ar      23 UNK        -0.0193 
     10 C10        -1.6393  -16.1745  -50.5350 C.ar      23 UNK        -0.1150 
     11 C11        -1.4422  -17.4106  -51.1551 C.ar      23 UNK        -0.0193 
     12 C12        -2.5067  -18.3112  -51.2420 C.ar      23 UNK        -0.1150 
     13 C13        -3.7683  -17.9893  -50.7357 C.ar      23 UNK        -0.0193 
     14 C14        -3.9516  -16.7407  -50.1269 C.ar      23 UNK        -0.1150 
     15 C15        -4.8992  -19.0016  -50.9338 C.3       23 UNK        -0.0205 
     16 S16        -6.4314  -18.7264  -49.9750 S.3       23 UNK        -0.2404 
     17 C17        -5.9306  -18.8716  -48.2244 C.3       23 UNK        -0.0398 
     18 CA         -5.3162  -20.2423  -47.8438 C.3       11 UNK         0.1400 
     19 N          -3.8901  -20.3033  -48.1823 N.am      11 UNK        -0.5000 
     20 C          -3.0960  -21.3728  -48.0448 C.2       10 UNK         0.5000 
     21 O          -3.5005  -22.4795  -47.6989 O.2       10 UNK        -0.5000 
     22 CA         -1.5914  -21.1710  -48.2914 C.3       10 UNK         0.1400 
     23 CB         -1.2390  -21.6071  -49.7149 C.3       10 UNK        -0.1800 
     24 N          -1.1270  -19.7988  -48.0623 N.am      10 UNK        -0.5000 
     25 C          -1.2557  -19.1371  -46.9053 C.2       9 UNK         0.5000 
     26 O          -1.8149  -19.6118  -45.9150 O.2       9 UNK        -0.5000 
     27 CA         -0.6643  -17.7220  -46.8455 C.3       9 UNK         0.1400 
     28 CB         -1.4227  -16.8469  -45.8388 C.3       9 UNK        -0.1800 
     29 N           0.7333  -17.7868  -46.4439 N.am      9 UNK        -0.5000 
     30 C           1.7494  -18.1849  -47.2191 C.2       8 UNK         0.5000 
     31 O           1.6280  -18.4605  -48.4135 O.2       8 UNK        -0.5000 
     32 CA          3.1290  -18.3049  -46.5467 C.3       8 UNK         0.1400 
     33 CB          4.0673  -17.1840  -47.0200 C.3       8 UNK        -0.1800 
     34 N           3.0281  -18.2717  -45.0839 N.am      8 UNK        -0.5000 
     35 C           2.8949  -19.3618  -44.3139 C.2       7 UNK         0.5000 
     36 O           2.9000  -20.5118  -44.7534 O.2       7 UNK        -0.5000 
     37 CA          2.7216  -19.1389  -42.8005 C.3       7 UNK         0.1400 
     38 CB          4.0891  -19.1379  -42.1025 C.3       7 UNK        -0.1800 
     39 N           2.0051  -17.8988  -42.4928 N.am      7 UNK        -0.5000 
     40 C           0.6729  -17.7663  -42.5865 C.2       6 UNK         0.5000 
     41 O          -0.0662  -18.6953  -42.9101 O.2       6 UNK        -0.5000 
     42 CA          0.0531  -16.3774  -42.3170 C.3       6 UNK         0.1400 
     43 CB         -1.2760  -16.4596  -41.5390 C.3       6 UNK        -0.1800 
     44 N           0.9724  -15.4107  -41.7130 N.am      6 UNK        -0.5000 
     45 C           1.4875  -15.3956  -40.4764 C.2       5 UNK         0.5000 
     46 O           1.2110  -16.2128  -39.5976 O.2       5 UNK        -0.5000 
     47 CA          2.5113  -14.2690  -40.2128 C.3       5 UNK         0.1400 
     48 CB          3.3737  -14.5084  -38.9556 C.3       5 UNK        -0.1800 
     49 N           3.3471  -13.9969  -41.3918 N.am      5 UNK        -0.5000 
     50 C           4.1895  -14.8533  -41.9900 C.2       4 UNK         0.5000 
     51 O           4.4250  -15.9830  -41.5638 O.2       4 UNK        -0.5000 
     52 CA          4.8157  -14.3818  -43.3197 C.3       4 UNK         0.1400 
     53 CB          5.5756  -15.5044  -44.0559 C.3       4 UNK        -0.1800 
     54 N           3.8343  -13.7504  -44.2109 N.am      4 UNK        -0.5000 
     55 C           2.7079  -14.2935  -44.6955 C.2       3 UNK         0.5000 
     56 O           2.3476  -15.4544  -44.4854 O.2       3 UNK        -0.5000 
     57 CA          1.8138  -13.3565  -45.5305 C.3       3 UNK         0.1400 
     58 CB          1.5210  -13.9659  -46.9107 C.3       3 UNK        -0.1800 
     59 N           0.5449  -13.0242  -44.8742 N.am      3 UNK        -0.5000 
     60 C           0.3831  -12.5384  -43.6331 C.2       2 UNK         0.5000 
     61 O           1.3142  -12.3679  -42.8449 O.2       2 UNK        -0.5000 
     62 CA         -1.0453  -12.1569  -43.1846 C.3       2 UNK         0.1400 
     63 CB         -1.0793  -10.7253  -42.6233 C.3       2 UNK        -0.1800 
     64 N          -2.0498  -12.2600  -44.2476 N.am      2 UNK        -0.5000 
     65 C          -2.6770  -13.3896  -44.5970 C.2       1 UNK         0.5000 
     66 O          -2.4549  -14.4725  -44.0534 O.2       1 UNK        -0.5000 
     67 C          -5.5757  -20.5555  -46.3525 C.2       11 UNK         0.5000 
     68 O          -6.5937  -21.1725  -46.0388 O.2       11 UNK        -0.5000 
     69 N          -4.6505  -20.1486  -45.4731 N.am      12 UNK        -0.5000 
     70 CA         -4.6878  -20.4372  -44.0424 C.3       12 UNK         0.1400 
     71 CB         -4.1451  -19.2236  -43.2680 C.3       12 UNK        -0.1800 
     72 C          -3.8686  -21.6963  -43.7158 C.2       12 UNK         0.5000 
     73 O          -4.3431  -22.5559  -42.9730 O.2       12 UNK        -0.5000 
     74 N          -2.6495  -21.7750  -44.2653 N.am      13 UNK        -0.5000 
     75 CA         -1.6493  -22.7834  -43.9167 C.3       13 UNK         0.1400 
     76 CB         -0.2652  -22.2783  -44.3544 C.3       13 UNK        -0.1800 
     77 C          -1.9172  -24.1857  -44.4953 C.2       13 UNK         0.5000 
     78 O          -1.4777  -25.1670  -43.8940 O.2       13 UNK        -0.5000 
     79 N          -2.5949  -24.2676  -45.6477 N.am      14 UNK        -0.5000 
     80 CA         -2.7658  -25.5024  -46.4192 C.3       14 UNK         0.1400 
     81 CB         -1.6605  -25.5685  -47.4907 C.3       14 UNK        -0.1800 
     82 C          -4.1655  -25.6261  -47.0488 C.2       14 UNK         0.5000 
     83 O          -4.3433  -26.4400  -47.9551 O.2       14 UNK        -0.5000 
     84 N          -5.1276  -24.8017  -46.6052 N.am      15 UNK        -0.5000 
     85 CA         -6.5048  -24.7080  -47.1160 C.3       15 UNK         0.1400 
     86 CB         -7.3137  -25.9547  -46.7021 C.3       15 UNK        -0.1800 
     87 C          -6.5859  -24.4218  -48.6362 C.2       15 UNK         0.5000 
     88 O          -7.4991  -24.9006  -49.3098 O.2       15 UNK        -0.5000 
     89 N          -5.6040  -23.6606  -49.1409 N.am      16 UNK        -0.5000 
     90 CA         -5.3691  -23.2633  -50.5332 C.3       16 UNK         0.1400 
     91 CB         -6.5792  -22.5116  -51.1241 C.3       16 UNK        -0.1800 
     92 C          -4.8828  -24.4008  -51.4552 C.2       16 UNK         0.5000 
     93 O          -4.7455  -24.1714  -52.6572 O.2       16 UNK        -0.5000 
     94 N          -4.5791  -25.5871  -50.9059 N.am      17 UNK        -0.5000 
     95 CA         -4.0965  -26.7417  -51.6730 C.3       17 UNK         0.1400 
     96 CB         -4.2025  -28.0082  -50.8108 C.3       17 UNK        -0.1800 
     97 C          -2.6563  -26.5702  -52.1965 C.2       17 UNK         0.5000 
     98 O          -2.2979  -27.1926  -53.1966 O.2       17 UNK        -0.5000 
     99 N          -1.8668  -25.7279  -51.5181 N.am      18 UNK        -0.5000 
    100 CA        -0.4669  -25.4331  -51.8298 C.3       18 UNK         0.1400 
    101 CB         0.3787  -25.6952  -50.5701 C.3       18 UNK        -0.1800 
    102 C         -0.2847  -23.9914  -52.3472 C.2       18 UNK         0.5000 
    103 O          0.8125  -23.4448  -52.2300 O.2       18 UNK        -0.5000 
    104 N         -1.3571  -23.3829  -52.8807 N.am      19 UNK        -0.5000 
    105 CA        -1.3798  -21.9971  -53.3616 C.3       19 UNK         0.1400 
    106 CB        -2.8168  -21.6044  -53.7383 C.3       19 UNK        -0.1800 
    107 C         -0.4042  -21.7167  -54.5173 C.2       19 UNK         0.5000 
    108 O          0.2467  -20.6715  -54.5065 O.2       19 UNK        -0.5000 
    109 N         -0.3038  -22.6622  -55.4647 N.am      20 UNK        -0.5000 
    110 CA         0.6118  -22.6694  -56.6115 C.3       20 UNK         0.1400 
    111 CB         2.0367  -23.0319  -56.1366 C.3       20 UNK        -0.1800 
    112 C          0.5390  -21.3596  -57.4271 C.2       20 UNK         0.5000 
    113 O         -0.4706  -21.1198  -58.0919 O.2       20 UNK        -0.5000 
    114 N          1.5778  -20.5185  -57.3239 N.am      21 UNK        -0.5000 
    115 CA         1.6851  -19.1991  -57.9517 C.3       21 UNK         0.1400 
    116 CB         3.0825  -18.6272  -57.6674 C.3       21 UNK        -0.1800 
    117 C          0.5947  -18.1955  -57.5209 C.2       21 UNK         0.5000 
    118 O          0.2923  -17.2791  -58.2868 O.2       21 UNK        -0.5000 
    119 N          0.0087  -18.3897  -56.3315 N.am      22 UNK        -0.5000 
    120 CA        -1.1672  -17.6428  -55.8569 C.3       22 UNK         0.1400 
    121 C         -2.5054  -18.0733  -56.5322 C.2       22 UNK         0.5000 
    122 N         -2.5615  -19.1540  -57.3037 N.am      22 UNK        -0.7600 
    123 O         -3.5197  -17.4039  -56.3577 O.2       22 UNK        -0.5000 
    124 C124       -1.3078  -17.6866  -54.3144 C.3       23 UNK        -0.0398 
    125 S125        0.1240  -17.0004  -53.4135 S.3       23 UNK        -0.2404 
    126 C126       -0.0935  -17.7613  -51.7691 C.3       23 UNK        -0.0205 
    127 H127       -6.8295  -16.2579  -46.1119 H         1 UNK         0.0600 
    128 H128       -6.4461  -16.7238  -44.4512 H         1 UNK         0.0600 
    129 H129       -5.2587  -16.9803  -45.7272 H         1 UNK         0.0600 
    130 H130       -4.1186  -15.1423  -46.6121 H         1 UNK         0.3000 
    131 H131       -4.3942  -12.4842  -45.4686 H         1 UNK         0.0600 
    132 H132       -3.8130  -12.4829  -47.7659 H         1 UNK         0.0800 
    133 H133       -2.3712  -11.9949  -46.9532 H         1 UNK         0.0800 
    134 H134       -2.9125  -13.6893  -50.1430 H         1 UNK         0.0800 
    135 H135       -4.1807  -14.3471  -49.1370 H         1 UNK         0.0800 
    136 H136       -0.8234  -15.4678  -50.4743 H         1 UNK         0.1150 
    137 H137       -2.3624  -19.2556  -51.7450 H         1 UNK         0.1150 
    138 H138       -4.9251  -16.4534  -49.7587 H         1 UNK         0.1150 
    139 H139       -5.1713  -18.9847  -51.9900 H         1 UNK         0.0800 
    140 H140       -4.5374  -20.0115  -50.7432 H         1 UNK         0.0800 
    141 H141       -6.8416  -18.6831  -47.6524 H         1 UNK         0.0800 
    142 H142       -5.2549  -18.0562  -47.9657 H         1 UNK         0.0800 
    143 H143       -5.8276  -21.0187  -48.4130 H         1 UNK         0.0600 
    144 H144       -3.4647  -19.4387  -48.4822 H         1 UNK         0.3000 
    145 H145       -1.0568  -21.8198  -47.5963 H         1 UNK         0.0600 
    146 H146       -1.4809  -22.6592  -49.8688 H         1 UNK         0.0600 
    147 H147       -0.1761  -21.4828  -49.9239 H         1 UNK         0.0600 
    148 H148       -1.8021  -21.0330  -50.4469 H         1 UNK         0.0600 
    149 H149       -0.5964  -19.3640  -48.8054 H         1 UNK         0.3000 
    150 H150       -0.7374  -17.2575  -47.8313 H         1 UNK         0.0600 
    151 H151       -2.4576  -16.7048  -46.1497 H         1 UNK         0.0600 
    152 H152       -0.9650  -15.8626  -45.7540 H         1 UNK         0.0600 
    153 H153       -1.4449  -17.2861  -44.8418 H         1 UNK         0.0600 
    154 H154        0.9290  -17.6069  -45.4708 H         1 UNK         0.3000 
    155 H155        3.5624  -19.2548  -46.8660 H         1 UNK         0.0600 
    156 H156        3.6973  -16.1993  -46.7397 H         1 UNK         0.0600 
    157 H157        4.1732  -17.1958  -48.1054 H         1 UNK         0.0600 
    158 H158        5.0649  -17.3017  -46.5973 H         1 UNK         0.0600 
    159 H159        2.9675  -17.3513  -44.6586 H         1 UNK         0.3000 
    160 H160        2.1473  -19.9786  -42.4027 H         1 UNK         0.0600 
    161 H161        4.7596  -18.3915  -42.5291 H         1 UNK         0.0600 
    162 H162        4.5771  -20.1077  -42.2063 H         1 UNK         0.0600 
    163 H163        3.9915  -18.9338  -41.0360 H         1 UNK         0.0600 
    164 H164        2.5661  -17.0994  -42.2261 H         1 UNK         0.3000 
    165 H165       -0.1768  -15.9647  -43.2993 H         1 UNK         0.0600 
    166 H166       -1.6949  -15.4678  -41.3690 H         1 UNK         0.0600 
    167 H167       -1.1539  -16.9477  -40.5721 H         1 UNK         0.0600 
    168 H168       -2.0191  -17.0279  -42.0997 H         1 UNK         0.0600 
    169 H169        1.3245  -14.7113  -42.3530 H         1 UNK         0.3000 
    170 H170        1.9260  -13.3645  -40.0411 H         1 UNK         0.0600 
    171 H171        2.7513  -14.5610  -38.0616 H         1 UNK         0.0600 
    172 H172        3.9340  -15.4417  -39.0159 H         1 UNK         0.0600 
    173 H173        4.0865  -13.6975  -38.8064 H         1 UNK         0.0600 
    174 H174        3.1470  -13.1220  -41.8631 H         1 UNK         0.3000 
    175 H175        5.5406  -13.6094  -43.0591 H         1 UNK         0.0600 
    176 H176        4.9303  -16.3541  -44.2734 H         1 UNK         0.0600 
    177 H177        5.9928  -15.1491  -44.9980 H         1 UNK         0.0600 
    178 H178        6.4048  -15.8743  -43.4519 H         1 UNK         0.0600 
    179 H179        4.0157  -12.7788  -44.4219 H         1 UNK         0.3000 
    180 H180        2.3468  -12.4171  -45.6891 H         1 UNK         0.0600 
    181 H181        0.9583  -14.8961  -46.8323 H         1 UNK         0.0600 
    182 H182        2.4453  -14.1868  -47.4454 H         1 UNK         0.0600 
    183 H183        0.9460  -13.2796  -47.5325 H         1 UNK         0.0600 
    184 H184       -0.2852  -13.1576  -45.4308 H         1 UNK         0.3000 
    185 H185       -1.3132  -12.8386  -42.3744 H         1 UNK         0.0600 
    186 H186       -0.3980  -10.6153  -41.7786 H         1 UNK         0.0600 
    187 H187       -0.7899   -9.9911  -43.3762 H         1 UNK         0.0600 
    188 H188       -2.0760  -10.4655  -42.2658 H         1 UNK         0.0600 
    189 H189       -2.2726  -11.4001  -44.7284 H         1 UNK         0.3000 
    190 H190       -3.7975  -19.7188  -45.8136 H         1 UNK         0.3000 
    191 H191       -5.7168  -20.6076  -43.7185 H         1 UNK         0.0600 
    192 H192       -4.1564  -19.4095  -42.1934 H         1 UNK         0.0600 
    193 H193       -4.7509  -18.3366  -43.4498 H         1 UNK         0.0600 
    194 H194       -3.1173  -18.9872  -43.5475 H         1 UNK         0.0600 
    195 H195       -2.3276  -21.0045  -44.8471 H         1 UNK         0.3000 
    196 H196       -1.6370  -22.8805  -42.8290 H         1 UNK         0.0600 
    197 H197       -0.2047  -22.1467  -45.4342 H         1 UNK         0.0600 
    198 H198       -0.0297  -21.3200  -43.8906 H         1 UNK         0.0600 
    199 H199        0.5191  -22.9788  -44.0651 H         1 UNK         0.0600 
    200 H200       -2.9153  -23.4193  -46.1042 H         1 UNK         0.3000 
    201 H201       -2.6627  -26.3701  -45.7649 H         1 UNK         0.0600 
    202 H202       -1.7430  -24.7395  -48.1940 H         1 UNK         0.0600 
    203 H203       -1.7129  -26.4953  -48.0634 H         1 UNK         0.0600 
    204 H204       -0.6691  -25.5267  -47.0395 H         1 UNK         0.0600 
    205 H205       -4.8888  -24.1578  -45.8649 H         1 UNK         0.3000 
    206 H206       -6.9556  -23.8455  -46.6240 H         1 UNK         0.0600 
    207 H207       -7.2555  -26.1228  -45.6268 H         1 UNK         0.0600 
    208 H208       -8.3686  -25.8398  -46.9539 H         1 UNK         0.0600 
    209 H209       -6.9538  -26.8544  -47.2023 H         1 UNK         0.0600 
    210 H210       -4.8870  -23.3475  -48.4891 H         1 UNK         0.3000 
    211 H211       -4.5423  -22.5538  -50.4927 H         1 UNK         0.0600 
    212 H212       -6.3162  -22.0301  -52.0667 H         1 UNK         0.0600 
    213 H213       -6.9327  -21.7312  -50.4516 H         1 UNK         0.0600 
    214 H214       -7.4145  -23.1823  -51.3259 H         1 UNK         0.0600 
    215 H215       -4.6991  -25.7234  -49.9077 H         1 UNK         0.3000 
    216 H216       -4.7494  -26.8687  -52.5392 H         1 UNK         0.0600 
    217 H217       -3.5188  -27.9755  -49.9619 H         1 UNK         0.0600 
    218 H218       -3.9562  -28.8970  -51.3930 H         1 UNK         0.0600 
    219 H219       -5.2130  -28.1416  -50.4238 H         1 UNK         0.0600 
    220 H220       -2.2593  -25.2569  -50.7166 H         1 UNK         0.3000 
    221 H221       -0.1050  -26.0956  -52.6184 H         1 UNK         0.0600 
    222 H222        0.2081  -26.6988  -50.1802 H         1 UNK         0.0600 
    223 H223        0.1510  -24.9826  -49.7770 H         1 UNK         0.0600 
    224 H224        1.4442  -25.6118  -50.7880 H         1 UNK         0.0600 
    225 H225       -2.2223  -23.9012  -52.9480 H         1 UNK         0.3000 
    226 H226       -1.0609  -21.3562  -52.5403 H         1 UNK         0.0600 
    227 H227       -3.2343  -22.2790  -54.4867 H         1 UNK         0.0600 
    228 H228       -3.4713  -21.6263  -52.8670 H         1 UNK         0.0600 
    229 H229       -2.8615  -20.5959  -54.1497 H         1 UNK         0.0600 
    230 H230       -0.9070  -23.4680  -55.3847 H         1 UNK         0.3000 
    231 H231        0.2739  -23.4632  -57.2793 H         1 UNK         0.0600 
    232 H232        2.4211  -22.3224  -55.4028 H         1 UNK         0.0600 
    233 H233        2.7365  -23.0647  -56.9727 H         1 UNK         0.0600 
    234 H234        2.0490  -24.0176  -55.6712 H         1 UNK         0.0600 
    235 H235        2.3393  -20.7851  -56.7172 H         1 UNK         0.3000 
    236 H236        1.5860  -19.3406  -59.0298 H         1 UNK         0.0600 
    237 H237        3.8642  -19.2840  -58.0496 H         1 UNK         0.0600 
    238 H238        3.2129  -17.6561  -58.1468 H         1 UNK         0.0600 
    239 H239        3.2494  -18.4904  -56.5981 H         1 UNK         0.0600 
    240 H240        0.3011  -19.1717  -55.7523 H         1 UNK         0.3000 
    241 H241       -1.0236  -16.5963  -56.1322 H         1 UNK         0.0600 
    242 H242       -1.7411  -19.7215  -57.4891 H         1 UNK         0.3800 
    243 H243       -3.4384  -19.4028  -57.7326 H         1 UNK         0.3800 
    244 H244       -2.1873  -17.1233  -53.9965 H         1 UNK         0.0800 
    245 H245       -1.4679  -18.7123  -53.9861 H         1 UNK         0.0800 
    246 H246        0.0208  -18.8432  -51.8559 H         1 UNK         0.0800 
    247 H247        0.7074  -17.4230  -51.1097 H         1 UNK         0.0800 
@<TRIPOS>BOND
     1    1    2 1    
     2    1  127 1    
     3    1  128 1    
     4    1  129 1    
     5    2    3 2    
     6    2    4 am   BACKBONE|DICT|INTERRES
     7    4    5 1    
     8    4  130 1    
     9    5    6 1    
    10    5   65 1    
    11    5  131 1    
    12    6    7 1    
    13    6  132 1    
    14    6  133 1    
    15    7    8 1    
    16    8    9 1    
    17    8  134 1    
    18    8  135 1    
    19    9   10 ar   
    20    9   14 ar   
    21   10   11 ar   
    22   10  136 1    
    23   11   12 ar   
    24   11  126 1    
    25   12   13 ar   
    26   12  137 1    
    27   13   14 ar   
    28   13   15 1    
    29   14  138 1    
    30   15   16 1    
    31   15  139 1    
    32   15  140 1    
    33   16   17 1    
    34   17   18 1    
    35   17  141 1    
    36   17  142 1    
    37   18   19 1    
    38   18   67 1    
    39   18  143 1    
    40   19   20 am   BACKBONE|DICT|INTERRES
    41   19  144 1    
    42   20   21 2    
    43   20   22 1    
    44   22   23 1    
    45   22   24 1    
    46   22  145 1    
    47   23  146 1    
    48   23  147 1    
    49   23  148 1    
    50   24   25 am   BACKBONE|DICT|INTERRES
    51   24  149 1    
    52   25   26 2    
    53   25   27 1    
    54   27   28 1    
    55   27   29 1    
    56   27  150 1    
    57   28  151 1    
    58   28  152 1    
    59   28  153 1    
    60   29   30 am   BACKBONE|DICT|INTERRES
    61   29  154 1    
    62   30   31 2    
    63   30   32 1    
    64   32   33 1    
    65   32   34 1    
    66   32  155 1    
    67   33  156 1    
    68   33  157 1    
    69   33  158 1    
    70   34   35 am   BACKBONE|DICT|INTERRES
    71   34  159 1    
    72   35   36 2    
    73   35   37 1    
    74   37   38 1    
    75   37   39 1    
    76   37  160 1    
    77   38  161 1    
    78   38  162 1    
    79   38  163 1    
    80   39   40 am   BACKBONE|DICT|INTERRES
    81   39  164 1    
    82   40   41 2    
    83   40   42 1    
    84   42   43 1    
    85   42   44 1    
    86   42  165 1    
    87   43  166 1    
    88   43  167 1    
    89   43  168 1    
    90   44   45 am   BACKBONE|DICT|INTERRES
    91   44  169 1    
    92   45   46 2    
    93   45   47 1    
    94   47   48 1    
    95   47   49 1    
    96   47  170 1    
    97   48  171 1    
    98   48  172 1    
    99   48  173 1    
   100   49   50 am   BACKBONE|DICT|INTERRES
   101   49  174 1    
   102   50   51 2    
   103   50   52 1    
   104   52   53 1    
   105   52   54 1    
   106   52  175 1    
   107   53  176 1    
   108   53  177 1    
   109   53  178 1    
   110   54   55 am   BACKBONE|DICT|INTERRES
   111   54  179 1    
   112   55   56 2    
   113   55   57 1    
   114   57   58 1    
   115   57   59 1    
   116   57  180 1    
   117   58  181 1    
   118   58  182 1    
   119   58  183 1    
   120   59   60 am   BACKBONE|DICT|INTERRES
   121   59  184 1    
   122   60   61 2    
   123   60   62 1    
   124   62   63 1    
   125   62   64 1    
   126   62  185 1    
   127   63  186 1    
   128   63  187 1    
   129   63  188 1    
   130   64   65 am   BACKBONE|DICT|INTERRES
   131   64  189 1    
   132   65   66 2    
   133   67   68 2    
   134   67   69 am   BACKBONE|DICT|INTERRES
   135   69   70 1    
   136   69  190 1    
   137   70   71 1    
   138   70   72 1    
   139   70  191 1    
   140   71  192 1    
   141   71  193 1    
   142   71  194 1    
   143   72   73 2    
   144   72   74 am   BACKBONE|DICT|INTERRES
   145   74   75 1    
   146   74  195 1    
   147   75   76 1    
   148   75   77 1    
   149   75  196 1    
   150   76  197 1    
   151   76  198 1    
   152   76  199 1    
   153   77   78 2    
   154   77   79 am   BACKBONE|DICT|INTERRES
   155   79   80 1    
   156   79  200 1    
   157   80   81 1    
   158   80   82 1    
   159   80  201 1    
   160   81  202 1    
   161   81  203 1    
   162   81  204 1    
   163   82   83 2    
   164   82   84 am   BACKBONE|DICT|INTERRES
   165   84   85 1    
   166   84  205 1    
   167   85   86 1    
   168   85   87 1    
   169   85  206 1    
   170   86  207 1    
   171   86  208 1    
   172   86  209 1    
   173   87   88 2    
   174   87   89 am   BACKBONE|DICT|INTERRES
   175   89   90 1    
   176   89  210 1    
   177   90   91 1    
   178   90   92 1    
   179   90  211 1    
   180   91  212 1    
   181   91  213 1    
   182   91  214 1    
   183   92   93 2    
   184   92   94 am   BACKBONE|DICT|INTERRES
   185   94   95 1    
   186   94  215 1    
   187   95   96 1    
   188   95   97 1    
   189   95  216 1    
   190   96  217 1    
   191   96  218 1    
   192   96  219 1    
   193   97   98 2    
   194   97   99 am   BACKBONE|DICT|INTERRES
   195   99  100 1    
   196   99  220 1    
   197  100  101 1    
   198  100  102 1    
   199  100  221 1    
   200  101  222 1    
   201  101  223 1    
   202  101  224 1    
   203  102  103 2    
   204  102  104 am   BACKBONE|DICT|INTERRES
   205  104  105 1    
   206  104  225 1    
   207  105  106 1    
   208  105  107 1    
   209  105  226 1    
   210  106  227 1    
   211  106  228 1    
   212  106  229 1    
   213  107  108 2    
   214  107  109 am   BACKBONE|DICT|INTERRES
   215  109  110 1    
   216  109  230 1    
   217  110  111 1    
   218  110  112 1    
   219  110  231 1    
   220  111  232 1    
   221  111  233 1    
   222  111  234 1    
   223  112  113 2    
   224  112  114 am   BACKBONE|DICT|INTERRES
   225  114  115 1    
   226  114  235 1    
   227  115  116 1    
   228  115  117 1    
   229  115  236 1    
   230  116  237 1    
   231  116  238 1    
   232  116  239 1    
   233  117  118 2    
   234  117  119 am   BACKBONE|DICT|INTERRES
   235  119  120 1    
   236  119  240 1    
   237  120  121 1    
   238  120  124 1    
   239  120  241 1    
   240  121  122 am   BACKBONE|DICT|INTERRES
   241  121  123 2    
   242  122  242 1    
   243  122  243 1    
   244  124  125 1    
   245  124  244 1    
   246  124  245 1    
   247  125  126 1    
   248  126  246 1    
   249  126  247 1    
@<TRIPOS>SUBSTRUCTURE
     1 UNK         1 GROUP             0       ****    0 ROOT    
