@<TRIPOS>MOLECULE
3R540
247   249    1
SMALL
USER_CHARGES


@<TRIPOS>ATOM
      1 CA          2.1528   -9.1474  -51.7826 C.3       0 UNK        -0.1800 
      2 C           2.6111  -10.1646  -50.7471 C.2       0 UNK         0.5000 
      3 O           1.8588  -10.4777  -49.8254 O.2       0 UNK        -0.5000 
      4 N           3.8385  -10.6797  -50.9001 N.am      1 UNK        -0.5000 
      5 CA          4.5134  -11.6379  -50.0179 C.3       1 UNK         0.1400 
      6 C6          3.7290  -12.9670  -49.8259 C.3       23 UNK        -0.0398 
      7 S7          4.7699  -14.3142  -49.1613 S.3       23 UNK        -0.2404 
      8 C8          4.6725  -15.5617  -50.4844 C.3       23 UNK        -0.0205 
      9 C9          3.4576  -16.4646  -50.3229 C.ar      23 UNK        -0.0193 
     10 C10         2.2167  -16.0912  -50.8466 C.ar      23 UNK        -0.1150 
     11 C11         1.1037  -16.9235  -50.6976 C.ar      23 UNK        -0.0193 
     12 C12         1.2423  -18.1491  -50.0407 C.ar      23 UNK        -0.1150 
     13 C13         2.4800  -18.5409  -49.5181 C.ar      23 UNK        -0.0193 
     14 C14         3.5800  -17.6882  -49.6581 C.ar      23 UNK        -0.1150 
     15 C15         2.6519  -19.8936  -48.8352 C.3       23 UNK        -0.0205 
     16 S16         1.6139  -20.0713  -47.3484 S.3       23 UNK        -0.2404 
     17 C17         0.1015  -20.8313  -48.0313 C.3       23 UNK        -0.0398 
     18 CA         -0.2478  -22.1883  -47.3765 C.3       11 UNK         0.1400 
     19 N          -0.4248  -22.1024  -45.9223 N.am      11 UNK        -0.5000 
     20 C          -0.6419  -23.1508  -45.1136 C.2       10 UNK         0.5000 
     21 O          -0.6344  -24.3220  -45.4917 O.2       10 UNK        -0.5000 
     22 CA         -0.9884  -22.8383  -43.6490 C.3       10 UNK         0.1400 
     23 CB          0.2826  -22.6836  -42.7998 C.3       10 UNK        -0.1800 
     24 N          -1.8129  -21.6348  -43.5455 N.am      10 UNK        -0.5000 
     25 C          -3.1149  -21.5862  -43.8605 C.2       9 UNK         0.5000 
     26 O          -3.7655  -22.5710  -44.2105 O.2       9 UNK        -0.5000 
     27 CA         -3.7960  -20.2036  -43.8133 C.3       9 UNK         0.1400 
     28 CB         -4.2756  -19.8868  -42.3892 C.3       9 UNK        -0.1800 
     29 N          -2.9284  -19.1213  -44.2827 N.am      9 UNK        -0.5000 
     30 C          -2.4966  -18.9929  -45.5450 C.2       8 UNK         0.5000 
     31 O          -2.8494  -19.7380  -46.4570 O.2       8 UNK        -0.5000 
     32 CA         -1.4725  -17.8762  -45.8359 C.3       8 UNK         0.1400 
     33 CB         -2.2036  -16.6042  -46.2902 C.3       8 UNK        -0.1800 
     34 N          -0.5657  -17.5508  -44.7273 N.am      8 UNK        -0.5000 
     35 C           0.1772  -18.4193  -44.0263 C.2       7 UNK         0.5000 
     36 O           0.1353  -19.6386  -44.1875 O.2       7 UNK        -0.5000 
     37 CA          1.1281  -17.8057  -42.9832 C.3       7 UNK         0.1400 
     38 CB          1.5201  -18.7930  -41.8634 C.3       7 UNK        -0.1800 
     39 N           2.3004  -17.2281  -43.6426 N.am      7 UNK        -0.5000 
     40 C           3.2624  -17.8605  -44.3338 C.2       6 UNK         0.5000 
     41 O           3.4102  -19.0826  -44.3538 O.2       6 UNK        -0.5000 
     42 CA          4.2010  -16.9600  -45.1685 C.3       6 UNK         0.1400 
     43 CB          5.0815  -17.7597  -46.1451 C.3       6 UNK        -0.1800 
     44 N           3.4289  -15.9814  -45.9354 N.am      6 UNK        -0.5000 
     45 C           3.0038  -14.8013  -45.4705 C.2       5 UNK         0.5000 
     46 O           3.3281  -14.3612  -44.3660 O.2       5 UNK        -0.5000 
     47 CA          2.0356  -13.9995  -46.3653 C.3       5 UNK         0.1400 
     48 CB          1.3032  -14.8666  -47.4090 C.3       5 UNK        -0.1800 
     49 N           1.0638  -13.2164  -45.5972 N.am      5 UNK        -0.5000 
     50 C           0.1976  -13.6568  -44.6707 C.2       4 UNK         0.5000 
     51 O           0.0815  -14.8414  -44.3498 O.2       4 UNK        -0.5000 
     52 CA         -0.7105  -12.5940  -44.0094 C.3       4 UNK         0.1400 
     53 CB         -1.1603  -12.9923  -42.5878 C.3       4 UNK        -0.1800 
     54 N          -0.1414  -11.2388  -44.0360 N.am      4 UNK        -0.5000 
     55 C           0.9634  -10.8085  -43.4089 C.2       3 UNK         0.5000 
     56 O           1.6201  -11.4785  -42.6103 O.2       3 UNK        -0.5000 
     57 CA          1.4571   -9.4014  -43.8027 C.3       3 UNK         0.1400 
     58 CB          1.7357   -8.5339  -42.5642 C.3       3 UNK        -0.1800 
     59 N           2.6732   -9.4876  -44.6154 N.am      3 UNK        -0.5000 
     60 C           2.7468  -10.0792  -45.8147 C.2       2 UNK         0.5000 
     61 O           1.7624  -10.5245  -46.4131 O.2       2 UNK        -0.5000 
     62 CA          4.1469  -10.2349  -46.4302 C.3       2 UNK         0.1400 
     63 CB          5.0227  -11.1654  -45.5637 C.3       2 UNK        -0.1800 
     64 N           3.9899  -10.7836  -47.7743 N.am      2 UNK        -0.5000 
     65 C           4.9422  -10.9694  -48.6931 C.2       1 UNK         0.5000 
     66 O           6.1153  -10.6238  -48.5431 O.2       1 UNK        -0.5000 
     67 C          -1.4905  -22.8026  -48.0525 C.2       11 UNK         0.5000 
     68 O          -1.3520  -23.7353  -48.8439 O.2       11 UNK        -0.5000 
     69 N          -2.6801  -22.3051  -47.6825 N.am      12 UNK        -0.5000 
     70 CA         -3.9754  -22.8221  -48.1176 C.3       12 UNK         0.1400 
     71 CB         -5.1027  -21.9420  -47.5608 C.3       12 UNK        -0.1800 
     72 C          -4.1933  -24.2855  -47.7053 C.2       12 UNK         0.5000 
     73 O          -4.6225  -25.0811  -48.5372 O.2       12 UNK        -0.5000 
     74 N          -3.8678  -24.6250  -46.4491 N.am      13 UNK        -0.5000 
     75 CA         -3.9580  -25.9849  -45.9133 C.3       13 UNK         0.1400 
     76 CB         -3.6629  -25.9754  -44.4063 C.3       13 UNK        -0.1800 
     77 C          -3.0409  -26.9801  -46.6479 C.2       13 UNK         0.5000 
     78 O          -3.4920  -28.0714  -46.9969 O.2       13 UNK        -0.5000 
     79 N          -1.7933  -26.5705  -46.9197 N.am      14 UNK        -0.5000 
     80 CA         -0.8137  -27.3364  -47.6959 C.3       14 UNK         0.1400 
     81 CB          0.5499  -26.6322  -47.6321 C.3       14 UNK        -0.1800 
     82 C          -1.2443  -27.5595  -49.1594 C.2       14 UNK         0.5000 
     83 O          -0.9856  -28.6269  -49.7159 O.2       14 UNK        -0.5000 
     84 N          -1.9272  -26.5645  -49.7382 N.am      15 UNK        -0.5000 
     85 CA         -2.5225  -26.6040  -51.0742 C.3       15 UNK         0.1400 
     86 CB         -2.5911  -25.1663  -51.6100 C.3       15 UNK        -0.1800 
     87 C          -3.9154  -27.2716  -51.1112 C.2       15 UNK         0.5000 
     88 O          -4.5441  -27.2772  -52.1703 O.2       15 UNK        -0.5000 
     89 N          -4.3964  -27.7913  -49.9698 N.am      16 UNK        -0.5000 
     90 CA         -5.6973  -28.4429  -49.7638 C.3       16 UNK         0.1400 
     91 CB         -5.7373  -29.8022  -50.4919 C.3       16 UNK        -0.1800 
     92 C          -6.9027  -27.5403  -50.1139 C.2       16 UNK         0.5000 
     93 O          -7.9319  -28.0331  -50.5786 O.2       16 UNK        -0.5000 
     94 N          -6.7333  -26.2269  -49.9034 N.am      17 UNK        -0.5000 
     95 CA         -7.6493  -25.1218  -50.2016 C.3       17 UNK         0.1400 
     96 CB         -8.9378  -25.2357  -49.3620 C.3       17 UNK        -0.1800 
     97 C          -7.9410  -24.9125  -51.7045 C.2       17 UNK         0.5000 
     98 O          -8.8375  -24.1363  -52.0390 O.2       17 UNK        -0.5000 
     99 N          -7.1836  -25.5754  -52.5907 N.am      18 UNK        -0.5000 
    100 CA        -7.3331  -25.4698  -54.0437 C.3       18 UNK         0.1400 
    101 CB        -6.7950  -26.7533  -54.6947 C.3       18 UNK        -0.1800 
    102 C         -6.6249  -24.2333  -54.6289 C.2       18 UNK         0.5000 
    103 O         -6.9456  -23.8268  -55.7467 O.2       18 UNK        -0.5000 
    104 N         -5.6753  -23.6647  -53.8784 N.am      19 UNK        -0.5000 
    105 CA        -4.8469  -22.5229  -54.2463 C.3       19 UNK         0.1400 
    106 CB        -3.7748  -22.9653  -55.2649 C.3       19 UNK        -0.1800 
    107 C         -4.2073  -21.9458  -52.9725 C.2       19 UNK         0.5000 
    108 O         -4.4497  -22.4586  -51.8778 O.2       19 UNK        -0.5000 
    109 N         -3.3929  -20.8954  -53.1474 N.am      20 UNK        -0.5000 
    110 CA        -2.4826  -20.2875  -52.1644 C.3       20 UNK         0.1400 
    111 CB        -1.4177  -21.3080  -51.7189 C.3       20 UNK        -0.1800 
    112 C         -3.1517  -19.5946  -50.9573 C.2       20 UNK         0.5000 
    113 O         -2.4458  -19.1377  -50.0575 O.2       20 UNK        -0.5000 
    114 N         -4.4839  -19.4729  -50.9714 N.am      21 UNK        -0.5000 
    115 CA        -5.2916  -18.8020  -49.9541 C.3       21 UNK         0.1400 
    116 CB        -6.6884  -19.4499  -49.9345 C.3       21 UNK        -0.1800 
    117 C         -5.3393  -17.2809  -50.1988 C.2       21 UNK         0.5000 
    118 O         -6.4139  -16.7156  -50.4083 O.2       21 UNK        -0.5000 
    119 N         -4.1609  -16.6495  -50.1965 N.am      22 UNK        -0.5000 
    120 CA        -3.9649  -15.2105  -50.4368 C.3       22 UNK         0.1400 
    121 C         -4.2966  -14.2771  -49.2324 C.2       22 UNK         0.5000 
    122 N         -4.6924  -14.7911  -48.0745 N.am      22 UNK        -0.7600 
    123 O         -4.2178  -13.0580  -49.3588 O.2       22 UNK        -0.5000 
    124 C124       -2.5704  -14.9215  -51.0501 C.3       23 UNK        -0.0398 
    125 S125       -1.1703  -15.5117  -50.0353 S.3       23 UNK        -0.2404 
    126 C126       -0.2454  -16.4971  -51.2520 C.3       23 UNK        -0.0205 
    127 H127        1.9244   -8.1976  -51.2989 H         1 UNK         0.0600 
    128 H128        2.9148   -8.9684  -52.5417 H         1 UNK         0.0600 
    129 H129        1.2514   -9.5021  -52.2825 H         1 UNK         0.0600 
    130 H130        4.4024  -10.3529  -51.6727 H         1 UNK         0.3000 
    131 H131        5.4357  -11.8902  -50.5443 H         1 UNK         0.0600 
    132 H132        2.8599  -12.8384  -49.1816 H         1 UNK         0.0800 
    133 H133        3.3251  -13.2757  -50.7893 H         1 UNK         0.0800 
    134 H134        4.6646  -15.0807  -51.4636 H         1 UNK         0.0800 
    135 H135        5.5826  -16.1629  -50.4570 H         1 UNK         0.0800 
    136 H136        2.1098  -15.1487  -51.3633 H         1 UNK         0.1150 
    137 H137        0.3804  -18.7912  -49.9360 H         1 UNK         0.1150 
    138 H138        4.5419  -17.9820  -49.2622 H         1 UNK         0.1150 
    139 H139        2.4474  -20.6932  -49.5479 H         1 UNK         0.0800 
    140 H140        3.6902  -20.0311  -48.5304 H         1 UNK         0.0800 
    141 H141        0.2331  -20.9766  -49.1021 H         1 UNK         0.0800 
    142 H142       -0.7196  -20.1226  -47.9318 H         1 UNK         0.0800 
    143 H143        0.5865  -22.8698  -47.5560 H         1 UNK         0.0600 
    144 H144       -0.3826  -21.1766  -45.5102 H         1 UNK         0.3000 
    145 H145       -1.5559  -23.6803  -43.2480 H         1 UNK         0.0600 
    146 H146        0.0401  -22.4444  -41.7644 H         1 UNK         0.0600 
    147 H147        0.8574  -23.6104  -42.7944 H         1 UNK         0.0600 
    148 H148        0.9370  -21.8997  -43.1812 H         1 UNK         0.0600 
    149 H149       -1.3122  -20.7679  -43.3861 H         1 UNK         0.3000 
    150 H150       -4.6703  -20.2434  -44.4666 H         1 UNK         0.0600 
    151 H151       -4.9412  -20.6679  -42.0193 H         1 UNK         0.0600 
    152 H152       -4.8295  -18.9483  -42.3592 H         1 UNK         0.0600 
    153 H153       -3.4416  -19.8080  -41.6907 H         1 UNK         0.0600 
    154 H154       -2.5912  -18.4687  -43.5909 H         1 UNK         0.3000 
    155 H155       -0.8459  -18.2117  -46.6626 H         1 UNK         0.0600 
    156 H156       -1.5066  -15.8253  -46.5960 H         1 UNK         0.0600 
    157 H157       -2.8331  -16.1964  -45.4986 H         1 UNK         0.0600 
    158 H158       -2.8418  -16.8139  -47.1492 H         1 UNK         0.0600 
    159 H159       -0.4242  -16.5570  -44.5489 H         1 UNK         0.3000 
    160 H160        0.5990  -16.9759  -42.5119 H         1 UNK         0.0600 
    161 H161        2.0218  -19.6810  -42.2479 H         1 UNK         0.0600 
    162 H162        0.6354  -19.1336  -41.3244 H         1 UNK         0.0600 
    163 H163        2.1829  -18.3219  -41.1378 H         1 UNK         0.0600 
    164 H164        2.2902  -16.2171  -43.7081 H         1 UNK         0.3000 
    165 H165        4.8629  -16.4412  -44.4720 H         1 UNK         0.0600 
    166 H166        4.4776  -18.3608  -46.8249 H         1 UNK         0.0600 
    167 H167        5.7082  -17.0999  -46.7455 H         1 UNK         0.0600 
    168 H168        5.7447  -18.4385  -45.6078 H         1 UNK         0.0600 
    169 H169        3.1019  -16.2886  -46.8404 H         1 UNK         0.3000 
    170 H170        2.6501  -13.2746  -46.8974 H         1 UNK         0.0600 
    171 H171        0.7759  -15.7020  -46.9487 H         1 UNK         0.0600 
    172 H172        1.9972  -15.2797  -48.1388 H         1 UNK         0.0600 
    173 H173        0.5763  -14.2751  -47.9646 H         1 UNK         0.0600 
    174 H174        1.0976  -12.2166  -45.7729 H         1 UNK         0.3000 
    175 H175       -1.6067  -12.5509  -44.6297 H         1 UNK         0.0600 
    176 H176       -1.7917  -12.2234  -42.1428 H         1 UNK         0.0600 
    177 H177       -1.7406  -13.9155  -42.6072 H         1 UNK         0.0600 
    178 H178       -0.3117  -13.1580  -41.9238 H         1 UNK         0.0600 
    179 H179       -0.5771  -10.6098  -44.6968 H         1 UNK         0.3000 
    180 H180        0.6856   -8.9044  -44.3947 H         1 UNK         0.0600 
    181 H181        2.5339   -8.9508  -41.9486 H         1 UNK         0.0600 
    182 H182        0.8464   -8.4533  -41.9380 H         1 UNK         0.0600 
    183 H183        2.0254   -7.5221  -42.8484 H         1 UNK         0.0600 
    184 H184        3.5244   -9.1703  -44.1749 H         1 UNK         0.3000 
    185 H185        4.6059   -9.2472  -46.5013 H         1 UNK         0.0600 
    186 H186        6.0353  -11.2495  -45.9568 H         1 UNK         0.0600 
    187 H187        5.1137  -10.7934  -44.5428 H         1 UNK         0.0600 
    188 H188        4.6043  -12.1700  -45.5084 H         1 UNK         0.0600 
    189 H189        3.0227  -10.9718  -48.0250 H         1 UNK         0.3000 
    190 H190       -2.7038  -21.4900  -47.0740 H         1 UNK         0.3000 
    191 H191       -4.0027  -22.7680  -49.2076 H         1 UNK         0.0600 
    192 H192       -4.9677  -20.9026  -47.8500 H         1 UNK         0.0600 
    193 H193       -6.0730  -22.2656  -47.9392 H         1 UNK         0.0600 
    194 H194       -5.1456  -21.9766  -46.4723 H         1 UNK         0.0600 
    195 H195       -3.5639  -23.9009  -45.8076 H         1 UNK         0.3000 
    196 H196       -4.9873  -26.3224  -46.0516 H         1 UNK         0.0600 
    197 H197       -3.7735  -26.9739  -43.9818 H         1 UNK         0.0600 
    198 H198       -4.3499  -25.3178  -43.8735 H         1 UNK         0.0600 
    199 H199       -2.6475  -25.6414  -44.1956 H         1 UNK         0.0600 
    200 H200       -1.4852  -25.6688  -46.5641 H         1 UNK         0.3000 
    201 H201       -0.7123  -28.3178  -47.2283 H         1 UNK         0.0600 
    202 H202        0.8987  -26.5423  -46.6032 H         1 UNK         0.0600 
    203 H203        0.5048  -25.6291  -48.0575 H         1 UNK         0.0600 
    204 H204        1.3058  -27.1912  -48.1850 H         1 UNK         0.0600 
    205 H205       -2.0507  -25.7003  -49.2211 H         1 UNK         0.3000 
    206 H206       -1.8742  -27.1803  -51.7369 H         1 UNK         0.0600 
    207 H207       -1.6004  -24.7142  -51.6588 H         1 UNK         0.0600 
    208 H208       -3.0142  -25.1303  -52.6144 H         1 UNK         0.0600 
    209 H209       -3.2089  -24.5404  -50.9665 H         1 UNK         0.0600 
    210 H210       -3.8280  -27.7004  -49.1367 H         1 UNK         0.3000 
    211 H211       -5.7704  -28.6392  -48.6933 H         1 UNK         0.0600 
    212 H212       -5.7267  -29.6808  -51.5756 H         1 UNK         0.0600 
    213 H213       -6.6384  -30.3594  -50.2336 H         1 UNK         0.0600 
    214 H214       -4.8843  -30.4219  -50.2153 H         1 UNK         0.0600 
    215 H215       -5.8469  -25.9315  -49.4929 H         1 UNK         0.3000 
    216 H216       -7.1289  -24.2192  -49.8775 H         1 UNK         0.0600 
    217 H217       -8.7084  -25.3587  -48.3036 H         1 UNK         0.0600 
    218 H218       -9.5516  -26.0810  -49.6739 H         1 UNK         0.0600 
    219 H219       -9.5488  -24.3374  -49.4568 H         1 UNK         0.0600 
    220 H220       -6.4540  -26.1934  -52.2541 H         1 UNK         0.3000 
    221 H221       -8.3948  -25.3901  -54.2869 H         1 UNK         0.0600 
    222 H222       -5.7210  -26.8631  -54.5415 H         1 UNK         0.0600 
    223 H223       -7.2845  -27.6387  -54.2885 H         1 UNK         0.0600 
    224 H224       -6.9719  -26.7479  -55.7709 H         1 UNK         0.0600 
    225 H225       -5.5077  -24.0103  -52.9418 H         1 UNK         0.3000 
    226 H226       -5.4799  -21.7500  -54.6866 H         1 UNK         0.0600 
    227 H227       -4.2255  -23.3908  -56.1615 H         1 UNK         0.0600 
    228 H228       -3.1597  -22.1263  -55.5910 H         1 UNK         0.0600 
    229 H229       -3.1078  -23.7167  -54.8405 H         1 UNK         0.0600 
    230 H230       -3.3052  -20.5243  -54.0834 H         1 UNK         0.3000 
    231 H231       -1.9626  -19.4942  -52.7031 H         1 UNK         0.0600 
    232 H232       -0.6057  -20.8112  -51.1905 H         1 UNK         0.0600 
    233 H233       -0.9756  -21.8205  -52.5732 H         1 UNK         0.0600 
    234 H234       -1.8367  -22.0642  -51.0545 H         1 UNK         0.0600 
    235 H235       -4.9827  -19.8634  -51.7564 H         1 UNK         0.3000 
    236 H236       -4.8339  -18.9501  -48.9745 H         1 UNK         0.0600 
    237 H237       -7.3057  -19.0241  -49.1427 H         1 UNK         0.0600 
    238 H238       -7.2145  -19.3037  -50.8787 H         1 UNK         0.0600 
    239 H239       -6.6241  -20.5230  -49.7551 H         1 UNK         0.0600 
    240 H240       -3.3231  -17.1915  -50.0149 H         1 UNK         0.3000 
    241 H241       -4.6889  -14.9209  -51.2009 H         1 UNK         0.0600 
    242 H242       -4.7885  -15.7859  -47.9632 H         1 UNK         0.3800 
    243 H243       -4.9161  -14.1734  -47.3107 H         1 UNK         0.3800 
    244 H244       -2.5187  -15.3875  -52.0347 H         1 UNK         0.0800 
    245 H245       -2.4389  -13.8535  -51.2316 H         1 UNK         0.0800 
    246 H246       -0.1000  -15.9125  -52.1617 H         1 UNK         0.0800 
    247 H247       -0.8328  -17.3715  -51.5343 H         1 UNK         0.0800 
@<TRIPOS>BOND
     1    1    2 1    
     2    1  127 1    
     3    1  128 1    
     4    1  129 1    
     5    2    3 2    
     6    2    4 am   BACKBONE|DICT|INTERRES
     7    4    5 1    
     8    4  130 1    
     9    5    6 1    
    10    5   65 1    
    11    5  131 1    
    12    6    7 1    
    13    6  132 1    
    14    6  133 1    
    15    7    8 1    
    16    8    9 1    
    17    8  134 1    
    18    8  135 1    
    19    9   10 ar   
    20    9   14 ar   
    21   10   11 ar   
    22   10  136 1    
    23   11   12 ar   
    24   11  126 1    
    25   12   13 ar   
    26   12  137 1    
    27   13   14 ar   
    28   13   15 1    
    29   14  138 1    
    30   15   16 1    
    31   15  139 1    
    32   15  140 1    
    33   16   17 1    
    34   17   18 1    
    35   17  141 1    
    36   17  142 1    
    37   18   19 1    
    38   18   67 1    
    39   18  143 1    
    40   19   20 am   BACKBONE|DICT|INTERRES
    41   19  144 1    
    42   20   21 2    
    43   20   22 1    
    44   22   23 1    
    45   22   24 1    
    46   22  145 1    
    47   23  146 1    
    48   23  147 1    
    49   23  148 1    
    50   24   25 am   BACKBONE|DICT|INTERRES
    51   24  149 1    
    52   25   26 2    
    53   25   27 1    
    54   27   28 1    
    55   27   29 1    
    56   27  150 1    
    57   28  151 1    
    58   28  152 1    
    59   28  153 1    
    60   29   30 am   BACKBONE|DICT|INTERRES
    61   29  154 1    
    62   30   31 2    
    63   30   32 1    
    64   32   33 1    
    65   32   34 1    
    66   32  155 1    
    67   33  156 1    
    68   33  157 1    
    69   33  158 1    
    70   34   35 am   BACKBONE|DICT|INTERRES
    71   34  159 1    
    72   35   36 2    
    73   35   37 1    
    74   37   38 1    
    75   37   39 1    
    76   37  160 1    
    77   38  161 1    
    78   38  162 1    
    79   38  163 1    
    80   39   40 am   BACKBONE|DICT|INTERRES
    81   39  164 1    
    82   40   41 2    
    83   40   42 1    
    84   42   43 1    
    85   42   44 1    
    86   42  165 1    
    87   43  166 1    
    88   43  167 1    
    89   43  168 1    
    90   44   45 am   BACKBONE|DICT|INTERRES
    91   44  169 1    
    92   45   46 2    
    93   45   47 1    
    94   47   48 1    
    95   47   49 1    
    96   47  170 1    
    97   48  171 1    
    98   48  172 1    
    99   48  173 1    
   100   49   50 am   BACKBONE|DICT|INTERRES
   101   49  174 1    
   102   50   51 2    
   103   50   52 1    
   104   52   53 1    
   105   52   54 1    
   106   52  175 1    
   107   53  176 1    
   108   53  177 1    
   109   53  178 1    
   110   54   55 am   BACKBONE|DICT|INTERRES
   111   54  179 1    
   112   55   56 2    
   113   55   57 1    
   114   57   58 1    
   115   57   59 1    
   116   57  180 1    
   117   58  181 1    
   118   58  182 1    
   119   58  183 1    
   120   59   60 am   BACKBONE|DICT|INTERRES
   121   59  184 1    
   122   60   61 2    
   123   60   62 1    
   124   62   63 1    
   125   62   64 1    
   126   62  185 1    
   127   63  186 1    
   128   63  187 1    
   129   63  188 1    
   130   64   65 am   BACKBONE|DICT|INTERRES
   131   64  189 1    
   132   65   66 2    
   133   67   68 2    
   134   67   69 am   BACKBONE|DICT|INTERRES
   135   69   70 1    
   136   69  190 1    
   137   70   71 1    
   138   70   72 1    
   139   70  191 1    
   140   71  192 1    
   141   71  193 1    
   142   71  194 1    
   143   72   73 2    
   144   72   74 am   BACKBONE|DICT|INTERRES
   145   74   75 1    
   146   74  195 1    
   147   75   76 1    
   148   75   77 1    
   149   75  196 1    
   150   76  197 1    
   151   76  198 1    
   152   76  199 1    
   153   77   78 2    
   154   77   79 am   BACKBONE|DICT|INTERRES
   155   79   80 1    
   156   79  200 1    
   157   80   81 1    
   158   80   82 1    
   159   80  201 1    
   160   81  202 1    
   161   81  203 1    
   162   81  204 1    
   163   82   83 2    
   164   82   84 am   BACKBONE|DICT|INTERRES
   165   84   85 1    
   166   84  205 1    
   167   85   86 1    
   168   85   87 1    
   169   85  206 1    
   170   86  207 1    
   171   86  208 1    
   172   86  209 1    
   173   87   88 2    
   174   87   89 am   BACKBONE|DICT|INTERRES
   175   89   90 1    
   176   89  210 1    
   177   90   91 1    
   178   90   92 1    
   179   90  211 1    
   180   91  212 1    
   181   91  213 1    
   182   91  214 1    
   183   92   93 2    
   184   92   94 am   BACKBONE|DICT|INTERRES
   185   94   95 1    
   186   94  215 1    
   187   95   96 1    
   188   95   97 1    
   189   95  216 1    
   190   96  217 1    
   191   96  218 1    
   192   96  219 1    
   193   97   98 2    
   194   97   99 am   BACKBONE|DICT|INTERRES
   195   99  100 1    
   196   99  220 1    
   197  100  101 1    
   198  100  102 1    
   199  100  221 1    
   200  101  222 1    
   201  101  223 1    
   202  101  224 1    
   203  102  103 2    
   204  102  104 am   BACKBONE|DICT|INTERRES
   205  104  105 1    
   206  104  225 1    
   207  105  106 1    
   208  105  107 1    
   209  105  226 1    
   210  106  227 1    
   211  106  228 1    
   212  106  229 1    
   213  107  108 2    
   214  107  109 am   BACKBONE|DICT|INTERRES
   215  109  110 1    
   216  109  230 1    
   217  110  111 1    
   218  110  112 1    
   219  110  231 1    
   220  111  232 1    
   221  111  233 1    
   222  111  234 1    
   223  112  113 2    
   224  112  114 am   BACKBONE|DICT|INTERRES
   225  114  115 1    
   226  114  235 1    
   227  115  116 1    
   228  115  117 1    
   229  115  236 1    
   230  116  237 1    
   231  116  238 1    
   232  116  239 1    
   233  117  118 2    
   234  117  119 am   BACKBONE|DICT|INTERRES
   235  119  120 1    
   236  119  240 1    
   237  120  121 1    
   238  120  124 1    
   239  120  241 1    
   240  121  122 am   BACKBONE|DICT|INTERRES
   241  121  123 2    
   242  122  242 1    
   243  122  243 1    
   244  124  125 1    
   245  124  244 1    
   246  124  245 1    
   247  125  126 1    
   248  126  246 1    
   249  126  247 1    
@<TRIPOS>SUBSTRUCTURE
     1 UNK         1 GROUP             0       ****    0 ROOT    
