@<TRIPOS>MOLECULE
3R540
247   249    1
SMALL
USER_CHARGES


@<TRIPOS>ATOM
      1 CA          5.8825  -15.8050  -46.5614 C.3       0 UNK        -0.1800 
      2 C           5.5945  -14.5264  -47.3364 C.2       0 UNK         0.5000 
      3 O           6.5009  -13.7168  -47.5289 O.2       0 UNK        -0.5000 
      4 N           4.3443  -14.3543  -47.7858 N.am      1 UNK        -0.5000 
      5 CA          3.8503  -13.2067  -48.5572 C.3       1 UNK         0.1400 
      6 C6          4.5749  -13.0252  -49.9234 C.3       23 UNK        -0.0398 
      7 S7          3.4907  -12.2491  -51.1734 S.3       23 UNK        -0.2404 
      8 C8          2.9130  -13.6937  -52.1225 C.3       23 UNK        -0.0205 
      9 C9          2.1658  -14.6864  -51.2451 C.ar      23 UNK        -0.0193 
     10 C10         0.8299  -14.4614  -50.8992 C.ar      23 UNK        -0.1150 
     11 C11         0.1513  -15.3641  -50.0749 C.ar      23 UNK        -0.0193 
     12 C12         0.8217  -16.4909  -49.5905 C.ar      23 UNK        -0.1150 
     13 C13         2.1596  -16.7174  -49.9176 C.ar      23 UNK        -0.0193 
     14 C14         2.8213  -15.8206  -50.7576 C.ar      23 UNK        -0.1150 
     15 C15         2.9050  -17.9091  -49.3415 C.3       23 UNK        -0.0205 
     16 S16         2.9859  -19.2912  -50.5198 S.3       23 UNK        -0.2404 
     17 C17         1.3603  -20.0830  -50.2695 C.3       23 UNK        -0.0398 
     18 CA          1.4605  -21.3251  -49.3479 C.3       11 UNK         0.1400 
     19 N           1.8711  -20.9530  -47.9897 N.am      11 UNK        -0.5000 
     20 C           2.9352  -21.4480  -47.3423 C.2       10 UNK         0.5000 
     21 O           3.7032  -22.2814  -47.8242 O.2       10 UNK        -0.5000 
     22 CA          3.1913  -20.9416  -45.9048 C.3       10 UNK         0.1400 
     23 CB          4.2361  -19.8138  -45.9173 C.3       10 UNK        -0.1800 
     24 N           1.9975  -20.4607  -45.2070 N.am      10 UNK        -0.5000 
     25 C           0.8692  -21.1541  -45.0056 C.2       9 UNK         0.5000 
     26 O           0.7284  -22.3352  -45.3201 O.2       9 UNK        -0.5000 
     27 CA         -0.3291  -20.3866  -44.4190 C.3       9 UNK         0.1400 
     28 CB         -0.4397  -20.6471  -42.9105 C.3       9 UNK        -0.1800 
     29 N          -0.3122  -18.9420  -44.6727 N.am      9 UNK        -0.5000 
     30 C          -0.2786  -18.3520  -45.8795 C.2       8 UNK         0.5000 
     31 O          -0.1826  -18.9696  -46.9419 O.2       8 UNK        -0.5000 
     32 CA         -0.2961  -16.8129  -45.8829 C.3       8 UNK         0.1400 
     33 CB         -1.6842  -16.2660  -45.5176 C.3       8 UNK        -0.1800 
     34 N           0.7021  -16.2879  -44.9555 N.am      8 UNK        -0.5000 
     35 C           2.0056  -16.1687  -45.2402 C.2       7 UNK         0.5000 
     36 O           2.4797  -16.3253  -46.3656 O.2       7 UNK        -0.5000 
     37 CA          2.9511  -15.8359  -44.0716 C.3       7 UNK         0.1400 
     38 CB          3.2876  -14.3403  -44.0459 C.3       7 UNK        -0.1800 
     39 N           2.4083  -16.2248  -42.7705 N.am      7 UNK        -0.5000 
     40 C           2.3529  -17.4841  -42.3168 C.2       6 UNK         0.5000 
     41 O           2.7525  -18.4583  -42.9539 O.2       6 UNK        -0.5000 
     42 CA          1.7175  -17.6884  -40.9280 C.3       6 UNK         0.1400 
     43 CB          2.7775  -17.5410  -39.8265 C.3       6 UNK        -0.1800 
     44 N           0.6121  -16.7662  -40.6580 N.am      6 UNK        -0.5000 
     45 C          -0.5451  -16.7442  -41.3341 C.2       5 UNK         0.5000 
     46 O          -0.8087  -17.5052  -42.2636 O.2       5 UNK        -0.5000 
     47 CA         -1.5492  -15.6433  -40.9493 C.3       5 UNK         0.1400 
     48 CB         -2.3929  -16.0772  -39.7415 C.3       5 UNK        -0.1800 
     49 N          -0.9152  -14.3519  -40.6665 N.am      5 UNK        -0.5000 
     50 C          -0.1834  -13.6583  -41.5484 C.2       4 UNK         0.5000 
     51 O           0.0911  -14.0661  -42.6787 O.2       4 UNK        -0.5000 
     52 CA          0.3772  -12.3073  -41.0686 C.3       4 UNK         0.1400 
     53 CB          1.8167  -12.4822  -40.5599 C.3       4 UNK        -0.1800 
     54 N           0.3716  -11.3084  -42.1365 N.am      4 UNK        -0.5000 
     55 C          -0.7280  -10.8036  -42.7138 C.2       3 UNK         0.5000 
     56 O          -1.8731  -11.0567  -42.3358 O.2       3 UNK        -0.5000 
     57 CA         -0.5242   -9.8404  -43.9023 C.3       3 UNK         0.1400 
     58 CB         -0.7918   -8.3899  -43.4697 C.3       3 UNK        -0.1800 
     59 N           0.8092   -9.9115  -44.5090 N.am      3 UNK        -0.5000 
     60 C           1.2576  -10.9316  -45.2511 C.2       2 UNK         0.5000 
     61 O           0.5937  -11.9393  -45.5076 O.2       2 UNK        -0.5000 
     62 CA          2.6890  -10.7984  -45.7923 C.3       2 UNK         0.1400 
     63 CB          3.7323  -10.7404  -44.6594 C.3       2 UNK        -0.1800 
     64 N           2.9626  -11.9292  -46.6730 N.am      2 UNK        -0.5000 
     65 C           3.8154  -11.9201  -47.7015 C.2       1 UNK         0.5000 
     66 O           4.5449  -10.9620  -47.9665 O.2       1 UNK        -0.5000 
     67 C           0.1332  -22.1136  -49.3419 C.2       11 UNK         0.5000 
     68 O          -0.3447  -22.4793  -50.4151 O.2       11 UNK        -0.5000 
     69 N          -0.4648  -22.3535  -48.1656 N.am      12 UNK        -0.5000 
     70 CA         -1.7133  -23.1024  -48.0222 C.3       12 UNK         0.1400 
     71 CB         -2.4238  -22.6585  -46.7341 C.3       12 UNK        -0.1800 
     72 C          -1.4754  -24.6236  -48.0270 C.2       12 UNK         0.5000 
     73 O          -0.3456  -25.0877  -47.8539 O.2       12 UNK        -0.5000 
     74 N          -2.5678  -25.3701  -48.2021 N.am      13 UNK        -0.5000 
     75 CA         -2.6349  -26.8258  -48.1760 C.3       13 UNK         0.1400 
     76 CB         -2.2411  -27.3940  -49.5530 C.3       13 UNK        -0.1800 
     77 C          -4.0669  -27.2264  -47.7895 C.2       13 UNK         0.5000 
     78 O          -4.9442  -26.3611  -47.7030 O.2       13 UNK        -0.5000 
     79 N          -4.2948  -28.5332  -47.6014 N.am      14 UNK        -0.5000 
     80 CA         -5.5843  -29.1294  -47.2232 C.3       14 UNK         0.1400 
     81 CB         -5.3857  -30.6359  -46.9948 C.3       14 UNK        -0.1800 
     82 C          -6.7314  -28.8842  -48.2282 C.2       14 UNK         0.5000 
     83 O          -7.8994  -28.9671  -47.8473 O.2       14 UNK        -0.5000 
     84 N          -6.3811  -28.5608  -49.4804 N.am      15 UNK        -0.5000 
     85 CA         -7.3020  -28.1546  -50.5439 C.3       15 UNK         0.1400 
     86 CB         -6.5803  -28.3160  -51.8915 C.3       15 UNK        -0.1800 
     87 C          -7.8488  -26.7162  -50.3820 C.2       15 UNK         0.5000 
     88 O          -8.7542  -26.3426  -51.1283 O.2       15 UNK        -0.5000 
     89 N          -7.2986  -25.9526  -49.4236 N.am      16 UNK        -0.5000 
     90 CA         -7.5563  -24.5466  -49.0932 C.3       16 UNK         0.1400 
     91 CB         -9.0593  -24.2558  -48.9032 C.3       16 UNK        -0.1800 
     92 C          -6.9043  -23.5699  -50.0884 C.2       16 UNK         0.5000 
     93 O          -6.5202  -23.9551  -51.1949 O.2       16 UNK        -0.5000 
     94 N          -6.7850  -22.3042  -49.6633 N.am      17 UNK        -0.5000 
     95 CA         -6.0823  -21.2140  -50.3521 C.3       17 UNK         0.1400 
     96 CB         -6.1820  -19.9430  -49.4961 C.3       17 UNK        -0.1800 
     97 C          -6.5539  -20.9238  -51.7898 C.2       17 UNK         0.5000 
     98 O          -5.7574  -20.4445  -52.5978 O.2       17 UNK        -0.5000 
     99 N          -7.8203  -21.2361  -52.0920 N.am      18 UNK        -0.5000 
    100 CA        -8.4109  -21.1129  -53.4252 C.3       18 UNK         0.1400 
    101 CB        -9.9314  -21.3040  -53.3163 C.3       18 UNK        -0.1800 
    102 C         -7.8169  -22.0989  -54.4516 C.2       18 UNK         0.5000 
    103 O         -7.7711  -21.7737  -55.6385 O.2       18 UNK        -0.5000 
    104 N         -7.3754  -23.2733  -53.9820 N.am      19 UNK        -0.5000 
    105 CA        -6.7658  -24.3224  -54.7992 C.3       19 UNK         0.1400 
    106 CB        -7.3849  -25.6720  -54.4142 C.3       19 UNK        -0.1800 
    107 C         -5.2408  -24.3631  -54.6133 C.2       19 UNK         0.5000 
    108 O         -4.5188  -24.5988  -55.5824 O.2       19 UNK        -0.5000 
    109 N         -4.7744  -24.1223  -53.3796 N.am      20 UNK        -0.5000 
    110 CA        -3.3594  -24.1100  -53.0015 C.3       20 UNK         0.1400 
    111 CB        -3.2604  -24.2005  -51.4716 C.3       20 UNK        -0.1800 
    112 C         -2.5899  -22.8788  -53.5231 C.2       20 UNK         0.5000 
    113 O         -1.3618  -22.9252  -53.5770 O.2       20 UNK        -0.5000 
    114 N         -3.3277  -21.8261  -53.9071 N.am      21 UNK        -0.5000 
    115 CA        -2.8748  -20.5239  -54.3972 C.3       21 UNK         0.1400 
    116 CB        -1.9186  -20.6459  -55.6031 C.3       21 UNK        -0.1800 
    117 C         -2.3131  -19.6638  -53.2525 C.2       21 UNK         0.5000 
    118 O         -1.0986  -19.5529  -53.0835 O.2       21 UNK        -0.5000 
    119 N         -3.2386  -19.0654  -52.4932 N.am      22 UNK        -0.5000 
    120 CA        -3.0204  -18.1053  -51.3951 C.3       22 UNK         0.1400 
    121 C         -2.6994  -18.7483  -50.0149 C.2       22 UNK         0.5000 
    122 N         -2.4101  -20.0383  -49.9303 N.am      22 UNK        -0.7600 
    123 O         -2.7710  -18.0809  -48.9893 O.2       22 UNK        -0.5000 
    124 C124       -2.0275  -16.9673  -51.7723 C.3       23 UNK        -0.0398 
    125 S125       -2.4557  -15.3248  -51.0944 S.3       23 UNK        -0.2404 
    126 C126       -1.3025  -15.1239  -49.6942 C.3       23 UNK        -0.0205 
    127 H127        6.8179  -16.2488  -46.9023 H         1 UNK         0.0600 
    128 H128        5.0954  -16.5467  -46.6949 H         1 UNK         0.0600 
    129 H129        5.9761  -15.5869  -45.4978 H         1 UNK         0.0600 
    130 H130        3.6468  -15.0555  -47.5553 H         1 UNK         0.3000 
    131 H131        2.8085  -13.4550  -48.7646 H         1 UNK         0.0600 
    132 H132        5.4875  -12.4356  -49.8235 H         1 UNK         0.0800 
    133 H133        4.9098  -13.9883  -50.3072 H         1 UNK         0.0800 
    134 H134        3.7648  -14.1734  -52.6072 H         1 UNK         0.0800 
    135 H135        2.2585  -13.3521  -52.9257 H         1 UNK         0.0800 
    136 H136        0.3185  -13.5839  -51.2693 H         1 UNK         0.1150 
    137 H137        0.3018  -17.1953  -48.9581 H         1 UNK         0.1150 
    138 H138        3.8556  -15.9996  -51.0152 H         1 UNK         0.1150 
    139 H139        3.9206  -17.6081  -49.0806 H         1 UNK         0.0800 
    140 H140        2.4411  -18.2349  -48.4096 H         1 UNK         0.0800 
    141 H141        0.9892  -20.3620  -51.2576 H         1 UNK         0.0800 
    142 H142        0.6427  -19.3633  -49.8740 H         1 UNK         0.0800 
    143 H143        2.1949  -22.0018  -49.7891 H         1 UNK         0.0600 
    144 H144        1.2811  -20.2706  -47.5232 H         1 UNK         0.3000 
    145 H145        3.5918  -21.7789  -45.3302 H         1 UNK         0.0600 
    146 H146        3.8630  -18.9268  -46.4307 H         1 UNK         0.0600 
    147 H147        4.5134  -19.5210  -44.9045 H         1 UNK         0.0600 
    148 H148        5.1488  -20.1283  -46.4250 H         1 UNK         0.0600 
    149 H149        2.0363  -19.5139  -44.8519 H         1 UNK         0.3000 
    150 H150       -1.2294  -20.7775  -44.8925 H         1 UNK         0.0600 
    151 H151       -0.5025  -21.7159  -42.7015 H         1 UNK         0.0600 
    152 H152       -1.3329  -20.1833  -42.4919 H         1 UNK         0.0600 
    153 H153        0.4264  -20.2593  -42.3757 H         1 UNK         0.0600 
    154 H154       -0.4057  -18.3532  -43.8480 H         1 UNK         0.3000 
    155 H155       -0.0607  -16.4649  -46.8879 H         1 UNK         0.0600 
    156 H156       -2.4381  -16.6276  -46.2184 H         1 UNK         0.0600 
    157 H157       -1.9933  -16.5669  -44.5165 H         1 UNK         0.0600 
    158 H158       -1.6978  -15.1765  -45.5571 H         1 UNK         0.0600 
    159 H159        0.3945  -16.0881  -44.0131 H         1 UNK         0.3000 
    160 H160        3.8786  -16.3890  -44.2336 H         1 UNK         0.0600 
    161 H161        3.9605  -14.0997  -43.2229 H         1 UNK         0.0600 
    162 H162        3.7848  -14.0373  -44.9658 H         1 UNK         0.0600 
    163 H163        2.3920  -13.7278  -43.9406 H         1 UNK         0.0600 
    164 H164        1.9971  -15.4886  -42.2151 H         1 UNK         0.3000 
    165 H165        1.3250  -18.7055  -40.8857 H         1 UNK         0.0600 
    166 H166        2.3594  -17.7626  -38.8443 H         1 UNK         0.0600 
    167 H167        3.6067  -18.2311  -39.9883 H         1 UNK         0.0600 
    168 H168        3.1909  -16.5321  -39.7965 H         1 UNK         0.0600 
    169 H169        0.7473  -16.0965  -39.9151 H         1 UNK         0.3000 
    170 H170       -2.2199  -15.5020  -41.7997 H         1 UNK         0.0600 
    171 H171       -2.8882  -17.0300  -39.9338 H         1 UNK         0.0600 
    172 H172       -1.7832  -16.1990  -38.8453 H         1 UNK         0.0600 
    173 H173       -3.1718  -15.3468  -39.5216 H         1 UNK         0.0600 
    174 H174       -1.0863  -13.9578  -39.7525 H         1 UNK         0.3000 
    175 H175       -0.2429  -11.9348  -40.2507 H         1 UNK         0.0600 
    176 H176        2.4836  -12.8324  -41.3490 H         1 UNK         0.0600 
    177 H177        2.2161  -11.5432  -40.1763 H         1 UNK         0.0600 
    178 H178        1.8602  -13.2082  -39.7470 H         1 UNK         0.0600 
    179 H179        1.2666  -11.0604  -42.5281 H         1 UNK         0.3000 
    180 H180       -1.2592  -10.1089  -44.6641 H         1 UNK         0.0600 
    181 H181       -0.0781   -8.0571  -42.7150 H         1 UNK         0.0600 
    182 H182       -1.7910   -8.2858  -43.0445 H         1 UNK         0.0600 
    183 H183       -0.7294   -7.7069  -44.3171 H         1 UNK         0.0600 
    184 H184        1.4142   -9.1187  -44.3487 H         1 UNK         0.3000 
    185 H185        2.7343   -9.8742  -46.3725 H         1 UNK         0.0600 
    186 H186        4.7477  -10.7228  -45.0557 H         1 UNK         0.0600 
    187 H187        3.6103   -9.8399  -44.0570 H         1 UNK         0.0600 
    188 H188        3.6527  -11.5936  -43.9875 H         1 UNK         0.0600 
    189 H189        2.3397  -12.7155  -46.5347 H         1 UNK         0.3000 
    190 H190        0.0348  -22.1435  -47.3101 H         1 UNK         0.3000 
    191 H191       -2.3678  -22.8621  -48.8623 H         1 UNK         0.0600 
    192 H192       -1.8572  -22.9377  -45.8457 H         1 UNK         0.0600 
    193 H193       -3.4082  -23.1202  -46.6486 H         1 UNK         0.0600 
    194 H194       -2.5746  -21.5789  -46.7190 H         1 UNK         0.0600 
    195 H195       -3.4791  -24.9318  -48.2533 H         1 UNK         0.3000 
    196 H196       -1.9566  -27.2064  -47.4096 H         1 UNK         0.0600 
    197 H197       -2.2039  -28.4835  -49.5348 H         1 UNK         0.0600 
    198 H198       -1.2541  -27.0461  -49.8583 H         1 UNK         0.0600 
    199 H199       -2.9505  -27.1041  -50.3282 H         1 UNK         0.0600 
    200 H200       -3.5240  -29.1782  -47.7023 H         1 UNK         0.3000 
    201 H201       -5.8883  -28.6781  -46.2765 H         1 UNK         0.0600 
    202 H202       -4.6485  -30.8238  -46.2139 H         1 UNK         0.0600 
    203 H203       -5.0507  -31.1390  -47.9028 H         1 UNK         0.0600 
    204 H204       -6.3162  -31.1109  -46.6807 H         1 UNK         0.0600 
    205 H205       -5.3973  -28.5294  -49.7019 H         1 UNK         0.3000 
    206 H206       -8.1583  -28.8321  -50.5330 H         1 UNK         0.0600 
    207 H207       -6.1682  -29.3190  -52.0037 H         1 UNK         0.0600 
    208 H208       -7.2701  -28.1613  -52.7214 H         1 UNK         0.0600 
    209 H209       -5.7632  -27.6010  -51.9998 H         1 UNK         0.0600 
    210 H210       -6.5368  -26.3587  -48.8903 H         1 UNK         0.3000 
    211 H211       -7.0653  -24.3889  -48.1316 H         1 UNK         0.0600 
    212 H212       -9.6003  -24.2558  -49.8498 H         1 UNK         0.0600 
    213 H213       -9.2141  -23.2780  -48.4464 H         1 UNK         0.0600 
    214 H214       -9.5246  -24.9935  -48.2494 H         1 UNK         0.0600 
    215 H215       -7.1456  -22.0751  -48.7483 H         1 UNK         0.3000 
    216 H216       -5.0296  -21.4928  -50.4164 H         1 UNK         0.0600 
    217 H217       -5.7049  -19.0954  -49.9887 H         1 UNK         0.0600 
    218 H218       -7.2198  -19.6664  -49.3064 H         1 UNK         0.0600 
    219 H219       -5.6860  -20.0756  -48.5343 H         1 UNK         0.0600 
    220 H220       -8.4046  -21.6249  -51.3669 H         1 UNK         0.3000 
    221 H221       -8.2180  -20.1015  -53.7891 H         1 UNK         0.0600 
    222 H222      -10.1862  -22.2937  -52.9348 H         1 UNK         0.0600 
    223 H223      -10.3760  -20.5624  -52.6522 H         1 UNK         0.0600 
    224 H224      -10.4097  -21.1943  -54.2905 H         1 UNK         0.0600 
    225 H225       -7.4124  -23.4466  -52.9838 H         1 UNK         0.3000 
    226 H226       -6.9677  -24.1506  -55.8586 H         1 UNK         0.0600 
    227 H227       -8.4572  -25.6846  -54.6094 H         1 UNK         0.0600 
    228 H228       -6.9379  -26.4893  -54.9816 H         1 UNK         0.0600 
    229 H229       -7.2366  -25.8815  -53.3557 H         1 UNK         0.0600 
    230 H230       -5.4399  -23.9933  -52.6200 H         1 UNK         0.3000 
    231 H231       -2.8884  -24.9991  -53.4259 H         1 UNK         0.0600 
    232 H232       -2.2259  -24.3436  -51.1582 H         1 UNK         0.0600 
    233 H233       -3.8382  -25.0398  -51.0853 H         1 UNK         0.0600 
    234 H234       -3.6281  -23.2944  -50.9917 H         1 UNK         0.0600 
    235 H235       -4.3275  -21.8989  -53.7736 H         1 UNK         0.3000 
    236 H236       -3.7708  -20.0200  -54.7642 H         1 UNK         0.0600 
    237 H237       -1.7165  -19.6639  -56.0319 H         1 UNK         0.0600 
    238 H238       -2.3535  -21.2620  -56.3901 H         1 UNK         0.0600 
    239 H239       -0.9564  -21.0790  -55.3301 H         1 UNK         0.0600 
    240 H240       -4.2100  -19.3188  -52.6549 H         1 UNK         0.3000 
    241 H241       -4.0023  -17.6495  -51.2640 H         1 UNK         0.0600 
    242 H242       -2.2863  -20.5952  -50.7609 H         1 UNK         0.3800 
    243 H243       -2.2085  -20.4193  -49.0213 H         1 UNK         0.3800 
    244 H244       -2.0256  -16.8266  -52.8537 H         1 UNK         0.0800 
    245 H245       -1.0036  -17.2501  -51.5296 H         1 UNK         0.0800 
    246 H246       -1.6025  -15.7871  -48.8829 H         1 UNK         0.0800 
    247 H247       -1.4029  -14.1111  -49.3020 H         1 UNK         0.0800 
@<TRIPOS>BOND
     1    1    2 1    
     2    1  127 1    
     3    1  128 1    
     4    1  129 1    
     5    2    3 2    
     6    2    4 am   BACKBONE|DICT|INTERRES
     7    4    5 1    
     8    4  130 1    
     9    5    6 1    
    10    5   65 1    
    11    5  131 1    
    12    6    7 1    
    13    6  132 1    
    14    6  133 1    
    15    7    8 1    
    16    8    9 1    
    17    8  134 1    
    18    8  135 1    
    19    9   10 ar   
    20    9   14 ar   
    21   10   11 ar   
    22   10  136 1    
    23   11   12 ar   
    24   11  126 1    
    25   12   13 ar   
    26   12  137 1    
    27   13   14 ar   
    28   13   15 1    
    29   14  138 1    
    30   15   16 1    
    31   15  139 1    
    32   15  140 1    
    33   16   17 1    
    34   17   18 1    
    35   17  141 1    
    36   17  142 1    
    37   18   19 1    
    38   18   67 1    
    39   18  143 1    
    40   19   20 am   BACKBONE|DICT|INTERRES
    41   19  144 1    
    42   20   21 2    
    43   20   22 1    
    44   22   23 1    
    45   22   24 1    
    46   22  145 1    
    47   23  146 1    
    48   23  147 1    
    49   23  148 1    
    50   24   25 am   BACKBONE|DICT|INTERRES
    51   24  149 1    
    52   25   26 2    
    53   25   27 1    
    54   27   28 1    
    55   27   29 1    
    56   27  150 1    
    57   28  151 1    
    58   28  152 1    
    59   28  153 1    
    60   29   30 am   BACKBONE|DICT|INTERRES
    61   29  154 1    
    62   30   31 2    
    63   30   32 1    
    64   32   33 1    
    65   32   34 1    
    66   32  155 1    
    67   33  156 1    
    68   33  157 1    
    69   33  158 1    
    70   34   35 am   BACKBONE|DICT|INTERRES
    71   34  159 1    
    72   35   36 2    
    73   35   37 1    
    74   37   38 1    
    75   37   39 1    
    76   37  160 1    
    77   38  161 1    
    78   38  162 1    
    79   38  163 1    
    80   39   40 am   BACKBONE|DICT|INTERRES
    81   39  164 1    
    82   40   41 2    
    83   40   42 1    
    84   42   43 1    
    85   42   44 1    
    86   42  165 1    
    87   43  166 1    
    88   43  167 1    
    89   43  168 1    
    90   44   45 am   BACKBONE|DICT|INTERRES
    91   44  169 1    
    92   45   46 2    
    93   45   47 1    
    94   47   48 1    
    95   47   49 1    
    96   47  170 1    
    97   48  171 1    
    98   48  172 1    
    99   48  173 1    
   100   49   50 am   BACKBONE|DICT|INTERRES
   101   49  174 1    
   102   50   51 2    
   103   50   52 1    
   104   52   53 1    
   105   52   54 1    
   106   52  175 1    
   107   53  176 1    
   108   53  177 1    
   109   53  178 1    
   110   54   55 am   BACKBONE|DICT|INTERRES
   111   54  179 1    
   112   55   56 2    
   113   55   57 1    
   114   57   58 1    
   115   57   59 1    
   116   57  180 1    
   117   58  181 1    
   118   58  182 1    
   119   58  183 1    
   120   59   60 am   BACKBONE|DICT|INTERRES
   121   59  184 1    
   122   60   61 2    
   123   60   62 1    
   124   62   63 1    
   125   62   64 1    
   126   62  185 1    
   127   63  186 1    
   128   63  187 1    
   129   63  188 1    
   130   64   65 am   BACKBONE|DICT|INTERRES
   131   64  189 1    
   132   65   66 2    
   133   67   68 2    
   134   67   69 am   BACKBONE|DICT|INTERRES
   135   69   70 1    
   136   69  190 1    
   137   70   71 1    
   138   70   72 1    
   139   70  191 1    
   140   71  192 1    
   141   71  193 1    
   142   71  194 1    
   143   72   73 2    
   144   72   74 am   BACKBONE|DICT|INTERRES
   145   74   75 1    
   146   74  195 1    
   147   75   76 1    
   148   75   77 1    
   149   75  196 1    
   150   76  197 1    
   151   76  198 1    
   152   76  199 1    
   153   77   78 2    
   154   77   79 am   BACKBONE|DICT|INTERRES
   155   79   80 1    
   156   79  200 1    
   157   80   81 1    
   158   80   82 1    
   159   80  201 1    
   160   81  202 1    
   161   81  203 1    
   162   81  204 1    
   163   82   83 2    
   164   82   84 am   BACKBONE|DICT|INTERRES
   165   84   85 1    
   166   84  205 1    
   167   85   86 1    
   168   85   87 1    
   169   85  206 1    
   170   86  207 1    
   171   86  208 1    
   172   86  209 1    
   173   87   88 2    
   174   87   89 am   BACKBONE|DICT|INTERRES
   175   89   90 1    
   176   89  210 1    
   177   90   91 1    
   178   90   92 1    
   179   90  211 1    
   180   91  212 1    
   181   91  213 1    
   182   91  214 1    
   183   92   93 2    
   184   92   94 am   BACKBONE|DICT|INTERRES
   185   94   95 1    
   186   94  215 1    
   187   95   96 1    
   188   95   97 1    
   189   95  216 1    
   190   96  217 1    
   191   96  218 1    
   192   96  219 1    
   193   97   98 2    
   194   97   99 am   BACKBONE|DICT|INTERRES
   195   99  100 1    
   196   99  220 1    
   197  100  101 1    
   198  100  102 1    
   199  100  221 1    
   200  101  222 1    
   201  101  223 1    
   202  101  224 1    
   203  102  103 2    
   204  102  104 am   BACKBONE|DICT|INTERRES
   205  104  105 1    
   206  104  225 1    
   207  105  106 1    
   208  105  107 1    
   209  105  226 1    
   210  106  227 1    
   211  106  228 1    
   212  106  229 1    
   213  107  108 2    
   214  107  109 am   BACKBONE|DICT|INTERRES
   215  109  110 1    
   216  109  230 1    
   217  110  111 1    
   218  110  112 1    
   219  110  231 1    
   220  111  232 1    
   221  111  233 1    
   222  111  234 1    
   223  112  113 2    
   224  112  114 am   BACKBONE|DICT|INTERRES
   225  114  115 1    
   226  114  235 1    
   227  115  116 1    
   228  115  117 1    
   229  115  236 1    
   230  116  237 1    
   231  116  238 1    
   232  116  239 1    
   233  117  118 2    
   234  117  119 am   BACKBONE|DICT|INTERRES
   235  119  120 1    
   236  119  240 1    
   237  120  121 1    
   238  120  124 1    
   239  120  241 1    
   240  121  122 am   BACKBONE|DICT|INTERRES
   241  121  123 2    
   242  122  242 1    
   243  122  243 1    
   244  124  125 1    
   245  124  244 1    
   246  124  245 1    
   247  125  126 1    
   248  126  246 1    
   249  126  247 1    
@<TRIPOS>SUBSTRUCTURE
     1 UNK         1 GROUP             0       ****    0 ROOT    
