@<TRIPOS>MOLECULE
3R540
247   249    1
SMALL
USER_CHARGES


@<TRIPOS>ATOM
      1 CA         -2.2740  -13.7830  -49.6113 C.3       0 UNK        -0.1800 
      2 C          -0.8928  -13.5506  -49.0174 C.2       0 UNK         0.5000 
      3 O          -0.6475  -13.9226  -47.8709 O.2       0 UNK        -0.5000 
      4 N           0.0119  -12.9335  -49.7922 N.am      1 UNK        -0.5000 
      5 CA          1.4171  -12.6557  -49.4405 C.3       1 UNK         0.1400 
      6 C6          2.2594  -13.9441  -49.2051 C.3       23 UNK        -0.0398 
      7 S7          2.3425  -15.0551  -50.6510 S.3       23 UNK        -0.2404 
      8 C8          0.9029  -16.1405  -50.3824 C.3       23 UNK        -0.0205 
      9 C9          1.1579  -17.5712  -50.8316 C.ar      23 UNK        -0.0193 
     10 C10         1.5195  -17.8496  -52.1543 C.ar      23 UNK        -0.1150 
     11 C11         1.7305  -19.1656  -52.5782 C.ar      23 UNK        -0.0193 
     12 C12         1.5605  -20.2094  -51.6606 C.ar      23 UNK        -0.1150 
     13 C13         1.1753  -19.9465  -50.3436 C.ar      23 UNK        -0.0193 
     14 C14         0.9896  -18.6261  -49.9301 C.ar      23 UNK        -0.1150 
     15 C15         0.9254  -21.0928  -49.3806 C.3       23 UNK        -0.0205 
     16 S16         2.4727  -21.7307  -48.6767 S.3       23 UNK        -0.2404 
     17 C17         1.7912  -23.1567  -47.7771 C.3       23 UNK        -0.0398 
     18 CA          2.7431  -23.7196  -46.6967 C.3       11 UNK         0.1400 
     19 N           2.9834  -22.7522  -45.6189 N.am      11 UNK        -0.5000 
     20 C           3.9773  -22.8453  -44.7253 C.2       10 UNK         0.5000 
     21 O           4.8480  -23.7156  -44.7601 O.2       10 UNK        -0.5000 
     22 CA          3.9778  -21.8189  -43.5766 C.3       10 UNK         0.1400 
     23 CB          4.6533  -20.5097  -44.0116 C.3       10 UNK        -0.1800 
     24 N           2.6337  -21.5413  -43.0622 N.am      10 UNK        -0.5000 
     25 C           1.8690  -22.4383  -42.4213 C.2       9 UNK         0.5000 
     26 O           2.2337  -23.5851  -42.1628 O.2       9 UNK        -0.5000 
     27 CA          0.4449  -22.0035  -42.0287 C.3       9 UNK         0.1400 
     28 CB          0.4593  -21.2698  -40.6798 C.3       9 UNK        -0.1800 
     29 N          -0.2093  -21.1678  -43.0360 N.am      9 UNK        -0.5000 
     30 C          -0.5020  -21.5595  -44.2847 C.2       8 UNK         0.5000 
     31 O          -0.2559  -22.6797  -44.7289 O.2       8 UNK        -0.5000 
     32 CA         -1.1057  -20.4961  -45.2186 C.3       8 UNK         0.1400 
     33 CB         -2.5824  -20.2460  -44.8791 C.3       8 UNK        -0.1800 
     34 N          -0.3625  -19.2367  -45.1695 N.am      8 UNK        -0.5000 
     35 C           0.9420  -19.1085  -45.4560 C.2       7 UNK         0.5000 
     36 O           1.6495  -20.0319  -45.8559 O.2       7 UNK        -0.5000 
     37 CA          1.5704  -17.7324  -45.1850 C.3       7 UNK         0.1400 
     38 CB          1.2736  -16.7591  -46.3372 C.3       7 UNK        -0.1800 
     39 N           1.1013  -17.1833  -43.9094 N.am      7 UNK        -0.5000 
     40 C           1.4842  -17.6561  -42.7122 C.2       6 UNK         0.5000 
     41 O           2.3321  -18.5369  -42.5725 O.2       6 UNK        -0.5000 
     42 CA          0.7713  -17.1038  -41.4626 C.3       6 UNK         0.1400 
     43 CB          1.5331  -15.9225  -40.8457 C.3       6 UNK        -0.1800 
     44 N          -0.6137  -16.7179  -41.7302 N.am      6 UNK        -0.5000 
     45 C          -1.6026  -17.6050  -41.9117 C.2       5 UNK         0.5000 
     46 O          -1.4448  -18.8221  -41.8264 O.2       5 UNK        -0.5000 
     47 CA         -2.9858  -17.0523  -42.3042 C.3       5 UNK         0.1400 
     48 CB         -3.8266  -16.7651  -41.0520 C.3       5 UNK        -0.1800 
     49 N          -2.9215  -15.8454  -43.1298 N.am      5 UNK        -0.5000 
     50 C          -2.3183  -15.7613  -44.3228 C.2       4 UNK         0.5000 
     51 O          -1.7580  -16.7139  -44.8654 O.2       4 UNK        -0.5000 
     52 CA         -2.3077  -14.3865  -45.0173 C.3       4 UNK         0.1400 
     53 CB         -3.3919  -13.4163  -44.5002 C.3       4 UNK        -0.1800 
     54 N          -0.9920  -13.7424  -44.9673 N.am      4 UNK        -0.5000 
     55 C          -0.2630  -13.4551  -43.8767 C.2       3 UNK         0.5000 
     56 O          -0.5628  -13.8182  -42.7380 O.2       3 UNK        -0.5000 
     57 CA          1.0037  -12.5964  -44.0736 C.3       3 UNK         0.1400 
     58 CB          2.2718  -13.4613  -44.1437 C.3       3 UNK        -0.1800 
     59 N           0.9661  -11.7438  -45.2599 N.am      3 UNK        -0.5000 
     60 C           0.1696  -10.6889  -45.4646 C.2       2 UNK         0.5000 
     61 O          -0.6385  -10.2755  -44.6327 O.2       2 UNK        -0.5000 
     62 CA          0.2759   -9.9828  -46.8353 C.3       2 UNK         0.1400 
     63 CB          1.3236   -8.8541  -46.7993 C.3       2 UNK        -0.1800 
     64 N           0.4965  -10.8891  -47.9752 N.am      2 UNK        -0.5000 
     65 C           1.5557  -11.6667  -48.2548 C.2       1 UNK         0.5000 
     66 O           2.5918  -11.6562  -47.5885 O.2       1 UNK        -0.5000 
     67 C           2.1613  -25.0533  -46.1777 C.2       11 UNK         0.5000 
     68 O           2.2807  -26.0662  -46.8678 O.2       11 UNK        -0.5000 
     69 N           1.4957  -25.0100  -45.0137 N.am      12 UNK        -0.5000 
     70 CA          0.5849  -26.0221  -44.4673 C.3       12 UNK         0.1400 
     71 CB          1.3196  -27.3416  -44.1517 C.3       12 UNK        -0.1800 
     72 C          -0.6601  -26.2027  -45.3657 C.2       12 UNK         0.5000 
     73 O          -1.1357  -27.3225  -45.5629 O.2       12 UNK        -0.5000 
     74 N          -1.1486  -25.0805  -45.9077 N.am      13 UNK        -0.5000 
     75 CA         -2.3228  -24.9825  -46.7666 C.3       13 UNK         0.1400 
     76 CB         -2.0724  -23.8803  -47.8103 C.3       13 UNK        -0.1800 
     77 C          -3.5715  -24.6530  -45.9330 C.2       13 UNK         0.5000 
     78 O          -3.4606  -24.1056  -44.8332 O.2       13 UNK        -0.5000 
     79 N          -4.7469  -24.9643  -46.4926 N.am      14 UNK        -0.5000 
     80 CA         -6.0523  -24.6943  -45.8829 C.3       14 UNK         0.1400 
     81 CB         -7.1206  -25.5250  -46.6112 C.3       14 UNK        -0.1800 
     82 C          -6.4401  -23.2016  -45.8890 C.2       14 UNK         0.5000 
     83 O          -7.2605  -22.7885  -45.0684 O.2       14 UNK        -0.5000 
     84 N          -5.8562  -22.4249  -46.8082 N.am      15 UNK        -0.5000 
     85 CA         -6.0759  -20.9951  -46.9825 C.3       15 UNK         0.1400 
     86 CB         -7.3810  -20.7577  -47.7619 C.3       15 UNK        -0.1800 
     87 C          -4.8720  -20.3970  -47.7207 C.2       15 UNK         0.5000 
     88 O          -4.1362  -21.1291  -48.3910 O.2       15 UNK        -0.5000 
     89 N          -4.6989  -19.0758  -47.5887 N.am      16 UNK        -0.5000 
     90 CA         -3.6157  -18.3006  -48.1968 C.3       16 UNK         0.1400 
     91 CB         -3.7215  -16.8418  -47.7319 C.3       16 UNK        -0.1800 
     92 C          -3.6430  -18.3839  -49.7327 C.2       16 UNK         0.5000 
     93 O          -4.7246  -18.3504  -50.3228 O.2       16 UNK        -0.5000 
     94 N          -2.4548  -18.5279  -50.3362 N.am      17 UNK        -0.5000 
     95 CA         -2.2239  -18.7553  -51.7693 C.3       17 UNK         0.1400 
     96 CB         -2.5939  -17.5061  -52.5950 C.3       17 UNK        -0.1800 
     97 C          -2.8889  -20.0433  -52.3000 C.2       17 UNK         0.5000 
     98 O          -3.2519  -20.1030  -53.4762 O.2       17 UNK        -0.5000 
     99 N          -3.0434  -21.0480  -51.4197 N.am      18 UNK        -0.5000 
    100 CA        -3.7658  -22.3057  -51.6428 C.3       18 UNK         0.1400 
    101 CB        -2.9903  -23.2115  -52.6202 C.3       18 UNK        -0.1800 
    102 C         -5.2234  -22.0396  -52.0727 C.2       18 UNK         0.5000 
    103 O         -5.6861  -22.5632  -53.0888 O.2       18 UNK        -0.5000 
    104 N         -5.8739  -21.1253  -51.3374 N.am      19 UNK        -0.5000 
    105 CA        -7.1740  -20.4834  -51.5779 C.3       19 UNK         0.1400 
    106 CB        -8.3152  -21.5160  -51.6512 C.3       19 UNK        -0.1800 
    107 C         -7.1908  -19.5420  -52.8000 C.2       19 UNK         0.5000 
    108 O         -7.7532  -18.4499  -52.7143 O.2       19 UNK        -0.5000 
    109 N         -6.5657  -19.9758  -53.8974 N.am      20 UNK        -0.5000 
    110 CA        -6.3771  -19.2550  -55.1541 C.3       20 UNK         0.1400 
    111 CB        -7.7265  -19.0350  -55.8677 C.3       20 UNK        -0.1800 
    112 C         -5.4053  -19.9908  -56.0947 C.2       20 UNK         0.5000 
    113 O         -4.8642  -19.3554  -57.0012 O.2       20 UNK        -0.5000 
    114 N         -5.2043  -21.3051  -55.8967 N.am      21 UNK        -0.5000 
    115 CA        -4.4560  -22.1875  -56.7980 C.3       21 UNK         0.1400 
    116 CB        -4.6078  -23.6387  -56.3167 C.3       21 UNK        -0.1800 
    117 C         -2.9687  -21.8294  -56.9928 C.2       21 UNK         0.5000 
    118 O         -2.4059  -22.1730  -58.0336 O.2       21 UNK        -0.5000 
    119 N         -2.3645  -21.1410  -56.0170 N.am      22 UNK        -0.5000 
    120 CA        -0.9987  -20.6007  -56.0988 C.3       22 UNK         0.1400 
    121 C         -0.9141  -19.2082  -56.7969 C.2       22 UNK         0.5000 
    122 N         -2.0178  -18.5835  -57.1931 N.am      22 UNK        -0.7600 
    123 O          0.1769  -18.6842  -57.0014 O.2       22 UNK        -0.5000 
    124 C124       -0.3238  -20.6006  -54.7019 C.3       23 UNK        -0.0398 
    125 S125        1.4651  -20.9508  -54.7551 S.3       23 UNK        -0.2404 
    126 C126        2.1574  -19.4277  -54.0227 C.3       23 UNK        -0.0205 
    127 H127       -2.3785  -14.8230  -49.9199 H         1 UNK         0.0600 
    128 H128       -2.4495  -13.1494  -50.4808 H         1 UNK         0.0600 
    129 H129       -3.0444  -13.5650  -48.8716 H         1 UNK         0.0600 
    130 H130       -0.2568  -12.6485  -50.7239 H         1 UNK         0.3000 
    131 H131        1.8448  -12.1370  -50.2996 H         1 UNK         0.0600 
    132 H132        1.9037  -14.4943  -48.3337 H         1 UNK         0.0800 
    133 H133        3.2936  -13.6802  -48.9780 H         1 UNK         0.0800 
    134 H134        0.6177  -16.1251  -49.3302 H         1 UNK         0.0800 
    135 H135        0.0527  -15.7435  -50.9378 H         1 UNK         0.0800 
    136 H136        1.6435  -17.0338  -52.8528 H         1 UNK         0.1150 
    137 H137        1.7201  -21.2331  -51.9681 H         1 UNK         0.1150 
    138 H138        0.6982  -18.4255  -48.9092 H         1 UNK         0.1150 
    139 H139        0.2695  -20.7726  -48.5693 H         1 UNK         0.0800 
    140 H140        0.4028  -21.8965  -49.9021 H         1 UNK         0.0800 
    141 H141        0.8424  -22.8664  -47.3218 H         1 UNK         0.0800 
    142 H142        1.5544  -23.9189  -48.5224 H         1 UNK         0.0800 
    143 H143        3.7000  -23.9489  -47.1707 H         1 UNK         0.0600 
    144 H144        2.3509  -21.9594  -45.5685 H         1 UNK         0.3000 
    145 H145        4.5648  -22.2416  -42.7586 H         1 UNK         0.0600 
    146 H146        4.7299  -19.8103  -43.1791 H         1 UNK         0.0600 
    147 H147        4.1043  -20.0171  -44.8138 H         1 UNK         0.0600 
    148 H148        5.6653  -20.6950  -44.3737 H         1 UNK         0.0600 
    149 H149        2.2805  -20.6016  -43.1992 H         1 UNK         0.3000 
    150 H150       -0.1556  -22.9085  -41.9154 H         1 UNK         0.0600 
    151 H151        1.0255  -20.3400  -40.7353 H         1 UNK         0.0600 
    152 H152       -0.5515  -21.0287  -40.3505 H         1 UNK         0.0600 
    153 H153        0.9152  -21.8863  -39.9041 H         1 UNK         0.0600 
    154 H154       -0.4925  -20.2391  -42.7363 H         1 UNK         0.3000 
    155 H155       -1.0472  -20.8680  -46.2432 H         1 UNK         0.0600 
    156 H156       -3.1848  -21.1259  -45.1089 H         1 UNK         0.0600 
    157 H157       -2.9844  -19.4093  -45.4474 H         1 UNK         0.0600 
    158 H158       -2.7266  -20.0219  -43.8229 H         1 UNK         0.0600 
    159 H159       -0.8772  -18.4066  -44.8883 H         1 UNK         0.3000 
    160 H160        2.6534  -17.8599  -45.1256 H         1 UNK         0.0600 
    161 H161        0.2069  -16.6583  -46.5364 H         1 UNK         0.0600 
    162 H162        1.7468  -17.1027  -47.2570 H         1 UNK         0.0600 
    163 H163        1.6664  -15.7670  -46.1317 H         1 UNK         0.0600 
    164 H164        0.3369  -16.5242  -43.9532 H         1 UNK         0.3000 
    165 H165        0.7655  -17.9043  -40.7199 H         1 UNK         0.0600 
    166 H166        1.1272  -15.6677  -39.8667 H         1 UNK         0.0600 
    167 H167        2.5879  -16.1631  -40.7067 H         1 UNK         0.0600 
    168 H168        1.4753  -15.0307  -41.4656 H         1 UNK         0.0600 
    169 H169       -0.8011  -15.7295  -41.8627 H         1 UNK         0.3000 
    170 H170       -3.4934  -17.8229  -42.8876 H         1 UNK         0.0600 
    171 H171       -3.9113  -17.6547  -40.4263 H         1 UNK         0.0600 
    172 H172       -3.3843  -15.9757  -40.4429 H         1 UNK         0.0600 
    173 H173       -4.8385  -16.4586  -41.3175 H         1 UNK         0.0600 
    174 H174       -3.3254  -15.0072  -42.7383 H         1 UNK         0.3000 
    175 H175       -2.5192  -14.5795  -46.0691 H         1 UNK         0.0600 
    176 H176       -3.2171  -13.1099  -43.4683 H         1 UNK         0.0600 
    177 H177       -3.4192  -12.5115  -45.1077 H         1 UNK         0.0600 
    178 H178       -4.3836  -13.8675  -44.5536 H         1 UNK         0.0600 
    179 H179       -0.6231  -13.4837  -45.8767 H         1 UNK         0.3000 
    180 H180        1.0830  -11.9507  -43.1967 H         1 UNK         0.0600 
    181 H181        2.2760  -14.2461  -43.3896 H         1 UNK         0.0600 
    182 H182        3.1625  -12.8540  -43.9821 H         1 UNK         0.0600 
    183 H183        2.3785  -13.9394  -45.1156 H         1 UNK         0.0600 
    184 H184        1.6282  -11.9608  -45.9989 H         1 UNK         0.3000 
    185 H185       -0.6948   -9.5187  -47.0169 H         1 UNK         0.0600 
    186 H186        1.0776   -8.1225  -46.0286 H         1 UNK         0.0600 
    187 H187        2.3236   -9.2291  -46.5807 H         1 UNK         0.0600 
    188 H188        1.3640   -8.3229  -47.7502 H         1 UNK         0.0600 
    189 H189       -0.3062  -11.0061  -48.5774 H         1 UNK         0.3000 
    190 H190        1.4424  -24.1079  -44.5575 H         1 UNK         0.3000 
    191 H191        0.2199  -25.6169  -43.5225 H         1 UNK         0.0600 
    192 H192        0.6706  -28.0242  -43.6021 H         1 UNK         0.0600 
    193 H193        2.2000  -27.1631  -43.5343 H         1 UNK         0.0600 
    194 H194        1.6414  -27.8585  -45.0558 H         1 UNK         0.0600 
    195 H195       -0.7652  -24.1951  -45.5823 H         1 UNK         0.3000 
    196 H196       -2.4823  -25.9297  -47.2860 H         1 UNK         0.0600 
    197 H197       -1.9246  -22.9066  -47.3418 H         1 UNK         0.0600 
    198 H198       -1.1911  -24.1004  -48.4125 H         1 UNK         0.0600 
    199 H199       -2.9154  -23.7873  -48.4955 H         1 UNK         0.0600 
    200 H200       -4.7590  -25.4125  -47.3975 H         1 UNK         0.3000 
    201 H201       -6.0193  -25.0202  -44.8410 H         1 UNK         0.0600 
    202 H202       -8.1044  -25.3745  -46.1645 H         1 UNK         0.0600 
    203 H203       -6.8996  -26.5910  -46.5535 H         1 UNK         0.0600 
    204 H204       -7.1939  -25.2523  -47.6648 H         1 UNK         0.0600 
    205 H205       -5.1529  -22.8150  -47.4217 H         1 UNK         0.3000 
    206 H206       -6.1413  -20.5195  -46.0015 H         1 UNK         0.0600 
    207 H207       -8.2482  -21.0863  -47.1891 H         1 UNK         0.0600 
    208 H208       -7.5250  -19.7006  -47.9882 H         1 UNK         0.0600 
    209 H209       -7.3819  -21.3031  -48.7048 H         1 UNK         0.0600 
    210 H210       -5.3754  -18.5474  -47.0581 H         1 UNK         0.3000 
    211 H211       -2.6731  -18.7137  -47.8312 H         1 UNK         0.0600 
    212 H212       -4.5784  -16.3348  -48.1777 H         1 UNK         0.0600 
    213 H213       -2.8253  -16.2832  -48.0029 H         1 UNK         0.0600 
    214 H214       -3.8269  -16.7808  -46.6499 H         1 UNK         0.0600 
    215 H215       -1.6239  -18.5424  -49.7634 H         1 UNK         0.3000 
    216 H216       -1.1545  -18.9160  -51.8870 H         1 UNK         0.0600 
    217 H217       -2.1006  -16.6158  -52.2054 H         1 UNK         0.0600 
    218 H218       -3.6689  -17.3240  -52.5938 H         1 UNK         0.0600 
    219 H219       -2.2837  -17.6182  -53.6348 H         1 UNK         0.0600 
    220 H220       -2.7483  -20.8891  -50.4661 H         1 UNK         0.3000 
    221 H221       -3.8158  -22.8184  -50.6814 H         1 UNK         0.0600 
    222 H222       -3.4889  -24.1738  -52.7410 H         1 UNK         0.0600 
    223 H223       -2.9016  -22.7619  -53.6084 H         1 UNK         0.0600 
    224 H224       -1.9831  -23.4107  -52.2543 H         1 UNK         0.0600 
    225 H225       -5.3424  -20.7004  -50.5884 H         1 UNK         0.3000 
    226 H226       -7.3533  -19.8548  -50.7045 H         1 UNK         0.0600 
    227 H227       -8.3184  -22.1687  -50.7785 H         1 UNK         0.0600 
    228 H228       -9.2843  -21.0175  -51.6886 H         1 UNK         0.0600 
    229 H229       -8.2417  -22.1452  -52.5385 H         1 UNK         0.0600 
    230 H230       -6.1044  -20.8752  -53.8157 H         1 UNK         0.3000 
    231 H231       -5.9315  -18.2853  -54.9239 H         1 UNK         0.0600 
    232 H232       -7.5845  -18.5523  -56.8355 H         1 UNK         0.0600 
    233 H233       -8.3909  -18.3935  -55.2896 H         1 UNK         0.0600 
    234 H234       -8.2424  -19.9794  -56.0445 H         1 UNK         0.0600 
    235 H235       -5.6553  -21.7711  -55.1217 H         1 UNK         0.3000 
    236 H236       -4.9267  -22.1124  -57.7804 H         1 UNK         0.0600 
    237 H237       -5.6554  -23.9394  -56.2945 H         1 UNK         0.0600 
    238 H238       -4.0868  -24.3295  -56.9810 H         1 UNK         0.0600 
    239 H239       -4.2005  -23.7766  -55.3156 H         1 UNK         0.0600 
    240 H240       -2.8996  -20.8641  -55.1975 H         1 UNK         0.3000 
    241 H241       -0.4252  -21.2767  -56.7356 H         1 UNK         0.0600 
    242 H242       -2.9376  -18.9924  -57.0609 H         1 UNK         0.3800 
    243 H243       -1.9372  -17.6892  -57.6497 H         1 UNK         0.3800 
    244 H244       -0.7557  -21.3815  -54.0747 H         1 UNK         0.0800 
    245 H245       -0.5160  -19.6638  -54.1782 H         1 UNK         0.0800 
    246 H246        1.8798  -18.5860  -54.6595 H         1 UNK         0.0800 
    247 H247        3.2456  -19.4913  -54.0528 H         1 UNK         0.0800 
@<TRIPOS>BOND
     1    1    2 1    
     2    1  127 1    
     3    1  128 1    
     4    1  129 1    
     5    2    3 2    
     6    2    4 am   BACKBONE|DICT|INTERRES
     7    4    5 1    
     8    4  130 1    
     9    5    6 1    
    10    5   65 1    
    11    5  131 1    
    12    6    7 1    
    13    6  132 1    
    14    6  133 1    
    15    7    8 1    
    16    8    9 1    
    17    8  134 1    
    18    8  135 1    
    19    9   10 ar   
    20    9   14 ar   
    21   10   11 ar   
    22   10  136 1    
    23   11   12 ar   
    24   11  126 1    
    25   12   13 ar   
    26   12  137 1    
    27   13   14 ar   
    28   13   15 1    
    29   14  138 1    
    30   15   16 1    
    31   15  139 1    
    32   15  140 1    
    33   16   17 1    
    34   17   18 1    
    35   17  141 1    
    36   17  142 1    
    37   18   19 1    
    38   18   67 1    
    39   18  143 1    
    40   19   20 am   BACKBONE|DICT|INTERRES
    41   19  144 1    
    42   20   21 2    
    43   20   22 1    
    44   22   23 1    
    45   22   24 1    
    46   22  145 1    
    47   23  146 1    
    48   23  147 1    
    49   23  148 1    
    50   24   25 am   BACKBONE|DICT|INTERRES
    51   24  149 1    
    52   25   26 2    
    53   25   27 1    
    54   27   28 1    
    55   27   29 1    
    56   27  150 1    
    57   28  151 1    
    58   28  152 1    
    59   28  153 1    
    60   29   30 am   BACKBONE|DICT|INTERRES
    61   29  154 1    
    62   30   31 2    
    63   30   32 1    
    64   32   33 1    
    65   32   34 1    
    66   32  155 1    
    67   33  156 1    
    68   33  157 1    
    69   33  158 1    
    70   34   35 am   BACKBONE|DICT|INTERRES
    71   34  159 1    
    72   35   36 2    
    73   35   37 1    
    74   37   38 1    
    75   37   39 1    
    76   37  160 1    
    77   38  161 1    
    78   38  162 1    
    79   38  163 1    
    80   39   40 am   BACKBONE|DICT|INTERRES
    81   39  164 1    
    82   40   41 2    
    83   40   42 1    
    84   42   43 1    
    85   42   44 1    
    86   42  165 1    
    87   43  166 1    
    88   43  167 1    
    89   43  168 1    
    90   44   45 am   BACKBONE|DICT|INTERRES
    91   44  169 1    
    92   45   46 2    
    93   45   47 1    
    94   47   48 1    
    95   47   49 1    
    96   47  170 1    
    97   48  171 1    
    98   48  172 1    
    99   48  173 1    
   100   49   50 am   BACKBONE|DICT|INTERRES
   101   49  174 1    
   102   50   51 2    
   103   50   52 1    
   104   52   53 1    
   105   52   54 1    
   106   52  175 1    
   107   53  176 1    
   108   53  177 1    
   109   53  178 1    
   110   54   55 am   BACKBONE|DICT|INTERRES
   111   54  179 1    
   112   55   56 2    
   113   55   57 1    
   114   57   58 1    
   115   57   59 1    
   116   57  180 1    
   117   58  181 1    
   118   58  182 1    
   119   58  183 1    
   120   59   60 am   BACKBONE|DICT|INTERRES
   121   59  184 1    
   122   60   61 2    
   123   60   62 1    
   124   62   63 1    
   125   62   64 1    
   126   62  185 1    
   127   63  186 1    
   128   63  187 1    
   129   63  188 1    
   130   64   65 am   BACKBONE|DICT|INTERRES
   131   64  189 1    
   132   65   66 2    
   133   67   68 2    
   134   67   69 am   BACKBONE|DICT|INTERRES
   135   69   70 1    
   136   69  190 1    
   137   70   71 1    
   138   70   72 1    
   139   70  191 1    
   140   71  192 1    
   141   71  193 1    
   142   71  194 1    
   143   72   73 2    
   144   72   74 am   BACKBONE|DICT|INTERRES
   145   74   75 1    
   146   74  195 1    
   147   75   76 1    
   148   75   77 1    
   149   75  196 1    
   150   76  197 1    
   151   76  198 1    
   152   76  199 1    
   153   77   78 2    
   154   77   79 am   BACKBONE|DICT|INTERRES
   155   79   80 1    
   156   79  200 1    
   157   80   81 1    
   158   80   82 1    
   159   80  201 1    
   160   81  202 1    
   161   81  203 1    
   162   81  204 1    
   163   82   83 2    
   164   82   84 am   BACKBONE|DICT|INTERRES
   165   84   85 1    
   166   84  205 1    
   167   85   86 1    
   168   85   87 1    
   169   85  206 1    
   170   86  207 1    
   171   86  208 1    
   172   86  209 1    
   173   87   88 2    
   174   87   89 am   BACKBONE|DICT|INTERRES
   175   89   90 1    
   176   89  210 1    
   177   90   91 1    
   178   90   92 1    
   179   90  211 1    
   180   91  212 1    
   181   91  213 1    
   182   91  214 1    
   183   92   93 2    
   184   92   94 am   BACKBONE|DICT|INTERRES
   185   94   95 1    
   186   94  215 1    
   187   95   96 1    
   188   95   97 1    
   189   95  216 1    
   190   96  217 1    
   191   96  218 1    
   192   96  219 1    
   193   97   98 2    
   194   97   99 am   BACKBONE|DICT|INTERRES
   195   99  100 1    
   196   99  220 1    
   197  100  101 1    
   198  100  102 1    
   199  100  221 1    
   200  101  222 1    
   201  101  223 1    
   202  101  224 1    
   203  102  103 2    
   204  102  104 am   BACKBONE|DICT|INTERRES
   205  104  105 1    
   206  104  225 1    
   207  105  106 1    
   208  105  107 1    
   209  105  226 1    
   210  106  227 1    
   211  106  228 1    
   212  106  229 1    
   213  107  108 2    
   214  107  109 am   BACKBONE|DICT|INTERRES
   215  109  110 1    
   216  109  230 1    
   217  110  111 1    
   218  110  112 1    
   219  110  231 1    
   220  111  232 1    
   221  111  233 1    
   222  111  234 1    
   223  112  113 2    
   224  112  114 am   BACKBONE|DICT|INTERRES
   225  114  115 1    
   226  114  235 1    
   227  115  116 1    
   228  115  117 1    
   229  115  236 1    
   230  116  237 1    
   231  116  238 1    
   232  116  239 1    
   233  117  118 2    
   234  117  119 am   BACKBONE|DICT|INTERRES
   235  119  120 1    
   236  119  240 1    
   237  120  121 1    
   238  120  124 1    
   239  120  241 1    
   240  121  122 am   BACKBONE|DICT|INTERRES
   241  121  123 2    
   242  122  242 1    
   243  122  243 1    
   244  124  125 1    
   245  124  244 1    
   246  124  245 1    
   247  125  126 1    
   248  126  246 1    
   249  126  247 1    
@<TRIPOS>SUBSTRUCTURE
     1 UNK         1 GROUP             0       ****    0 ROOT    
