@<TRIPOS>MOLECULE
3R540
247   249    1
SMALL
USER_CHARGES


@<TRIPOS>ATOM
      1 CA         -0.1269  -13.3995  -44.7568 C.3       0 UNK        -0.1800 
      2 C          -0.6451  -12.1744  -45.4937 C.2       0 UNK         0.5000 
      3 O          -0.6426  -11.0819  -44.9287 O.2       0 UNK        -0.5000 
      4 N          -1.0629  -12.3507  -46.7558 N.am      1 UNK        -0.5000 
      5 CA         -1.6398  -11.3145  -47.6297 C.3       1 UNK         0.1400 
      6 C6         -2.1080  -11.8851  -48.9940 C.3       23 UNK        -0.0398 
      7 S7         -3.0974  -13.4141  -48.8425 S.3       23 UNK        -0.2404 
      8 C8         -2.3214  -14.4507  -50.1257 C.3       23 UNK        -0.0205 
      9 C9         -2.8609  -15.8737  -50.1234 C.ar      23 UNK        -0.0193 
     10 C10        -4.2200  -16.1133  -50.3493 C.ar      23 UNK        -0.1150 
     11 C11        -4.7170  -17.4187  -50.3736 C.ar      23 UNK        -0.0193 
     12 C12        -3.8416  -18.4899  -50.1749 C.ar      23 UNK        -0.1150 
     13 C13        -2.4802  -18.2666  -49.9584 C.ar      23 UNK        -0.0193 
     14 C14        -1.9960  -16.9556  -49.9281 C.ar      23 UNK        -0.1150 
     15 C15        -1.5266  -19.4402  -49.7909 C.3       23 UNK        -0.0205 
     16 S16        -1.0842  -19.7035  -48.0505 S.3       23 UNK        -0.2404 
     17 C17        -2.6126  -20.4269  -47.3643 C.3       23 UNK        -0.0398 
     18 CA         -2.4154  -21.9000  -46.9415 C.3       11 UNK         0.1400 
     19 N          -1.3569  -22.0549  -45.9394 N.am      11 UNK        -0.5000 
     20 C          -0.7512  -23.2116  -45.6449 C.2       10 UNK         0.5000 
     21 O          -0.9708  -24.2664  -46.2389 O.2       10 UNK        -0.5000 
     22 CA          0.2480  -23.1941  -44.4765 C.3       10 UNK         0.1400 
     23 CB          1.6722  -22.9571  -44.9885 C.3       10 UNK        -0.1800 
     24 N          -0.0798  -22.1874  -43.4653 N.am      10 UNK        -0.5000 
     25 C          -1.1464  -22.2571  -42.6554 C.2       9 UNK         0.5000 
     26 O          -1.9897  -23.1511  -42.7414 O.2       9 UNK        -0.5000 
     27 CA         -1.3378  -21.1287  -41.6200 C.3       9 UNK         0.1400 
     28 CB         -1.9113  -21.6468  -40.2855 C.3       9 UNK        -0.1800 
     29 N          -0.1420  -20.3060  -41.4039 N.am      9 UNK        -0.5000 
     30 C           1.0352  -20.6735  -40.8709 C.2       8 UNK         0.5000 
     31 O           1.2615  -21.7983  -40.4244 O.2       8 UNK        -0.5000 
     32 CA          2.1645  -19.6212  -40.8624 C.3       8 UNK         0.1400 
     33 CB          3.4112  -20.1508  -41.5922 C.3       8 UNK        -0.1800 
     34 N           1.7544  -18.3675  -41.4979 N.am      8 UNK        -0.5000 
     35 C           1.2493  -17.3045  -40.8572 C.2       7 UNK         0.5000 
     36 O           1.1412  -17.2318  -39.6330 O.2       7 UNK        -0.5000 
     37 CA          0.7551  -16.1344  -41.7330 C.3       7 UNK         0.1400 
     38 CB          1.8532  -15.0674  -41.8572 C.3       7 UNK        -0.1800 
     39 N           0.3243  -16.5532  -43.0720 N.am      7 UNK        -0.5000 
     40 C          -0.7408  -17.3354  -43.3160 C.2       6 UNK         0.5000 
     41 O          -1.5063  -17.7287  -42.4369 O.2       6 UNK        -0.5000 
     42 CA         -0.9521  -17.8325  -44.7607 C.3       6 UNK         0.1400 
     43 CB         -1.9739  -16.9549  -45.5007 C.3       6 UNK        -0.1800 
     44 N           0.2876  -17.8963  -45.5339 N.am      6 UNK        -0.5000 
     45 C           1.3450  -18.6676  -45.2446 C.2       5 UNK         0.5000 
     46 O           1.3384  -19.5041  -44.3391 O.2       5 UNK        -0.5000 
     47 CA          2.6377  -18.4321  -46.0583 C.3       5 UNK         0.1400 
     48 CB          2.8959  -19.5981  -47.0230 C.3       5 UNK        -0.1800 
     49 N           2.6734  -17.1809  -46.8270 N.am      5 UNK        -0.5000 
     50 C           2.5829  -15.9403  -46.3294 C.2       4 UNK         0.5000 
     51 O           2.3763  -15.6956  -45.1378 O.2       4 UNK        -0.5000 
     52 CA          2.6691  -14.7987  -47.3609 C.3       4 UNK         0.1400 
     53 CB          1.4316  -14.7990  -48.2781 C.3       4 UNK        -0.1800 
     54 N           2.7706  -13.4882  -46.7218 N.am      4 UNK        -0.5000 
     55 C           3.8715  -12.9787  -46.1534 C.2       3 UNK         0.5000 
     56 O           4.9650  -13.5473  -46.1479 O.2       3 UNK        -0.5000 
     57 CA          3.7014  -11.5892  -45.4963 C.3       3 UNK         0.1400 
     58 CB          5.0425  -10.8812  -45.2101 C.3       3 UNK        -0.1800 
     59 N           2.7862  -10.7162  -46.2484 N.am      3 UNK        -0.5000 
     60 C           2.9507  -10.2565  -47.5002 C.2       2 UNK         0.5000 
     61 O           3.9573  -10.4515  -48.1829 O.2       2 UNK        -0.5000 
     62 CA          1.7347   -9.5329  -48.1019 C.3       2 UNK         0.1400 
     63 CB          1.9459   -9.0686  -49.5559 C.3       2 UNK        -0.1800 
     64 N           0.6063  -10.4539  -48.0309 N.am      2 UNK        -0.5000 
     65 C          -0.6785  -10.1269  -47.8586 C.2       1 UNK         0.5000 
     66 O          -1.1036   -8.9711  -47.8437 O.2       1 UNK        -0.5000 
     67 C          -3.7448  -22.5091  -46.4519 C.2       11 UNK         0.5000 
     68 O          -4.4729  -23.0889  -47.2554 O.2       11 UNK        -0.5000 
     69 N          -4.0217  -22.4044  -45.1430 N.am      12 UNK        -0.5000 
     70 CA         -5.1941  -23.0011  -44.4970 C.3       12 UNK         0.1400 
     71 CB         -5.4075  -22.3576  -43.1180 C.3       12 UNK        -0.1800 
     72 C          -5.0671  -24.5308  -44.3800 C.2       12 UNK         0.5000 
     73 O          -6.0525  -25.2428  -44.5741 O.2       12 UNK        -0.5000 
     74 N          -3.8437  -25.0060  -44.1084 N.am      13 UNK        -0.5000 
     75 CA         -3.4747  -26.4232  -44.0976 C.3       13 UNK         0.1400 
     76 CB         -2.1224  -26.5687  -43.3819 C.3       13 UNK        -0.1800 
     77 C          -3.3982  -27.0510  -45.5060 C.2       13 UNK         0.5000 
     78 O          -3.3743  -28.2774  -45.6139 O.2       13 UNK        -0.5000 
     79 N          -3.3327  -26.2046  -46.5456 N.am      14 UNK        -0.5000 
     80 CA         -3.1327  -26.5296  -47.9627 C.3       14 UNK         0.1400 
     81 CB         -4.3212  -27.3348  -48.5261 C.3       14 UNK        -0.1800 
     82 C          -1.7610  -27.1817  -48.2445 C.2       14 UNK         0.5000 
     83 O          -1.6269  -27.9737  -49.1789 O.2       14 UNK        -0.5000 
     84 N          -0.7622  -26.8194  -47.4299 N.am      15 UNK        -0.5000 
     85 CA          0.6456  -27.1610  -47.6154 C.3       15 UNK         0.1400 
     86 CB          1.3468  -27.1440  -46.2482 C.3       15 UNK        -0.1800 
     87 C           1.3211  -26.1780  -48.5881 C.2       15 UNK         0.5000 
     88 O           2.1825  -26.5854  -49.3687 O.2       15 UNK        -0.5000 
     89 N           0.8974  -24.9082  -48.5349 N.am      16 UNK        -0.5000 
     90 CA          1.2457  -23.8651  -49.4965 C.3       16 UNK         0.1400 
     91 CB          1.2029  -22.5069  -48.7797 C.3       16 UNK        -0.1800 
     92 C           0.2883  -23.8938  -50.7047 C.2       16 UNK         0.5000 
     93 O          -0.6580  -24.6862  -50.7336 O.2       16 UNK        -0.5000 
     94 N           0.5474  -23.0165  -51.6830 N.am      17 UNK        -0.5000 
     95 CA         -0.1799  -22.8780  -52.9492 C.3       17 UNK         0.1400 
     96 CB          0.6969  -22.0719  -53.9252 C.3       17 UNK        -0.1800 
     97 C          -1.5953  -22.2748  -52.7966 C.2       17 UNK         0.5000 
     98 O          -1.9063  -21.2522  -53.4098 O.2       17 UNK        -0.5000 
     99 N          -2.4374  -22.9248  -51.9855 N.am      18 UNK        -0.5000 
    100 CA        -3.8516  -22.6118  -51.7832 C.3       18 UNK         0.1400 
    101 CB        -4.4337  -23.6018  -50.7647 C.3       18 UNK        -0.1800 
    102 C         -4.6506  -22.6472  -53.1009 C.2       18 UNK         0.5000 
    103 O         -4.3290  -23.4350  -53.9940 O.2       18 UNK        -0.5000 
    104 N         -5.6512  -21.7641  -53.2069 N.am      19 UNK        -0.5000 
    105 CA        -6.4747  -21.4502  -54.3838 C.3       19 UNK         0.1400 
    106 CB        -7.2017  -22.6898  -54.9397 C.3       19 UNK        -0.1800 
    107 C         -5.7071  -20.6973  -55.4894 C.2       19 UNK         0.5000 
    108 O         -6.2313  -19.7198  -56.0226 O.2       19 UNK        -0.5000 
    109 N         -4.4810  -21.1373  -55.7991 N.am      20 UNK        -0.5000 
    110 CA        -3.5932  -20.5370  -56.7940 C.3       20 UNK         0.1400 
    111 CB        -2.4256  -21.4943  -57.0786 C.3       20 UNK        -0.1800 
    112 C         -3.0820  -19.1497  -56.3672 C.2       20 UNK         0.5000 
    113 O         -3.1947  -18.1945  -57.1369 O.2       20 UNK        -0.5000 
    114 N         -2.5593  -19.0533  -55.1369 N.am      21 UNK        -0.5000 
    115 CA        -2.0399  -17.8138  -54.5514 C.3       21 UNK         0.1400 
    116 CB        -1.1555  -18.1609  -53.3463 C.3       21 UNK        -0.1800 
    117 C         -3.1375  -16.8090  -54.1483 C.2       21 UNK         0.5000 
    118 O         -2.8231  -15.6412  -53.9145 O.2       21 UNK        -0.5000 
    119 N         -4.3956  -17.2650  -54.0863 N.am      22 UNK        -0.5000 
    120 CA        -5.5721  -16.4385  -53.7748 C.3       22 UNK         0.1400 
    121 C         -5.9698  -15.4298  -54.8938 C.2       22 UNK         0.5000 
    122 N         -5.4556  -15.5461  -56.1131 N.am      22 UNK        -0.7600 
    123 O         -6.7597  -14.5222  -54.6487 O.2       22 UNK        -0.5000 
    124 C124       -6.8052  -17.2838  -53.3583 C.3       23 UNK        -0.0398 
    125 S125       -6.4819  -18.6068  -52.1420 S.3       23 UNK        -0.2404 
    126 C126       -6.1975  -17.6823  -50.6015 C.3       23 UNK        -0.0205 
    127 H127        0.8705  -13.2007  -44.3671 H         1 UNK         0.0600 
    128 H128       -0.0623  -14.2696  -45.4069 H         1 UNK         0.0600 
    129 H129       -0.7806  -13.6441  -43.9196 H         1 UNK         0.0600 
    130 H130       -1.0990  -13.2842  -47.1380 H         1 UNK         0.3000 
    131 H131       -2.5183  -10.9234  -47.1123 H         1 UNK         0.0600 
    132 H132       -1.2492  -12.0839  -49.6377 H         1 UNK         0.0800 
    133 H133       -2.7118  -11.1449  -49.5220 H         1 UNK         0.0800 
    134 H134       -2.4995  -14.0070  -51.1066 H         1 UNK         0.0800 
    135 H135       -1.2404  -14.4566  -49.9779 H         1 UNK         0.0800 
    136 H136       -4.8888  -15.2785  -50.5041 H         1 UNK         0.1150 
    137 H137       -4.2251  -19.4992  -50.2018 H         1 UNK         0.1150 
    138 H138       -0.9419  -16.7828  -49.7642 H         1 UNK         0.1150 
    139 H139       -1.9518  -20.3551  -50.2058 H         1 UNK         0.0800 
    140 H140       -0.6142  -19.2475  -50.3570 H         1 UNK         0.0800 
    141 H141       -2.9252  -19.8182  -46.5146 H         1 UNK         0.0800 
    142 H142       -3.4140  -20.3509  -48.0993 H         1 UNK         0.0800 
    143 H143       -2.1227  -22.4624  -47.8313 H         1 UNK         0.0600 
    144 H144       -1.0744  -21.2252  -45.4402 H         1 UNK         0.3000 
    145 H145        0.2186  -24.1761  -44.0007 H         1 UNK         0.0600 
    146 H146        2.3967  -22.9873  -44.1745 H         1 UNK         0.0600 
    147 H147        1.9628  -23.7173  -45.7145 H         1 UNK         0.0600 
    148 H148        1.7529  -21.9874  -45.4744 H         1 UNK         0.0600 
    149 H149        0.5477  -21.3965  -43.3857 H         1 UNK         0.3000 
    150 H150       -2.0824  -20.4591  -42.0520 H         1 UNK         0.0600 
    151 H151       -2.8870  -22.1113  -40.4328 H         1 UNK         0.0600 
    152 H152       -2.0459  -20.8338  -39.5721 H         1 UNK         0.0600 
    153 H153       -1.2636  -22.3940  -39.8267 H         1 UNK         0.0600 
    154 H154       -0.2288  -19.3485  -41.7202 H         1 UNK         0.3000 
    155 H155        2.4337  -19.4400  -39.8199 H         1 UNK         0.0600 
    156 H156        3.1954  -20.4084  -42.6295 H         1 UNK         0.0600 
    157 H157        3.7985  -21.0475  -41.1070 H         1 UNK         0.0600 
    158 H158        4.2126  -19.4118  -41.5902 H         1 UNK         0.0600 
    159 H159        1.7756  -18.3622  -42.5097 H         1 UNK         0.3000 
    160 H160       -0.1018  -15.6848  -41.2271 H         1 UNK         0.0600 
    161 H161        2.7167  -15.4400  -42.4094 H         1 UNK         0.0600 
    162 H162        2.2044  -14.7504  -40.8743 H         1 UNK         0.0600 
    163 H163        1.4852  -14.1786  -42.3663 H         1 UNK         0.0600 
    164 H164        0.9289  -16.2845  -43.8427 H         1 UNK         0.3000 
    165 H165       -1.3545  -18.8453  -44.7002 H         1 UNK         0.0600 
    166 H166       -1.6355  -15.9241  -45.5913 H         1 UNK         0.0600 
    167 H167       -2.1685  -17.3283  -46.5060 H         1 UNK         0.0600 
    168 H168       -2.9279  -16.9395  -44.9724 H         1 UNK         0.0600 
    169 H169        0.3728  -17.2544  -46.3065 H         1 UNK         0.3000 
    170 H170        3.4604  -18.3934  -45.3418 H         1 UNK         0.0600 
    171 H171        3.0715  -20.5234  -46.4774 H         1 UNK         0.0600 
    172 H172        2.0528  -19.7590  -47.6959 H         1 UNK         0.0600 
    173 H173        3.7827  -19.4221  -47.6320 H         1 UNK         0.0600 
    174 H174        2.8147  -17.2875  -47.8211 H         1 UNK         0.3000 
    175 H175        3.5598  -14.9569  -47.9727 H         1 UNK         0.0600 
    176 H176        1.3777  -15.7143  -48.8686 H         1 UNK         0.0600 
    177 H177        0.5032  -14.7248  -47.7127 H         1 UNK         0.0600 
    178 H178        1.4624  -13.9687  -48.9841 H         1 UNK         0.0600 
    179 H179        1.9161  -12.9669  -46.6323 H         1 UNK         0.3000 
    180 H180        3.2216  -11.7731  -44.5338 H         1 UNK         0.0600 
    181 H181        5.6564  -11.4707  -44.5283 H         1 UNK         0.0600 
    182 H182        5.6243  -10.7259  -46.1189 H         1 UNK         0.0600 
    183 H183        4.8833   -9.9093  -44.7431 H         1 UNK         0.0600 
    184 H184        1.9194  -10.4891  -45.7787 H         1 UNK         0.3000 
    185 H185        1.5379   -8.6579  -47.4788 H         1 UNK         0.0600 
    186 H186        2.1379   -9.9100  -50.2227 H         1 UNK         0.0600 
    187 H187        1.0706   -8.5382  -49.9310 H         1 UNK         0.0600 
    188 H188        2.7942   -8.3873  -49.6292 H         1 UNK         0.0600 
    189 H189        0.8486  -11.4329  -48.0433 H         1 UNK         0.3000 
    190 H190       -3.3512  -21.9595  -44.5351 H         1 UNK         0.3000 
    191 H191       -6.0720  -22.7846  -45.1097 H         1 UNK         0.0600 
    192 H192       -6.3043  -22.7538  -42.6402 H         1 UNK         0.0600 
    193 H193       -5.5346  -21.2782  -43.2014 H         1 UNK         0.0600 
    194 H194       -4.5706  -22.5461  -42.4457 H         1 UNK         0.0600 
    195 H195       -3.1106  -24.3453  -43.8698 H         1 UNK         0.3000 
    196 H196       -4.2276  -26.9727  -43.5290 H         1 UNK         0.0600 
    197 H197       -1.8385  -27.6177  -43.2898 H         1 UNK         0.0600 
    198 H198       -2.1601  -26.1520  -42.3751 H         1 UNK         0.0600 
    199 H199       -1.3253  -26.0607  -43.9253 H         1 UNK         0.0600 
    200 H200       -3.3427  -25.2176  -46.3309 H         1 UNK         0.3000 
    201 H201       -3.1136  -25.5719  -48.4847 H         1 UNK         0.0600 
    202 H202       -5.2678  -26.8378  -48.3141 H         1 UNK         0.0600 
    203 H203       -4.3667  -28.3401  -48.1068 H         1 UNK         0.0600 
    204 H204       -4.2449  -27.4359  -49.6093 H         1 UNK         0.0600 
    205 H205       -0.9634  -26.1089  -46.7330 H         1 UNK         0.3000 
    206 H206        0.7253  -28.1670  -48.0326 H         1 UNK         0.0600 
    207 H207        0.8992  -27.8695  -45.5687 H         1 UNK         0.0600 
    208 H208        2.4027  -27.3985  -46.3478 H         1 UNK         0.0600 
    209 H209        1.2871  -26.1633  -45.7750 H         1 UNK         0.0600 
    210 H210        0.1573  -24.6844  -47.8806 H         1 UNK         0.3000 
    211 H211        2.2601  -24.0306  -49.8652 H         1 UNK         0.0600 
    212 H212        0.2063  -22.2925  -48.4002 H         1 UNK         0.0600 
    213 H213        1.4842  -21.6888  -49.4433 H         1 UNK         0.0600 
    214 H214        1.8946  -22.4860  -47.9386 H         1 UNK         0.0600 
    215 H215        1.3259  -22.3855  -51.5626 H         1 UNK         0.3000 
    216 H216       -0.3108  -23.8756  -53.3731 H         1 UNK         0.0600 
    217 H217        0.2229  -21.9881  -54.9036 H         1 UNK         0.0600 
    218 H218        1.6632  -22.5529  -54.0779 H         1 UNK         0.0600 
    219 H219        0.8786  -21.0603  -53.5605 H         1 UNK         0.0600 
    220 H220       -2.0754  -23.7489  -51.5136 H         1 UNK         0.3000 
    221 H221       -3.9074  -21.6046  -51.3672 H         1 UNK         0.0600 
    222 H222       -4.4009  -24.6270  -51.1360 H         1 UNK         0.0600 
    223 H223       -3.8794  -23.5692  -49.8274 H         1 UNK         0.0600 
    224 H224       -5.4736  -23.3660  -50.5358 H         1 UNK         0.0600 
    225 H225       -5.8169  -21.1493  -52.4214 H         1 UNK         0.3000 
    226 H226       -7.2480  -20.7696  -54.0254 H         1 UNK         0.0600 
    227 H227       -7.7545  -23.2074  -54.1560 H         1 UNK         0.0600 
    228 H228       -7.9199  -22.4015  -55.7081 H         1 UNK         0.0600 
    229 H229       -6.5147  -23.4031  -55.3948 H         1 UNK         0.0600 
    230 H230       -4.1361  -21.9519  -55.3013 H         1 UNK         0.3000 
    231 H231       -4.1594  -20.4118  -57.7193 H         1 UNK         0.0600 
    232 H232       -1.7398  -21.0685  -57.8121 H         1 UNK         0.0600 
    233 H233       -2.7839  -22.4422  -57.4801 H         1 UNK         0.0600 
    234 H234       -1.8518  -21.7102  -56.1773 H         1 UNK         0.0600 
    235 H235       -2.4729  -19.8899  -54.5628 H         1 UNK         0.3000 
    236 H236       -1.4122  -17.3208  -55.2964 H         1 UNK         0.0600 
    237 H237       -1.7228  -18.7022  -52.5912 H         1 UNK         0.0600 
    238 H238       -0.3116  -18.7841  -53.6416 H         1 UNK         0.0600 
    239 H239       -0.7519  -17.2632  -52.8764 H         1 UNK         0.0600 
    240 H240       -4.5702  -18.2354  -54.2978 H         1 UNK         0.3000 
    241 H241       -5.3029  -15.8230  -52.9163 H         1 UNK         0.0600 
    242 H242       -4.8109  -16.2919  -56.3302 H         1 UNK         0.3800 
    243 H243       -5.7182  -14.8864  -56.8282 H         1 UNK         0.3800 
    244 H244       -7.5898  -16.6381  -52.9602 H         1 UNK         0.0800 
    245 H245       -7.2359  -17.7651  -54.2380 H         1 UNK         0.0800 
    246 H246       -6.7706  -16.7542  -50.6087 H         1 UNK         0.0800 
    247 H247       -6.5790  -18.2701  -49.7658 H         1 UNK         0.0800 
@<TRIPOS>BOND
     1    1    2 1    
     2    1  127 1    
     3    1  128 1    
     4    1  129 1    
     5    2    3 2    
     6    2    4 am   BACKBONE|DICT|INTERRES
     7    4    5 1    
     8    4  130 1    
     9    5    6 1    
    10    5   65 1    
    11    5  131 1    
    12    6    7 1    
    13    6  132 1    
    14    6  133 1    
    15    7    8 1    
    16    8    9 1    
    17    8  134 1    
    18    8  135 1    
    19    9   10 ar   
    20    9   14 ar   
    21   10   11 ar   
    22   10  136 1    
    23   11   12 ar   
    24   11  126 1    
    25   12   13 ar   
    26   12  137 1    
    27   13   14 ar   
    28   13   15 1    
    29   14  138 1    
    30   15   16 1    
    31   15  139 1    
    32   15  140 1    
    33   16   17 1    
    34   17   18 1    
    35   17  141 1    
    36   17  142 1    
    37   18   19 1    
    38   18   67 1    
    39   18  143 1    
    40   19   20 am   BACKBONE|DICT|INTERRES
    41   19  144 1    
    42   20   21 2    
    43   20   22 1    
    44   22   23 1    
    45   22   24 1    
    46   22  145 1    
    47   23  146 1    
    48   23  147 1    
    49   23  148 1    
    50   24   25 am   BACKBONE|DICT|INTERRES
    51   24  149 1    
    52   25   26 2    
    53   25   27 1    
    54   27   28 1    
    55   27   29 1    
    56   27  150 1    
    57   28  151 1    
    58   28  152 1    
    59   28  153 1    
    60   29   30 am   BACKBONE|DICT|INTERRES
    61   29  154 1    
    62   30   31 2    
    63   30   32 1    
    64   32   33 1    
    65   32   34 1    
    66   32  155 1    
    67   33  156 1    
    68   33  157 1    
    69   33  158 1    
    70   34   35 am   BACKBONE|DICT|INTERRES
    71   34  159 1    
    72   35   36 2    
    73   35   37 1    
    74   37   38 1    
    75   37   39 1    
    76   37  160 1    
    77   38  161 1    
    78   38  162 1    
    79   38  163 1    
    80   39   40 am   BACKBONE|DICT|INTERRES
    81   39  164 1    
    82   40   41 2    
    83   40   42 1    
    84   42   43 1    
    85   42   44 1    
    86   42  165 1    
    87   43  166 1    
    88   43  167 1    
    89   43  168 1    
    90   44   45 am   BACKBONE|DICT|INTERRES
    91   44  169 1    
    92   45   46 2    
    93   45   47 1    
    94   47   48 1    
    95   47   49 1    
    96   47  170 1    
    97   48  171 1    
    98   48  172 1    
    99   48  173 1    
   100   49   50 am   BACKBONE|DICT|INTERRES
   101   49  174 1    
   102   50   51 2    
   103   50   52 1    
   104   52   53 1    
   105   52   54 1    
   106   52  175 1    
   107   53  176 1    
   108   53  177 1    
   109   53  178 1    
   110   54   55 am   BACKBONE|DICT|INTERRES
   111   54  179 1    
   112   55   56 2    
   113   55   57 1    
   114   57   58 1    
   115   57   59 1    
   116   57  180 1    
   117   58  181 1    
   118   58  182 1    
   119   58  183 1    
   120   59   60 am   BACKBONE|DICT|INTERRES
   121   59  184 1    
   122   60   61 2    
   123   60   62 1    
   124   62   63 1    
   125   62   64 1    
   126   62  185 1    
   127   63  186 1    
   128   63  187 1    
   129   63  188 1    
   130   64   65 am   BACKBONE|DICT|INTERRES
   131   64  189 1    
   132   65   66 2    
   133   67   68 2    
   134   67   69 am   BACKBONE|DICT|INTERRES
   135   69   70 1    
   136   69  190 1    
   137   70   71 1    
   138   70   72 1    
   139   70  191 1    
   140   71  192 1    
   141   71  193 1    
   142   71  194 1    
   143   72   73 2    
   144   72   74 am   BACKBONE|DICT|INTERRES
   145   74   75 1    
   146   74  195 1    
   147   75   76 1    
   148   75   77 1    
   149   75  196 1    
   150   76  197 1    
   151   76  198 1    
   152   76  199 1    
   153   77   78 2    
   154   77   79 am   BACKBONE|DICT|INTERRES
   155   79   80 1    
   156   79  200 1    
   157   80   81 1    
   158   80   82 1    
   159   80  201 1    
   160   81  202 1    
   161   81  203 1    
   162   81  204 1    
   163   82   83 2    
   164   82   84 am   BACKBONE|DICT|INTERRES
   165   84   85 1    
   166   84  205 1    
   167   85   86 1    
   168   85   87 1    
   169   85  206 1    
   170   86  207 1    
   171   86  208 1    
   172   86  209 1    
   173   87   88 2    
   174   87   89 am   BACKBONE|DICT|INTERRES
   175   89   90 1    
   176   89  210 1    
   177   90   91 1    
   178   90   92 1    
   179   90  211 1    
   180   91  212 1    
   181   91  213 1    
   182   91  214 1    
   183   92   93 2    
   184   92   94 am   BACKBONE|DICT|INTERRES
   185   94   95 1    
   186   94  215 1    
   187   95   96 1    
   188   95   97 1    
   189   95  216 1    
   190   96  217 1    
   191   96  218 1    
   192   96  219 1    
   193   97   98 2    
   194   97   99 am   BACKBONE|DICT|INTERRES
   195   99  100 1    
   196   99  220 1    
   197  100  101 1    
   198  100  102 1    
   199  100  221 1    
   200  101  222 1    
   201  101  223 1    
   202  101  224 1    
   203  102  103 2    
   204  102  104 am   BACKBONE|DICT|INTERRES
   205  104  105 1    
   206  104  225 1    
   207  105  106 1    
   208  105  107 1    
   209  105  226 1    
   210  106  227 1    
   211  106  228 1    
   212  106  229 1    
   213  107  108 2    
   214  107  109 am   BACKBONE|DICT|INTERRES
   215  109  110 1    
   216  109  230 1    
   217  110  111 1    
   218  110  112 1    
   219  110  231 1    
   220  111  232 1    
   221  111  233 1    
   222  111  234 1    
   223  112  113 2    
   224  112  114 am   BACKBONE|DICT|INTERRES
   225  114  115 1    
   226  114  235 1    
   227  115  116 1    
   228  115  117 1    
   229  115  236 1    
   230  116  237 1    
   231  116  238 1    
   232  116  239 1    
   233  117  118 2    
   234  117  119 am   BACKBONE|DICT|INTERRES
   235  119  120 1    
   236  119  240 1    
   237  120  121 1    
   238  120  124 1    
   239  120  241 1    
   240  121  122 am   BACKBONE|DICT|INTERRES
   241  121  123 2    
   242  122  242 1    
   243  122  243 1    
   244  124  125 1    
   245  124  244 1    
   246  124  245 1    
   247  125  126 1    
   248  126  246 1    
   249  126  247 1    
@<TRIPOS>SUBSTRUCTURE
     1 UNK         1 GROUP             0       ****    0 ROOT    
