@<TRIPOS>MOLECULE
3R540
247   249    1
SMALL
USER_CHARGES


@<TRIPOS>ATOM
      1 CA          4.0830  -18.6924  -47.2568 C.3       0 UNK        -0.1800 
      2 C           3.8502  -17.3930  -48.0136 C.2       0 UNK         0.5000 
      3 O           2.7863  -16.7873  -47.8858 O.2       0 UNK        -0.5000 
      4 N           4.8499  -16.9591  -48.7920 N.am      1 UNK        -0.5000 
      5 CA          4.8179  -15.7450  -49.6132 C.3       1 UNK         0.1400 
      6 C6          5.7838  -15.8143  -50.8255 C.3       23 UNK        -0.0398 
      7 S7          5.5662  -17.2770  -51.8951 S.3       23 UNK        -0.2404 
      8 C8          4.0096  -16.9046  -52.7695 C.3       23 UNK        -0.0205 
      9 C9          2.8000  -17.4590  -52.0293 C.ar      23 UNK        -0.0193 
     10 C10         1.8195  -16.6051  -51.5118 C.ar      23 UNK        -0.1150 
     11 C11         0.7249  -17.1247  -50.8136 C.ar      23 UNK        -0.0193 
     12 C12         0.6046  -18.5079  -50.6611 C.ar      23 UNK        -0.1150 
     13 C13         1.5682  -19.3738  -51.1831 C.ar      23 UNK        -0.0193 
     14 C14         2.6626  -18.8409  -51.8671 C.ar      23 UNK        -0.1150 
     15 C15         1.4259  -20.8811  -51.0320 C.3       23 UNK        -0.0205 
     16 S16         2.1108  -21.4947  -49.4620 S.3       23 UNK        -0.2404 
     17 C17         0.8432  -21.0181  -48.2374 C.3       23 UNK        -0.0398 
     18 CA          0.3232  -22.2191  -47.4073 C.3       11 UNK         0.1400 
     19 N           0.1512  -21.8528  -45.9992 N.am      11 UNK        -0.5000 
     20 C           0.0245  -22.7321  -44.9976 C.2       10 UNK         0.5000 
     21 O           0.0597  -23.9521  -45.1543 O.2       10 UNK        -0.5000 
     22 CA         -0.2348  -22.1495  -43.5964 C.3       10 UNK         0.1400 
     23 CB          1.0761  -21.6855  -42.9446 C.3       10 UNK        -0.1800 
     24 N          -1.1973  -21.0459  -43.6212 N.am      10 UNK        -0.5000 
     25 C          -2.4834  -21.1839  -43.9734 C.2       9 UNK         0.5000 
     26 O          -2.9948  -22.2657  -44.2556 O.2       9 UNK        -0.5000 
     27 CA         -3.3362  -19.9077  -44.0710 C.3       9 UNK         0.1400 
     28 CB         -3.8662  -19.5067  -42.6869 C.3       9 UNK        -0.1800 
     29 N          -2.6228  -18.7844  -44.6793 N.am      9 UNK        -0.5000 
     30 C          -2.1608  -18.7605  -45.9384 C.2       8 UNK         0.5000 
     31 O          -2.3067  -19.6840  -46.7375 O.2       8 UNK        -0.5000 
     32 CA         -1.3462  -17.5236  -46.3592 C.3       8 UNK         0.1400 
     33 CB         -2.2658  -16.3415  -46.6983 C.3       8 UNK        -0.1800 
     34 N          -0.3797  -17.1199  -45.3388 N.am      8 UNK        -0.5000 
     35 C           0.6374  -17.8865  -44.9192 C.2       7 UNK         0.5000 
     36 O           0.8902  -19.0043  -45.3704 O.2       7 UNK        -0.5000 
     37 CA          1.4618  -17.3390  -43.7433 C.3       7 UNK         0.1400 
     38 CB          2.4497  -16.2596  -44.2103 C.3       7 UNK        -0.1800 
     39 N           0.5993  -16.7999  -42.6910 N.am      7 UNK        -0.5000 
     40 C          -0.1883  -17.5504  -41.9066 C.2       6 UNK         0.5000 
     41 O          -0.2442  -18.7778  -41.9697 O.2       6 UNK        -0.5000 
     42 CA         -1.0905  -16.8045  -40.9060 C.3       6 UNK         0.1400 
     43 CB         -0.3257  -16.5078  -39.6076 C.3       6 UNK        -0.1800 
     44 N          -1.6313  -15.5560  -41.4441 N.am      6 UNK        -0.5000 
     45 C          -2.4814  -15.4748  -42.4778 C.2       5 UNK         0.5000 
     46 O          -2.9245  -16.4518  -43.0773 O.2       5 UNK        -0.5000 
     47 CA         -2.8615  -14.0616  -42.9537 C.3       5 UNK         0.1400 
     48 CB         -4.0974  -13.5511  -42.1985 C.3       5 UNK        -0.1800 
     49 N          -1.7693  -13.0962  -42.8103 N.am      5 UNK        -0.5000 
     50 C          -0.5982  -13.1789  -43.4543 C.2       4 UNK         0.5000 
     51 O          -0.3022  -14.0955  -44.2253 O.2       4 UNK        -0.5000 
     52 CA          0.4339  -12.0839  -43.1346 C.3       4 UNK         0.1400 
     53 CB          1.5396  -12.6446  -42.2260 C.3       4 UNK        -0.1800 
     54 N           1.0438  -11.5408  -44.3449 N.am      4 UNK        -0.5000 
     55 C           0.3991  -10.8477  -45.2942 C.2       3 UNK         0.5000 
     56 O          -0.7895  -10.5322  -45.2197 O.2       3 UNK        -0.5000 
     57 CA          1.2196  -10.4093  -46.5252 C.3       3 UNK         0.1400 
     58 CB          1.4949   -8.8978  -46.4775 C.3       3 UNK        -0.1800 
     59 N           2.4976  -11.1153  -46.6583 N.am      3 UNK        -0.5000 
     60 C           2.6254  -12.3812  -47.0732 C.2       2 UNK         0.5000 
     61 O           1.6763  -13.0933  -47.4101 O.2       2 UNK        -0.5000 
     62 CA          4.0550  -12.9387  -47.0961 C.3       2 UNK         0.1400 
     63 CB          4.5446  -13.2824  -45.6789 C.3       2 UNK        -0.1800 
     64 N           4.0832  -14.1379  -47.9233 N.am      2 UNK        -0.5000 
     65 C           5.0700  -14.4916  -48.7491 C.2       1 UNK         0.5000 
     66 O           6.1375  -13.8807  -48.8338 O.2       1 UNK        -0.5000 
     67 C          -0.9569  -22.8584  -48.0032 C.2       11 UNK         0.5000 
     68 O          -0.8613  -23.7498  -48.8488 O.2       11 UNK        -0.5000 
     69 N          -2.1365  -22.4276  -47.5319 N.am      12 UNK        -0.5000 
     70 CA         -3.4351  -23.0298  -47.8417 C.3       12 UNK         0.1400 
     71 CB         -4.5660  -22.0747  -47.4298 C.3       12 UNK        -0.1800 
     72 C          -3.6095  -24.4103  -47.1866 C.2       12 UNK         0.5000 
     73 O          -4.0733  -25.3358  -47.8498 O.2       12 UNK        -0.5000 
     74 N          -3.1862  -24.5529  -45.9223 N.am      13 UNK        -0.5000 
     75 CA         -3.1702  -25.8218  -45.1852 C.3       13 UNK         0.1400 
     76 CB         -2.8107  -25.5624  -43.7147 C.3       13 UNK        -0.1800 
     77 C          -2.2205  -26.8651  -45.8068 C.2       13 UNK         0.5000 
     78 O          -2.5254  -28.0577  -45.7845 O.2       13 UNK        -0.5000 
     79 N          -1.1174  -26.3899  -46.4008 N.am      14 UNK        -0.5000 
     80 CA         -0.1850  -27.1734  -47.2143 C.3       14 UNK         0.1400 
     81 CB          1.1384  -26.3982  -47.3249 C.3       14 UNK        -0.1800 
     82 C          -0.7281  -27.5212  -48.6196 C.2       14 UNK         0.5000 
     83 O          -0.0630  -28.2575  -49.3485 O.2       14 UNK        -0.5000 
     84 N          -1.9012  -26.9779  -48.9831 N.am      15 UNK        -0.5000 
     85 CA         -2.6191  -27.1131  -50.2565 C.3       15 UNK         0.1400 
     86 CB         -2.9651  -28.5867  -50.5536 C.3       15 UNK        -0.1800 
     87 C          -1.9309  -26.4155  -51.4472 C.2       15 UNK         0.5000 
     88 O          -2.3475  -26.6170  -52.5885 O.2       15 UNK        -0.5000 
     89 N          -0.9193  -25.5819  -51.1753 N.am      16 UNK        -0.5000 
     90 CA         -0.1646  -24.8375  -52.1804 C.3       16 UNK         0.1400 
     91 CB          1.2233  -24.5024  -51.6186 C.3       16 UNK        -0.1800 
     92 C          -0.9071  -23.5694  -52.6349 C.2       16 UNK         0.5000 
     93 O          -0.8358  -23.2194  -53.8128 O.2       16 UNK        -0.5000 
     94 N          -1.6315  -22.9234  -51.7084 N.am      17 UNK        -0.5000 
     95 CA         -2.4773  -21.7578  -51.9963 C.3       17 UNK         0.1400 
     96 CB         -2.5370  -20.8365  -50.7652 C.3       17 UNK        -0.1800 
     97 C          -3.9102  -22.1509  -52.3972 C.2       17 UNK         0.5000 
     98 O          -4.7188  -21.2567  -52.6441 O.2       17 UNK        -0.5000 
     99 N          -4.2279  -23.4549  -52.3827 N.am      18 UNK        -0.5000 
    100 CA        -5.5763  -24.0226  -52.4798 C.3       18 UNK         0.1400 
    101 CB        -6.1548  -23.8254  -53.8995 C.3       18 UNK        -0.1800 
    102 C         -6.4649  -23.4729  -51.3423 C.2       18 UNK         0.5000 
    103 O         -6.0499  -23.5276  -50.1841 O.2       18 UNK        -0.5000 
    104 N         -7.6262  -22.8962  -51.6722 N.am      19 UNK        -0.5000 
    105 CA        -8.5319  -22.2220  -50.7377 C.3       19 UNK         0.1400 
    106 CB        -9.9647  -22.3160  -51.2938 C.3       19 UNK        -0.1800 
    107 C         -8.0980  -20.7646  -50.4497 C.2       19 UNK         0.5000 
    108 O         -8.9334  -19.8593  -50.4841 O.2       19 UNK        -0.5000 
    109 N         -6.7964  -20.5656  -50.1880 N.am      20 UNK        -0.5000 
    110 CA        -6.1141  -19.2861  -49.9492 C.3       20 UNK         0.1400 
    111 CB        -6.5341  -18.6885  -48.5909 C.3       20 UNK        -0.1800 
    112 C         -6.2757  -18.2981  -51.1256 C.2       20 UNK         0.5000 
    113 O         -6.6004  -17.1253  -50.9241 O.2       20 UNK        -0.5000 
    114 N         -6.0462  -18.8022  -52.3463 N.am      21 UNK        -0.5000 
    115 CA        -6.2477  -18.1040  -53.6194 C.3       21 UNK         0.1400 
    116 CB        -6.0518  -19.1046  -54.7689 C.3       21 UNK        -0.1800 
    117 C         -5.3544  -16.8641  -53.8224 C.2       21 UNK         0.5000 
    118 O         -5.6913  -16.0079  -54.6415 O.2       21 UNK        -0.5000 
    119 N         -4.2507  -16.7766  -53.0696 N.am      22 UNK        -0.5000 
    120 CA        -3.3866  -15.5910  -52.9817 C.3       22 UNK         0.1400 
    121 C         -4.0187  -14.3749  -52.2357 C.2       22 UNK         0.5000 
    122 N         -5.1286  -14.5283  -51.5201 N.am      22 UNK        -0.7600 
    123 O         -3.4974  -13.2664  -52.3220 O.2       22 UNK        -0.5000 
    124 C124       -1.9846  -15.9524  -52.4275 C.3       23 UNK        -0.0398 
    125 S125       -2.0097  -16.5873  -50.7138 S.3       23 UNK        -0.2404 
    126 C126       -0.3086  -16.1997  -50.1840 C.3       23 UNK        -0.0205 
    127 H127        3.6868  -19.5307  -47.8275 H         1 UNK         0.0600 
    128 H128        3.5794  -18.6703  -46.2906 H         1 UNK         0.0600 
    129 H129        5.1446  -18.8678  -47.0816 H         1 UNK         0.0600 
    130 H130        5.7024  -17.4971  -48.8489 H         1 UNK         0.3000 
    131 H131        3.8118  -15.6329  -50.0148 H         1 UNK         0.0600 
    132 H132        5.6837  -14.9200  -51.4431 H         1 UNK         0.0800 
    133 H133        6.8197  -15.8260  -50.4819 H         1 UNK         0.0800 
    134 H134        4.0489  -17.3600  -53.7600 H         1 UNK         0.0800 
    135 H135        3.9175  -15.8298  -52.9319 H         1 UNK         0.0800 
    136 H136        1.9197  -15.5358  -51.6324 H         1 UNK         0.1150 
    137 H137       -0.2510  -18.8968  -50.1337 H         1 UNK         0.1150 
    138 H138        3.4168  -19.5024  -52.2699 H         1 UNK         0.1150 
    139 H139        1.9484  -21.3791  -51.8498 H         1 UNK         0.0800 
    140 H140        0.3863  -21.1786  -51.1283 H         1 UNK         0.0800 
    141 H141        0.0201  -20.4764  -48.6950 H         1 UNK         0.0800 
    142 H142        1.3306  -20.2892  -47.5900 H         1 UNK         0.0800 
    143 H143        1.0895  -22.9971  -47.4212 H         1 UNK         0.0600 
    144 H144        0.1454  -20.8612  -45.7805 H         1 UNK         0.3000 
    145 H145       -0.6543  -22.9462  -42.9788 H         1 UNK         0.0600 
    146 H146        1.8039  -22.4971  -42.9102 H         1 UNK         0.0600 
    147 H147        0.9094  -21.3548  -41.9194 H         1 UNK         0.0600 
    148 H148        1.5303  -20.8593  -43.4918 H         1 UNK         0.0600 
    149 H149       -0.8533  -20.1319  -43.3450 H         1 UNK         0.3000 
    150 H150       -4.1948  -20.1322  -44.7065 H         1 UNK         0.0600 
    151 H151       -3.0570  -19.2274  -42.0121 H         1 UNK         0.0600 
    152 H152       -4.4118  -20.3296  -42.2236 H         1 UNK         0.0600 
    153 H153       -4.5519  -18.6622  -42.7570 H         1 UNK         0.0600 
    154 H154       -2.5091  -17.9572  -44.0985 H         1 UNK         0.3000 
    155 H155       -0.7858  -17.7895  -47.2579 H         1 UNK         0.0600 
    156 H156       -1.6914  -15.4839  -47.0497 H         1 UNK         0.0600 
    157 H157       -2.8492  -16.0218  -45.8346 H         1 UNK         0.0600 
    158 H158       -2.9672  -16.6093  -47.4897 H         1 UNK         0.0600 
    159 H159       -0.5066  -16.2074  -44.9172 H         1 UNK         0.3000 
    160 H160        2.0381  -18.1658  -43.3226 H         1 UNK         0.0600 
    161 H161        1.9395  -15.4166  -44.6765 H         1 UNK         0.0600 
    162 H162        3.1460  -16.6615  -44.9462 H         1 UNK         0.0600 
    163 H163        3.0417  -15.8778  -43.3786 H         1 UNK         0.0600 
    164 H164        0.5409  -15.7947  -42.6216 H         1 UNK         0.3000 
    165 H165       -1.9309  -17.4585  -40.6648 H         1 UNK         0.0600 
    166 H166       -0.9773  -16.0534  -38.8610 H         1 UNK         0.0600 
    167 H167        0.0746  -17.4247  -39.1728 H         1 UNK         0.0600 
    168 H168        0.5131  -15.8318  -39.7783 H         1 UNK         0.0600 
    169 H169       -1.3209  -14.6995  -41.0103 H         1 UNK         0.3000 
    170 H170       -3.1118  -14.1280  -44.0146 H         1 UNK         0.0600 
    171 H171       -4.4254  -12.5861  -42.5853 H         1 UNK         0.0600 
    172 H172       -3.9005  -13.4371  -41.1318 H         1 UNK         0.0600 
    173 H173       -4.9334  -14.2437  -42.3059 H         1 UNK         0.0600 
    174 H174       -1.9370  -12.3156  -42.1918 H         1 UNK         0.3000 
    175 H175       -0.0630  -11.2646  -42.6110 H         1 UNK         0.0600 
    176 H176        1.1216  -13.0497  -41.3035 H         1 UNK         0.0600 
    177 H177        2.0955  -13.4459  -42.7146 H         1 UNK         0.0600 
    178 H178        2.2507  -11.8675  -41.9449 H         1 UNK         0.0600 
    179 H179        2.0117  -11.7720  -44.5048 H         1 UNK         0.3000 
    180 H180        0.6141  -10.6171  -47.4100 H         1 UNK         0.0600 
    181 H181        2.1024   -8.6262  -45.6133 H         1 UNK         0.0600 
    182 H182        0.5643   -8.3319  -46.4151 H         1 UNK         0.0600 
    183 H183        2.0162   -8.5628  -47.3745 H         1 UNK         0.0600 
    184 H184        3.3248  -10.5945  -46.4031 H         1 UNK         0.3000 
    185 H185        4.7040  -12.1739  -47.5283 H         1 UNK         0.0600 
    186 H186        4.5632  -12.3983  -45.0408 H         1 UNK         0.0600 
    187 H187        3.9015  -14.0202  -45.2007 H         1 UNK         0.0600 
    188 H188        5.5568  -13.6866  -45.6999 H         1 UNK         0.0600 
    189 H189        3.2362  -14.6994  -47.9005 H         1 UNK         0.3000 
    190 H190       -2.1480  -21.6220  -46.9136 H         1 UNK         0.3000 
    191 H191       -3.4950  -23.1789  -48.9213 H         1 UNK         0.0600 
    192 H192       -4.4602  -21.1039  -47.9125 H         1 UNK         0.0600 
    193 H193       -5.5390  -22.4763  -47.7143 H         1 UNK         0.0600 
    194 H194       -4.5856  -21.9097  -46.3536 H         1 UNK         0.0600 
    195 H195       -2.8841  -23.7271  -45.4108 H         1 UNK         0.3000 
    196 H196       -4.1799  -26.2359  -45.2185 H         1 UNK         0.0600 
    197 H197       -2.8300  -26.4885  -43.1391 H         1 UNK         0.0600 
    198 H198       -3.5194  -24.8763  -43.2508 H         1 UNK         0.0600 
    199 H199       -1.8141  -25.1336  -43.6124 H         1 UNK         0.0600 
    200 H200       -0.9030  -25.4048  -46.2898 H         1 UNK         0.3000 
    201 H201        0.0136  -28.1156  -46.6999 H         1 UNK         0.0600 
    202 H202        1.8912  -26.9802  -47.8579 H         1 UNK         0.0600 
    203 H203        1.5451  -26.1675  -46.3401 H         1 UNK         0.0600 
    204 H204        1.0110  -25.4589  -47.8629 H         1 UNK         0.0600 
    205 H205       -2.3725  -26.3855  -48.3090 H         1 UNK         0.3000 
    206 H206       -3.5637  -26.5856  -50.1211 H         1 UNK         0.0600 
    207 H207       -3.4538  -29.0565  -49.7000 H         1 UNK         0.0600 
    208 H208       -3.6489  -28.6646  -51.3996 H         1 UNK         0.0600 
    209 H209       -2.0791  -29.1723  -50.7992 H         1 UNK         0.0600 
    210 H210       -0.6885  -25.3976  -50.2062 H         1 UNK         0.3000 
    211 H211       -0.0240  -25.4709  -53.0591 H         1 UNK         0.0600 
    212 H212        1.1525  -23.9416  -50.6879 H         1 UNK         0.0600 
    213 H213        1.8024  -23.9063  -52.3248 H         1 UNK         0.0600 
    214 H214        1.7922  -25.4096  -51.4146 H         1 UNK         0.0600 
    215 H215       -1.6072  -23.2622  -50.7531 H         1 UNK         0.3000 
    216 H216       -2.0419  -21.1884  -52.8202 H         1 UNK         0.0600 
    217 H217       -2.8491  -19.8319  -51.0526 H         1 UNK         0.0600 
    218 H218       -1.5775  -20.7452  -50.2693 H         1 UNK         0.0600 
    219 H219       -3.2490  -21.1926  -50.0237 H         1 UNK         0.0600 
    220 H220       -3.4924  -24.1088  -52.1611 H         1 UNK         0.3000 
    221 H221       -5.4780  -25.0947  -52.3037 H         1 UNK         0.0600 
    222 H222       -6.3094  -22.7739  -54.1442 H         1 UNK         0.0600 
    223 H223       -5.4826  -24.2400  -54.6509 H         1 UNK         0.0600 
    224 H224       -7.1105  -24.3389  -54.0106 H         1 UNK         0.0600 
    225 H225       -7.8717  -22.8398  -52.6498 H         1 UNK         0.3000 
    226 H226       -8.5161  -22.7508  -49.7824 H         1 UNK         0.0600 
    227 H227      -10.2562  -23.3535  -51.4584 H         1 UNK         0.0600 
    228 H228      -10.0641  -21.7849  -52.2413 H         1 UNK         0.0600 
    229 H229      -10.6860  -21.8865  -50.5974 H         1 UNK         0.0600 
    230 H230       -6.2052  -21.3880  -50.1957 H         1 UNK         0.3000 
    231 H231       -5.0495  -19.5106  -49.8877 H         1 UNK         0.0600 
    232 H232       -7.5845  -18.3961  -48.5839 H         1 UNK         0.0600 
    233 H233       -5.9451  -17.8008  -48.3572 H         1 UNK         0.0600 
    234 H234       -6.3791  -19.4013  -47.7810 H         1 UNK         0.0600 
    235 H235       -5.7196  -19.7647  -52.4196 H         1 UNK         0.3000 
    236 H236       -7.2836  -17.7599  -53.6405 H         1 UNK         0.0600 
    237 H237       -5.0310  -19.4880  -54.7959 H         1 UNK         0.0600 
    238 H238       -6.7259  -19.9558  -54.6712 H         1 UNK         0.0600 
    239 H239       -6.2538  -18.6385  -55.7341 H         1 UNK         0.0600 
    240 H240       -4.0547  -17.5182  -52.4144 H         1 UNK         0.3000 
    241 H241       -3.2307  -15.2451  -54.0054 H         1 UNK         0.0600 
    242 H242       -5.5259  -13.7308  -51.0504 H         1 UNK         0.3800 
    243 H243       -5.5695  -15.4364  -51.4211 H         1 UNK         0.3800 
    244 H244       -1.3289  -15.0817  -52.4805 H         1 UNK         0.0800 
    245 H245       -1.5200  -16.7088  -53.0617 H         1 UNK         0.0800 
    246 H246       -0.0872  -15.1538  -50.4016 H         1 UNK         0.0800 
    247 H247       -0.2431  -16.3015  -49.1005 H         1 UNK         0.0800 
@<TRIPOS>BOND
     1    1    2 1    
     2    1  127 1    
     3    1  128 1    
     4    1  129 1    
     5    2    3 2    
     6    2    4 am   BACKBONE|DICT|INTERRES
     7    4    5 1    
     8    4  130 1    
     9    5    6 1    
    10    5   65 1    
    11    5  131 1    
    12    6    7 1    
    13    6  132 1    
    14    6  133 1    
    15    7    8 1    
    16    8    9 1    
    17    8  134 1    
    18    8  135 1    
    19    9   10 ar   
    20    9   14 ar   
    21   10   11 ar   
    22   10  136 1    
    23   11   12 ar   
    24   11  126 1    
    25   12   13 ar   
    26   12  137 1    
    27   13   14 ar   
    28   13   15 1    
    29   14  138 1    
    30   15   16 1    
    31   15  139 1    
    32   15  140 1    
    33   16   17 1    
    34   17   18 1    
    35   17  141 1    
    36   17  142 1    
    37   18   19 1    
    38   18   67 1    
    39   18  143 1    
    40   19   20 am   BACKBONE|DICT|INTERRES
    41   19  144 1    
    42   20   21 2    
    43   20   22 1    
    44   22   23 1    
    45   22   24 1    
    46   22  145 1    
    47   23  146 1    
    48   23  147 1    
    49   23  148 1    
    50   24   25 am   BACKBONE|DICT|INTERRES
    51   24  149 1    
    52   25   26 2    
    53   25   27 1    
    54   27   28 1    
    55   27   29 1    
    56   27  150 1    
    57   28  151 1    
    58   28  152 1    
    59   28  153 1    
    60   29   30 am   BACKBONE|DICT|INTERRES
    61   29  154 1    
    62   30   31 2    
    63   30   32 1    
    64   32   33 1    
    65   32   34 1    
    66   32  155 1    
    67   33  156 1    
    68   33  157 1    
    69   33  158 1    
    70   34   35 am   BACKBONE|DICT|INTERRES
    71   34  159 1    
    72   35   36 2    
    73   35   37 1    
    74   37   38 1    
    75   37   39 1    
    76   37  160 1    
    77   38  161 1    
    78   38  162 1    
    79   38  163 1    
    80   39   40 am   BACKBONE|DICT|INTERRES
    81   39  164 1    
    82   40   41 2    
    83   40   42 1    
    84   42   43 1    
    85   42   44 1    
    86   42  165 1    
    87   43  166 1    
    88   43  167 1    
    89   43  168 1    
    90   44   45 am   BACKBONE|DICT|INTERRES
    91   44  169 1    
    92   45   46 2    
    93   45   47 1    
    94   47   48 1    
    95   47   49 1    
    96   47  170 1    
    97   48  171 1    
    98   48  172 1    
    99   48  173 1    
   100   49   50 am   BACKBONE|DICT|INTERRES
   101   49  174 1    
   102   50   51 2    
   103   50   52 1    
   104   52   53 1    
   105   52   54 1    
   106   52  175 1    
   107   53  176 1    
   108   53  177 1    
   109   53  178 1    
   110   54   55 am   BACKBONE|DICT|INTERRES
   111   54  179 1    
   112   55   56 2    
   113   55   57 1    
   114   57   58 1    
   115   57   59 1    
   116   57  180 1    
   117   58  181 1    
   118   58  182 1    
   119   58  183 1    
   120   59   60 am   BACKBONE|DICT|INTERRES
   121   59  184 1    
   122   60   61 2    
   123   60   62 1    
   124   62   63 1    
   125   62   64 1    
   126   62  185 1    
   127   63  186 1    
   128   63  187 1    
   129   63  188 1    
   130   64   65 am   BACKBONE|DICT|INTERRES
   131   64  189 1    
   132   65   66 2    
   133   67   68 2    
   134   67   69 am   BACKBONE|DICT|INTERRES
   135   69   70 1    
   136   69  190 1    
   137   70   71 1    
   138   70   72 1    
   139   70  191 1    
   140   71  192 1    
   141   71  193 1    
   142   71  194 1    
   143   72   73 2    
   144   72   74 am   BACKBONE|DICT|INTERRES
   145   74   75 1    
   146   74  195 1    
   147   75   76 1    
   148   75   77 1    
   149   75  196 1    
   150   76  197 1    
   151   76  198 1    
   152   76  199 1    
   153   77   78 2    
   154   77   79 am   BACKBONE|DICT|INTERRES
   155   79   80 1    
   156   79  200 1    
   157   80   81 1    
   158   80   82 1    
   159   80  201 1    
   160   81  202 1    
   161   81  203 1    
   162   81  204 1    
   163   82   83 2    
   164   82   84 am   BACKBONE|DICT|INTERRES
   165   84   85 1    
   166   84  205 1    
   167   85   86 1    
   168   85   87 1    
   169   85  206 1    
   170   86  207 1    
   171   86  208 1    
   172   86  209 1    
   173   87   88 2    
   174   87   89 am   BACKBONE|DICT|INTERRES
   175   89   90 1    
   176   89  210 1    
   177   90   91 1    
   178   90   92 1    
   179   90  211 1    
   180   91  212 1    
   181   91  213 1    
   182   91  214 1    
   183   92   93 2    
   184   92   94 am   BACKBONE|DICT|INTERRES
   185   94   95 1    
   186   94  215 1    
   187   95   96 1    
   188   95   97 1    
   189   95  216 1    
   190   96  217 1    
   191   96  218 1    
   192   96  219 1    
   193   97   98 2    
   194   97   99 am   BACKBONE|DICT|INTERRES
   195   99  100 1    
   196   99  220 1    
   197  100  101 1    
   198  100  102 1    
   199  100  221 1    
   200  101  222 1    
   201  101  223 1    
   202  101  224 1    
   203  102  103 2    
   204  102  104 am   BACKBONE|DICT|INTERRES
   205  104  105 1    
   206  104  225 1    
   207  105  106 1    
   208  105  107 1    
   209  105  226 1    
   210  106  227 1    
   211  106  228 1    
   212  106  229 1    
   213  107  108 2    
   214  107  109 am   BACKBONE|DICT|INTERRES
   215  109  110 1    
   216  109  230 1    
   217  110  111 1    
   218  110  112 1    
   219  110  231 1    
   220  111  232 1    
   221  111  233 1    
   222  111  234 1    
   223  112  113 2    
   224  112  114 am   BACKBONE|DICT|INTERRES
   225  114  115 1    
   226  114  235 1    
   227  115  116 1    
   228  115  117 1    
   229  115  236 1    
   230  116  237 1    
   231  116  238 1    
   232  116  239 1    
   233  117  118 2    
   234  117  119 am   BACKBONE|DICT|INTERRES
   235  119  120 1    
   236  119  240 1    
   237  120  121 1    
   238  120  124 1    
   239  120  241 1    
   240  121  122 am   BACKBONE|DICT|INTERRES
   241  121  123 2    
   242  122  242 1    
   243  122  243 1    
   244  124  125 1    
   245  124  244 1    
   246  124  245 1    
   247  125  126 1    
   248  126  246 1    
   249  126  247 1    
@<TRIPOS>SUBSTRUCTURE
     1 UNK         1 GROUP             0       ****    0 ROOT    
