@<TRIPOS>MOLECULE
3R540
247   249    1
SMALL
USER_CHARGES


@<TRIPOS>ATOM
      1 CA         -0.8891  -13.5571  -51.6140 C.3       0 UNK        -0.1800 
      2 C           0.2183  -13.0140  -50.7220 C.2       0 UNK         0.5000 
      3 O           0.5142  -11.8194  -50.7669 O.2       0 UNK        -0.5000 
      4 N           0.8226  -13.8770  -49.8966 N.am      1 UNK        -0.5000 
      5 CA          1.8989  -13.5521  -48.9533 C.3       1 UNK         0.1400 
      6 C6          2.8005  -14.7854  -48.6801 C.3       23 UNK        -0.0398 
      7 S7          3.9905  -15.1200  -50.0273 S.3       23 UNK        -0.2404 
      8 C8          3.0290  -16.0462  -51.2723 C.3       23 UNK        -0.0205 
      9 C9          2.2934  -17.2482  -50.6980 C.ar      23 UNK        -0.0193 
     10 C10         0.8992  -17.2872  -50.7241 C.ar      23 UNK        -0.1150 
     11 C11         0.2059  -18.3602  -50.1618 C.ar      23 UNK        -0.0193 
     12 C12         0.9266  -19.4294  -49.6144 C.ar      23 UNK        -0.1150 
     13 C13         2.3296  -19.4224  -49.6020 C.ar      23 UNK        -0.0193 
     14 C14         2.9988  -18.3191  -50.1430 C.ar      23 UNK        -0.1150 
     15 C15         3.1808  -20.5490  -49.0028 C.3       23 UNK        -0.0205 
     16 S16         2.3610  -22.1632  -48.7455 S.3       23 UNK        -0.2404 
     17 C17         1.5567  -21.8884  -47.1341 C.3       23 UNK        -0.0398 
     18 CA          0.5302  -22.9579  -46.6812 C.3       11 UNK         0.1400 
     19 N          -0.0856  -22.5545  -45.4160 N.am      11 UNK        -0.5000 
     20 C          -0.9042  -23.2933  -44.6577 C.2       10 UNK         0.5000 
     21 O          -1.2022  -24.4592  -44.9071 O.2       10 UNK        -0.5000 
     22 CA         -1.5369  -22.5893  -43.4422 C.3       10 UNK         0.1400 
     23 CB         -0.5708  -22.5721  -42.2486 C.3       10 UNK        -0.1800 
     24 N          -1.9669  -21.2238  -43.7514 N.am      10 UNK        -0.5000 
     25 C          -2.9357  -20.9226  -44.6291 C.2       9 UNK         0.5000 
     26 O          -3.6071  -21.7686  -45.2201 O.2       9 UNK        -0.5000 
     27 CA         -3.1616  -19.4306  -44.9318 C.3       9 UNK         0.1400 
     28 CB         -4.0067  -18.7759  -43.8295 C.3       9 UNK        -0.1800 
     29 N          -1.9078  -18.6934  -45.0973 N.am      9 UNK        -0.5000 
     30 C          -1.0119  -18.9236  -46.0675 C.2       8 UNK         0.5000 
     31 O          -1.1811  -19.7547  -46.9584 O.2       8 UNK        -0.5000 
     32 CA          0.3178  -18.1458  -45.9930 C.3       8 UNK         0.1400 
     33 CB          0.1759  -16.7203  -46.5405 C.3       8 UNK        -0.1800 
     34 N           0.8460  -18.0839  -44.6322 N.am      8 UNK        -0.5000 
     35 C           1.2389  -19.1428  -43.9131 C.2       7 UNK         0.5000 
     36 O           1.2370  -20.2960  -44.3384 O.2       7 UNK        -0.5000 
     37 CA          1.6604  -18.8733  -42.4603 C.3       7 UNK         0.1400 
     38 CB          3.1349  -18.4496  -42.3860 C.3       7 UNK        -0.1800 
     39 N           0.8187  -17.8510  -41.8405 N.am      7 UNK        -0.5000 
     40 C          -0.4543  -18.0480  -41.4715 C.2       6 UNK         0.5000 
     41 O          -1.0349  -19.1300  -41.5703 O.2       6 UNK        -0.5000 
     42 CA         -1.2133  -16.8172  -40.9404 C.3       6 UNK         0.1400 
     43 CB         -0.8885  -16.5759  -39.4586 C.3       6 UNK        -0.1800 
     44 N          -0.9280  -15.6007  -41.7060 N.am      6 UNK        -0.5000 
     45 C          -1.2971  -15.4147  -42.9808 C.2       5 UNK         0.5000 
     46 O          -1.9314  -16.2427  -43.6313 O.2       5 UNK        -0.5000 
     47 CA         -0.8640  -14.1020  -43.6602 C.3       5 UNK         0.1400 
     48 CB         -1.8966  -12.9994  -43.3816 C.3       5 UNK        -0.1800 
     49 N           0.4738  -13.6175  -43.3032 N.am      5 UNK        -0.5000 
     50 C           1.6121  -14.3259  -43.3624 C.2       4 UNK         0.5000 
     51 O           1.6559  -15.5348  -43.5906 O.2       4 UNK        -0.5000 
     52 CA          2.9120  -13.5295  -43.1714 C.3       4 UNK         0.1400 
     53 CB          4.1804  -14.3676  -43.4172 C.3       4 UNK        -0.1800 
     54 N           2.8925  -12.3949  -44.0880 N.am      4 UNK        -0.5000 
     55 C           3.3010  -11.1525  -43.8018 C.2       3 UNK         0.5000 
     56 O           3.8093  -10.8329  -42.7264 O.2       3 UNK        -0.5000 
     57 CA          3.1005  -10.0749  -44.8901 C.3       3 UNK         0.1400 
     58 CB          4.4221   -9.8046  -45.6257 C.3       3 UNK        -0.1800 
     59 N           2.0742  -10.4183  -45.8777 N.am      3 UNK        -0.5000 
     60 C           0.7665  -10.5581  -45.6187 C.2       2 UNK         0.5000 
     61 O           0.2630  -10.3197  -44.5209 O.2       2 UNK        -0.5000 
     62 CA         -0.1242  -11.0908  -46.7601 C.3       2 UNK         0.1400 
     63 CB         -0.9233   -9.9456  -47.3992 C.3       2 UNK        -0.1800 
     64 N           0.5947  -11.8127  -47.8159 N.am      2 UNK        -0.5000 
     65 C           1.3056  -12.9387  -47.6634 C.2       1 UNK         0.5000 
     66 O           1.4929  -13.4712  -46.5692 O.2       1 UNK        -0.5000 
     67 C          -0.5372  -23.3071  -47.7451 C.2       11 UNK         0.5000 
     68 O          -0.4547  -24.3765  -48.3525 O.2       11 UNK        -0.5000 
     69 N          -1.5564  -22.4483  -47.9036 N.am      12 UNK        -0.5000 
     70 CA         -2.7217  -22.7061  -48.7542 C.3       12 UNK         0.1400 
     71 CB         -3.6373  -21.4757  -48.8129 C.3       12 UNK        -0.1800 
     72 C          -3.5191  -23.9484  -48.3238 C.2       12 UNK         0.5000 
     73 O          -3.8535  -24.7710  -49.1739 O.2       12 UNK        -0.5000 
     74 N          -3.7857  -24.0834  -47.0183 N.am      13 UNK        -0.5000 
     75 CA         -4.5021  -25.2239  -46.4452 C.3       13 UNK         0.1400 
     76 CB         -4.7972  -24.9522  -44.9623 C.3       13 UNK        -0.1800 
     77 C          -3.7580  -26.5626  -46.6197 C.2       13 UNK         0.5000 
     78 O          -4.3934  -27.5738  -46.9213 O.2       13 UNK        -0.5000 
     79 N          -2.4336  -26.5452  -46.4260 N.am      14 UNK        -0.5000 
     80 CA         -1.5736  -27.7220  -46.5026 C.3       14 UNK         0.1400 
     81 CB         -0.2740  -27.4543  -45.7262 C.3       14 UNK        -0.1800 
     82 C          -1.2571  -28.1522  -47.9446 C.2       14 UNK         0.5000 
     83 O          -1.3920  -29.3352  -48.2611 O.2       14 UNK        -0.5000 
     84 N          -0.7978  -27.2064  -48.7748 N.am      15 UNK        -0.5000 
     85 CA         -0.1587  -27.4966  -50.0617 C.3       15 UNK         0.1400 
     86 CB          1.1956  -26.7661  -50.1009 C.3       15 UNK        -0.1800 
     87 C          -1.0065  -27.1068  -51.2843 C.2       15 UNK         0.5000 
     88 O          -0.5744  -27.3789  -52.4052 O.2       15 UNK        -0.5000 
     89 N          -2.1615  -26.4543  -51.0737 N.am      16 UNK        -0.5000 
     90 CA         -3.0200  -25.8467  -52.1054 C.3       16 UNK         0.1400 
     91 CB         -3.6042  -26.9113  -53.0583 C.3       16 UNK        -0.1800 
     92 C          -2.3239  -24.6855  -52.8509 C.2       16 UNK         0.5000 
     93 O          -2.6513  -24.4062  -54.0067 O.2       16 UNK        -0.5000 
     94 N          -1.3644  -24.0372  -52.1733 N.am      17 UNK        -0.5000 
     95 CA         -0.5427  -22.9391  -52.6750 C.3       17 UNK         0.1400 
     96 CB          0.4624  -22.5343  -51.5906 C.3       17 UNK        -0.1800 
     97 C          -1.3943  -21.7367  -53.1111 C.2       17 UNK         0.5000 
     98 O          -2.0827  -21.1443  -52.2792 O.2       17 UNK        -0.5000 
     99 N          -1.3474  -21.4382  -54.4169 N.am      18 UNK        -0.5000 
    100 CA        -2.1250  -20.4087  -55.1141 C.3       18 UNK         0.1400 
    101 CB        -1.6738  -18.9982  -54.6822 C.3       18 UNK        -0.1800 
    102 C         -3.6556  -20.6325  -55.0565 C.2       18 UNK         0.5000 
    103 O         -4.4241  -19.6774  -55.1857 O.2       18 UNK        -0.5000 
    104 N         -4.0669  -21.9028  -54.9124 N.am      19 UNK        -0.5000 
    105 CA        -5.4395  -22.4096  -54.9303 C.3       19 UNK         0.1400 
    106 CB        -6.0072  -22.3537  -56.3667 C.3       19 UNK        -0.1800 
    107 C         -6.3390  -21.7340  -53.8742 C.2       19 UNK         0.5000 
    108 O         -6.2097  -22.0388  -52.6885 O.2       19 UNK        -0.5000 
    109 N         -7.2436  -20.8549  -54.3235 N.am      20 UNK        -0.5000 
    110 CA        -8.2195  -20.1454  -53.4966 C.3       20 UNK         0.1400 
    111 CB        -9.3880  -19.7065  -54.3944 C.3       20 UNK        -0.1800 
    112 C         -7.6389  -18.9357  -52.7367 C.2       20 UNK         0.5000 
    113 O         -8.3239  -18.4004  -51.8625 O.2       20 UNK        -0.5000 
    114 N         -6.4174  -18.5014  -53.0804 N.am      21 UNK        -0.5000 
    115 CA        -5.7232  -17.3974  -52.4150 C.3       21 UNK         0.1400 
    116 CB        -4.4787  -17.0190  -53.2276 C.3       21 UNK        -0.1800 
    117 C         -5.3305  -17.7339  -50.9630 C.2       21 UNK         0.5000 
    118 O         -5.2002  -18.9063  -50.6066 O.2       21 UNK        -0.5000 
    119 N         -5.1382  -16.6794  -50.1624 N.am      22 UNK        -0.5000 
    120 CA        -4.7689  -16.7215  -48.7349 C.3       22 UNK         0.1400 
    121 C         -5.8988  -17.2180  -47.7797 C.2       22 UNK         0.5000 
    122 N         -7.1289  -17.4123  -48.2399 N.am      22 UNK        -0.7600 
    123 O         -5.6687  -17.3958  -46.5877 O.2       22 UNK        -0.5000 
    124 C124       -3.4183  -17.4396  -48.4528 C.3       23 UNK        -0.0398 
    125 S125       -2.0270  -16.8242  -49.4666 S.3       23 UNK        -0.2404 
    126 C126       -1.3187  -18.3678  -50.1465 C.3       23 UNK        -0.0205 
    127 H127       -1.7990  -12.9722  -51.4801 H         1 UNK         0.0600 
    128 H128       -1.1222  -14.5972  -51.3884 H         1 UNK         0.0600 
    129 H129       -0.5922  -13.4934  -52.6607 H         1 UNK         0.0600 
    130 H130        0.4984  -14.8324  -49.8639 H         1 UNK         0.3000 
    131 H131        2.5297  -12.7751  -49.3906 H         1 UNK         0.0600 
    132 H132        3.4130  -14.6236  -47.7913 H         1 UNK         0.0800 
    133 H133        2.2066  -15.6738  -48.4661 H         1 UNK         0.0800 
    134 H134        2.3353  -15.3620  -51.7625 H         1 UNK         0.0800 
    135 H135        3.7097  -16.3910  -52.0517 H         1 UNK         0.0800 
    136 H136        0.3460  -16.4750  -51.1712 H         1 UNK         0.1150 
    137 H137        0.3803  -20.2618  -49.1982 H         1 UNK         0.1150 
    138 H138        4.0794  -18.2869  -50.1280 H         1 UNK         0.1150 
    139 H139        4.0300  -20.7274  -49.6642 H         1 UNK         0.0800 
    140 H140        3.6018  -20.2062  -48.0566 H         1 UNK         0.0800 
    141 H141        1.0856  -20.9100  -47.1547 H         1 UNK         0.0800 
    142 H142        2.3460  -21.8133  -46.3848 H         1 UNK         0.0800 
    143 H143        1.0846  -23.8776  -46.4835 H         1 UNK         0.0600 
    144 H144        0.1547  -21.6231  -45.0866 H         1 UNK         0.3000 
    145 H145       -2.4214  -23.1596  -43.1517 H         1 UNK         0.0600 
    146 H146       -1.0360  -22.1209  -41.3719 H         1 UNK         0.0600 
    147 H147       -0.2728  -23.5849  -41.9749 H         1 UNK         0.0600 
    148 H148        0.3374  -22.0118  -42.4695 H         1 UNK         0.0600 
    149 H149       -1.4805  -20.4707  -43.2798 H         1 UNK         0.3000 
    150 H150       -3.7154  -19.3628  -45.8701 H         1 UNK         0.0600 
    151 H151       -4.9490  -19.3074  -43.6921 H         1 UNK         0.0600 
    152 H152       -4.2517  -17.7448  -44.0850 H         1 UNK         0.0600 
    153 H153       -3.4870  -18.7688  -42.8711 H         1 UNK         0.0600 
    154 H154       -1.7340  -17.9420  -44.4349 H         1 UNK         0.3000 
    155 H155        1.0569  -18.6640  -46.6058 H         1 UNK         0.0600 
    156 H156        0.0930  -16.7357  -47.6248 H         1 UNK         0.0600 
    157 H157        1.0485  -16.1144  -46.2983 H         1 UNK         0.0600 
    158 H158       -0.7046  -16.2138  -46.1460 H         1 UNK         0.0600 
    159 H159        0.9403  -17.1601  -44.2177 H         1 UNK         0.3000 
    160 H160        1.5464  -19.8026  -41.8983 H         1 UNK         0.0600 
    161 H161        3.3243  -17.5376  -42.9523 H         1 UNK         0.0600 
    162 H162        3.7820  -19.2268  -42.7942 H         1 UNK         0.0600 
    163 H163        3.4447  -18.2761  -41.3555 H         1 UNK         0.0600 
    164 H164        1.1930  -16.9125  -41.8166 H         1 UNK         0.3000 
    165 H165       -2.2820  -17.0270  -41.0237 H         1 UNK         0.0600 
    166 H166       -1.4843  -15.7581  -39.0528 H         1 UNK         0.0600 
    167 H167       -1.1070  -17.4628  -38.8623 H         1 UNK         0.0600 
    168 H168        0.1639  -16.3312  -39.3100 H         1 UNK         0.0600 
    169 H169       -0.4023  -14.8742  -41.2428 H         1 UNK         0.3000 
    170 H170       -0.8520  -14.2848  -44.7361 H         1 UNK         0.0600 
    171 H171       -2.9026  -13.3293  -43.6447 H         1 UNK         0.0600 
    172 H172       -1.9083  -12.7169  -42.3283 H         1 UNK         0.0600 
    173 H173       -1.6908  -12.1037  -43.9661 H         1 UNK         0.0600 
    174 H174        0.5477  -12.6260  -43.1231 H         1 UNK         0.3000 
    175 H175        2.9189  -13.1817  -42.1366 H         1 UNK         0.0600 
    176 H176        4.2029  -14.7719  -44.4301 H         1 UNK         0.0600 
    177 H177        5.0810  -13.7705  -43.2746 H         1 UNK         0.0600 
    178 H178        4.2348  -15.2073  -42.7237 H         1 UNK         0.0600 
    179 H179        2.4567  -12.5791  -44.9871 H         1 UNK         0.3000 
    180 H180        2.7914   -9.1559  -44.3879 H         1 UNK         0.0600 
    181 H181        4.7714  -10.6879  -46.1621 H         1 UNK         0.0600 
    182 H182        5.2068   -9.5140  -44.9260 H         1 UNK         0.0600 
    183 H183        4.3148   -8.9933  -46.3459 H         1 UNK         0.0600 
    184 H184        2.3965  -10.6291  -46.8103 H         1 UNK         0.3000 
    185 H185       -0.8311  -11.7920  -46.3126 H         1 UNK         0.0600 
    186 H186       -1.5015   -9.4041  -46.6492 H         1 UNK         0.0600 
    187 H187       -0.2685   -9.2263  -47.8926 H         1 UNK         0.0600 
    188 H188       -1.6280  -10.3221  -48.1410 H         1 UNK         0.0600 
    189 H189        0.4869  -11.4603  -48.7617 H         1 UNK         0.3000 
    190 H190       -1.5411  -21.5653  -47.3991 H         1 UNK         0.3000 
    191 H191       -2.3586  -22.8925  -49.7660 H         1 UNK         0.0600 
    192 H192       -3.2093  -20.7089  -49.4525 H         1 UNK         0.0600 
    193 H193       -4.6087  -21.7218  -49.2445 H         1 UNK         0.0600 
    194 H194       -3.8141  -21.0446  -47.8280 H         1 UNK         0.0600 
    195 H195       -3.5151  -23.3407  -46.3796 H         1 UNK         0.3000 
    196 H196       -5.4573  -25.3085  -46.9676 H         1 UNK         0.0600 
    197 H197       -5.3630  -25.7730  -44.5198 H         1 UNK         0.0600 
    198 H198       -5.3882  -24.0447  -44.8377 H         1 UNK         0.0600 
    199 H199       -3.8807  -24.8358  -44.3838 H         1 UNK         0.0600 
    200 H200       -1.9958  -25.6807  -46.1172 H         1 UNK         0.3000 
    201 H201       -2.0842  -28.5539  -46.0125 H         1 UNK         0.0600 
    202 H202       -0.4799  -27.2452  -44.6763 H         1 UNK         0.0600 
    203 H203        0.2720  -26.6025  -46.1341 H         1 UNK         0.0600 
    204 H204        0.3897  -28.3191  -45.7615 H         1 UNK         0.0600 
    205 H205       -0.7356  -26.2420  -48.4546 H         1 UNK         0.3000 
    206 H206        0.0457  -28.5653  -50.1530 H         1 UNK         0.0600 
    207 H207        1.8174  -27.0412  -49.2489 H         1 UNK         0.0600 
    208 H208        1.7538  -27.0202  -51.0028 H         1 UNK         0.0600 
    209 H209        1.0725  -25.6828  -50.0891 H         1 UNK         0.0600 
    210 H210       -2.4435  -26.2707  -50.1183 H         1 UNK         0.3000 
    211 H211       -3.8669  -25.3971  -51.5894 H         1 UNK         0.0600 
    212 H212       -2.8433  -27.3409  -53.7100 H         1 UNK         0.0600 
    213 H213       -4.3714  -26.4777  -53.7007 H         1 UNK         0.0600 
    214 H214       -4.0703  -27.7247  -52.5023 H         1 UNK         0.0600 
    215 H215       -1.1769  -24.3353  -51.2276 H         1 UNK         0.3000 
    216 H216        0.0184  -23.3129  -53.5338 H         1 UNK         0.0600 
    217 H217        1.0979  -21.7143  -51.9279 H         1 UNK         0.0600 
    218 H218        1.1156  -23.3661  -51.3269 H         1 UNK         0.0600 
    219 H219       -0.0424  -22.2035  -50.6825 H         1 UNK         0.0600 
    220 H220       -0.7676  -22.0121  -55.0135 H         1 UNK         0.3000 
    221 H221       -1.8708  -20.5097  -56.1700 H         1 UNK         0.0600 
    222 H222       -1.7968  -18.8415  -53.6118 H         1 UNK         0.0600 
    223 H223       -0.6206  -18.8408  -54.9144 H         1 UNK         0.0600 
    224 H224       -2.2353  -18.2211  -55.2017 H         1 UNK         0.0600 
    225 H225       -3.3601  -22.6125  -54.7491 H         1 UNK         0.3000 
    226 H226       -5.3790  -23.4614  -54.6461 H         1 UNK         0.0600 
    227 H227       -5.4025  -22.9566  -57.0442 H         1 UNK         0.0600 
    228 H228       -7.0219  -22.7523  -56.4051 H         1 UNK         0.0600 
    229 H229       -6.0308  -21.3391  -56.7657 H         1 UNK         0.0600 
    230 H230       -7.2529  -20.6439  -55.3109 H         1 UNK         0.3000 
    231 H231       -8.6095  -20.8386  -52.7483 H         1 UNK         0.0600 
    232 H232       -9.0609  -19.0107  -55.1681 H         1 UNK         0.0600 
    233 H233      -10.1648  -19.2087  -53.8126 H         1 UNK         0.0600 
    234 H234       -9.8519  -20.5623  -54.8854 H         1 UNK         0.0600 
    235 H235       -5.8945  -19.0080  -53.7860 H         1 UNK         0.3000 
    236 H236       -6.3989  -16.5396  -52.4010 H         1 UNK         0.0600 
    237 H237       -4.7273  -16.8048  -54.2672 H         1 UNK         0.0600 
    238 H238       -3.9903  -16.1345  -52.8167 H         1 UNK         0.0600 
    239 H239       -3.7526  -17.8283  -53.2128 H         1 UNK         0.0600 
    240 H240       -5.2659  -15.7531  -50.5434 H         1 UNK         0.3000 
    241 H241       -4.6274  -15.6764  -48.4578 H         1 UNK         0.0600 
    242 H242       -7.8497  -17.7201  -47.6065 H         1 UNK         0.3800 
    243 H243       -7.3394  -17.2897  -49.2178 H         1 UNK         0.3800 
    244 H244       -3.1350  -17.2952  -47.4096 H         1 UNK         0.0800 
    245 H245       -3.5335  -18.5149  -48.5805 H         1 UNK         0.0800 
    246 H246       -1.6526  -19.2134  -49.5512 H         1 UNK         0.0800 
    247 H247       -1.6981  -18.5290  -51.1559 H         1 UNK         0.0800 
@<TRIPOS>BOND
     1    1    2 1    
     2    1  127 1    
     3    1  128 1    
     4    1  129 1    
     5    2    3 2    
     6    2    4 am   BACKBONE|DICT|INTERRES
     7    4    5 1    
     8    4  130 1    
     9    5    6 1    
    10    5   65 1    
    11    5  131 1    
    12    6    7 1    
    13    6  132 1    
    14    6  133 1    
    15    7    8 1    
    16    8    9 1    
    17    8  134 1    
    18    8  135 1    
    19    9   10 ar   
    20    9   14 ar   
    21   10   11 ar   
    22   10  136 1    
    23   11   12 ar   
    24   11  126 1    
    25   12   13 ar   
    26   12  137 1    
    27   13   14 ar   
    28   13   15 1    
    29   14  138 1    
    30   15   16 1    
    31   15  139 1    
    32   15  140 1    
    33   16   17 1    
    34   17   18 1    
    35   17  141 1    
    36   17  142 1    
    37   18   19 1    
    38   18   67 1    
    39   18  143 1    
    40   19   20 am   BACKBONE|DICT|INTERRES
    41   19  144 1    
    42   20   21 2    
    43   20   22 1    
    44   22   23 1    
    45   22   24 1    
    46   22  145 1    
    47   23  146 1    
    48   23  147 1    
    49   23  148 1    
    50   24   25 am   BACKBONE|DICT|INTERRES
    51   24  149 1    
    52   25   26 2    
    53   25   27 1    
    54   27   28 1    
    55   27   29 1    
    56   27  150 1    
    57   28  151 1    
    58   28  152 1    
    59   28  153 1    
    60   29   30 am   BACKBONE|DICT|INTERRES
    61   29  154 1    
    62   30   31 2    
    63   30   32 1    
    64   32   33 1    
    65   32   34 1    
    66   32  155 1    
    67   33  156 1    
    68   33  157 1    
    69   33  158 1    
    70   34   35 am   BACKBONE|DICT|INTERRES
    71   34  159 1    
    72   35   36 2    
    73   35   37 1    
    74   37   38 1    
    75   37   39 1    
    76   37  160 1    
    77   38  161 1    
    78   38  162 1    
    79   38  163 1    
    80   39   40 am   BACKBONE|DICT|INTERRES
    81   39  164 1    
    82   40   41 2    
    83   40   42 1    
    84   42   43 1    
    85   42   44 1    
    86   42  165 1    
    87   43  166 1    
    88   43  167 1    
    89   43  168 1    
    90   44   45 am   BACKBONE|DICT|INTERRES
    91   44  169 1    
    92   45   46 2    
    93   45   47 1    
    94   47   48 1    
    95   47   49 1    
    96   47  170 1    
    97   48  171 1    
    98   48  172 1    
    99   48  173 1    
   100   49   50 am   BACKBONE|DICT|INTERRES
   101   49  174 1    
   102   50   51 2    
   103   50   52 1    
   104   52   53 1    
   105   52   54 1    
   106   52  175 1    
   107   53  176 1    
   108   53  177 1    
   109   53  178 1    
   110   54   55 am   BACKBONE|DICT|INTERRES
   111   54  179 1    
   112   55   56 2    
   113   55   57 1    
   114   57   58 1    
   115   57   59 1    
   116   57  180 1    
   117   58  181 1    
   118   58  182 1    
   119   58  183 1    
   120   59   60 am   BACKBONE|DICT|INTERRES
   121   59  184 1    
   122   60   61 2    
   123   60   62 1    
   124   62   63 1    
   125   62   64 1    
   126   62  185 1    
   127   63  186 1    
   128   63  187 1    
   129   63  188 1    
   130   64   65 am   BACKBONE|DICT|INTERRES
   131   64  189 1    
   132   65   66 2    
   133   67   68 2    
   134   67   69 am   BACKBONE|DICT|INTERRES
   135   69   70 1    
   136   69  190 1    
   137   70   71 1    
   138   70   72 1    
   139   70  191 1    
   140   71  192 1    
   141   71  193 1    
   142   71  194 1    
   143   72   73 2    
   144   72   74 am   BACKBONE|DICT|INTERRES
   145   74   75 1    
   146   74  195 1    
   147   75   76 1    
   148   75   77 1    
   149   75  196 1    
   150   76  197 1    
   151   76  198 1    
   152   76  199 1    
   153   77   78 2    
   154   77   79 am   BACKBONE|DICT|INTERRES
   155   79   80 1    
   156   79  200 1    
   157   80   81 1    
   158   80   82 1    
   159   80  201 1    
   160   81  202 1    
   161   81  203 1    
   162   81  204 1    
   163   82   83 2    
   164   82   84 am   BACKBONE|DICT|INTERRES
   165   84   85 1    
   166   84  205 1    
   167   85   86 1    
   168   85   87 1    
   169   85  206 1    
   170   86  207 1    
   171   86  208 1    
   172   86  209 1    
   173   87   88 2    
   174   87   89 am   BACKBONE|DICT|INTERRES
   175   89   90 1    
   176   89  210 1    
   177   90   91 1    
   178   90   92 1    
   179   90  211 1    
   180   91  212 1    
   181   91  213 1    
   182   91  214 1    
   183   92   93 2    
   184   92   94 am   BACKBONE|DICT|INTERRES
   185   94   95 1    
   186   94  215 1    
   187   95   96 1    
   188   95   97 1    
   189   95  216 1    
   190   96  217 1    
   191   96  218 1    
   192   96  219 1    
   193   97   98 2    
   194   97   99 am   BACKBONE|DICT|INTERRES
   195   99  100 1    
   196   99  220 1    
   197  100  101 1    
   198  100  102 1    
   199  100  221 1    
   200  101  222 1    
   201  101  223 1    
   202  101  224 1    
   203  102  103 2    
   204  102  104 am   BACKBONE|DICT|INTERRES
   205  104  105 1    
   206  104  225 1    
   207  105  106 1    
   208  105  107 1    
   209  105  226 1    
   210  106  227 1    
   211  106  228 1    
   212  106  229 1    
   213  107  108 2    
   214  107  109 am   BACKBONE|DICT|INTERRES
   215  109  110 1    
   216  109  230 1    
   217  110  111 1    
   218  110  112 1    
   219  110  231 1    
   220  111  232 1    
   221  111  233 1    
   222  111  234 1    
   223  112  113 2    
   224  112  114 am   BACKBONE|DICT|INTERRES
   225  114  115 1    
   226  114  235 1    
   227  115  116 1    
   228  115  117 1    
   229  115  236 1    
   230  116  237 1    
   231  116  238 1    
   232  116  239 1    
   233  117  118 2    
   234  117  119 am   BACKBONE|DICT|INTERRES
   235  119  120 1    
   236  119  240 1    
   237  120  121 1    
   238  120  124 1    
   239  120  241 1    
   240  121  122 am   BACKBONE|DICT|INTERRES
   241  121  123 2    
   242  122  242 1    
   243  122  243 1    
   244  124  125 1    
   245  124  244 1    
   246  124  245 1    
   247  125  126 1    
   248  126  246 1    
   249  126  247 1    
@<TRIPOS>SUBSTRUCTURE
     1 UNK         1 GROUP             0       ****    0 ROOT    
