@<TRIPOS>MOLECULE
3R540
247   249    1
SMALL
USER_CHARGES


@<TRIPOS>ATOM
      1 CA         -5.1182  -15.1444  -49.7088 C.3       0 UNK        -0.1800 
      2 C          -3.9630  -15.6204  -48.8394 C.2       0 UNK         0.5000 
      3 O          -4.0840  -16.6506  -48.1786 O.2       0 UNK        -0.5000 
      4 N          -2.8580  -14.8618  -48.8236 N.am      1 UNK        -0.5000 
      5 CA         -1.5647  -15.1346  -48.1718 C.3       1 UNK         0.1400 
      6 C6         -0.8541  -16.4066  -48.7102 C.3       23 UNK        -0.0398 
      7 S7         -0.3026  -16.1624  -50.4313 S.3       23 UNK        -0.2404 
      8 C8          1.4996  -15.9697  -50.2306 C.3       23 UNK        -0.0205 
      9 C9          2.2280  -17.3018  -50.3415 C.ar      23 UNK        -0.0193 
     10 C10         2.2734  -17.9577  -51.5729 C.ar      23 UNK        -0.1150 
     11 C11         2.9273  -19.1822  -51.7088 C.ar      23 UNK        -0.0193 
     12 C12         3.5791  -19.7385  -50.6051 C.ar      23 UNK        -0.1150 
     13 C13         3.5471  -19.0934  -49.3633 C.ar      23 UNK        -0.0193 
     14 C14         2.8674  -17.8747  -49.2375 C.ar      23 UNK        -0.1150 
     15 C15         4.2317  -19.7220  -48.1532 C.3       23 UNK        -0.0205 
     16 S16         3.5542  -21.3599  -47.7081 S.3       23 UNK        -0.2404 
     17 C17         1.7621  -21.0853  -47.8822 C.3       23 UNK        -0.0398 
     18 CA          0.9071  -22.1467  -47.1543 C.3       11 UNK         0.1400 
     19 N           0.9709  -22.0487  -45.6913 N.am      11 UNK        -0.5000 
     20 C           0.3876  -22.9153  -44.8473 C.2       10 UNK         0.5000 
     21 O          -0.1815  -23.9454  -45.2102 O.2       10 UNK        -0.5000 
     22 CA          0.3673  -22.5330  -43.3547 C.3       10 UNK         0.1400 
     23 CB          1.6860  -22.9016  -42.6594 C.3       10 UNK        -0.1800 
     24 N           0.0665  -21.1138  -43.1538 N.am      10 UNK        -0.5000 
     25 C          -1.1027  -20.5451  -43.4812 C.2       9 UNK         0.5000 
     26 O          -2.0703  -21.1776  -43.9007 O.2       9 UNK        -0.5000 
     27 CA         -1.2001  -19.0140  -43.3824 C.3       9 UNK         0.1400 
     28 CB         -1.6047  -18.5672  -41.9705 C.3       9 UNK        -0.1800 
     29 N           0.0367  -18.3447  -43.7871 N.am      9 UNK        -0.5000 
     30 C           0.5144  -18.3264  -45.0394 C.2       8 UNK         0.5000 
     31 O          -0.0974  -18.7812  -46.0043 O.2       8 UNK        -0.5000 
     32 CA          1.9393  -17.7768  -45.2420 C.3       8 UNK         0.1400 
     33 CB          1.9512  -16.2716  -45.5291 C.3       8 UNK        -0.1800 
     34 N           2.8022  -18.0495  -44.0966 N.am      8 UNK        -0.5000 
     35 C           3.2772  -19.2617  -43.7855 C.2       7 UNK         0.5000 
     36 O           3.0644  -20.2675  -44.4602 O.2       7 UNK        -0.5000 
     37 CA          4.0783  -19.3676  -42.4749 C.3       7 UNK         0.1400 
     38 CB          5.5512  -19.0032  -42.7116 C.3       7 UNK        -0.1800 
     39 N           3.5277  -18.5107  -41.4214 N.am      7 UNK        -0.5000 
     40 C           2.3367  -18.7083  -40.8378 C.2       6 UNK         0.5000 
     41 O           1.6167  -19.6759  -41.0802 O.2       6 UNK        -0.5000 
     42 CA          1.8456  -17.6168  -39.8659 C.3       6 UNK         0.1400 
     43 CB          2.3471  -17.8973  -38.4418 C.3       6 UNK        -0.1800 
     44 N           2.2495  -16.2651  -40.2679 N.am      6 UNK        -0.5000 
     45 C           1.8402  -15.6515  -41.3863 C.2       5 UNK         0.5000 
     46 O           1.0507  -16.1519  -42.1897 O.2       5 UNK        -0.5000 
     47 CA          2.4807  -14.2919  -41.6930 C.3       5 UNK         0.1400 
     48 CB          3.9327  -14.5024  -42.1753 C.3       5 UNK        -0.1800 
     49 N           1.7008  -13.6021  -42.7201 N.am      5 UNK        -0.5000 
     50 C           1.8792  -12.3320  -43.1039 C.2       4 UNK         0.5000 
     51 O           2.6775  -11.5619  -42.5677 O.2       4 UNK        -0.5000 
     52 CA          1.0420  -11.8319  -44.2936 C.3       4 UNK         0.1400 
     53 CB          1.6674  -12.2835  -45.6229 C.3       4 UNK        -0.1800 
     54 N          -0.3585  -12.2533  -44.2398 N.am      4 UNK        -0.5000 
     55 C          -1.2792  -11.6781  -43.4505 C.2       3 UNK         0.5000 
     56 O          -1.0118  -10.8005  -42.6283 O.2       3 UNK        -0.5000 
     57 CA         -2.7517  -12.1090  -43.6212 C.3       3 UNK         0.1400 
     58 CB         -3.5241  -11.0586  -44.4348 C.3       3 UNK        -0.1800 
     59 N          -2.9100  -13.4086  -44.2705 N.am      3 UNK        -0.5000 
     60 C          -2.6715  -14.5832  -43.6767 C.2       2 UNK         0.5000 
     61 O          -2.3674  -14.6934  -42.4890 O.2       2 UNK        -0.5000 
     62 CA         -2.7700  -15.8488  -44.5506 C.3       2 UNK         0.1400 
     63 CB         -4.0750  -16.6067  -44.2644 C.3       2 UNK        -0.1800 
     64 N          -2.6449  -15.6482  -45.9986 N.am      2 UNK        -0.5000 
     65 C          -1.5937  -15.1110  -46.6279 C.2       1 UNK         0.5000 
     66 O          -0.6639  -14.5733  -46.0291 O.2       1 UNK        -0.5000 
     67 C          -0.5453  -22.0836  -47.6653 C.2       11 UNK         0.5000 
     68 O          -0.9371  -22.9413  -48.4538 O.2       11 UNK        -0.5000 
     69 N          -1.3240  -21.1007  -47.1896 N.am      12 UNK        -0.5000 
     70 CA         -2.7362  -20.9206  -47.5317 C.3       12 UNK         0.1400 
     71 CB         -3.2688  -19.6395  -46.8750 C.3       12 UNK        -0.1800 
     72 C          -3.6065  -22.1310  -47.1480 C.2       12 UNK         0.5000 
     73 O          -4.4223  -22.5692  -47.9569 O.2       12 UNK        -0.5000 
     74 N          -3.3884  -22.6777  -45.9444 N.am      13 UNK        -0.5000 
     75 CA         -4.0577  -23.8782  -45.4428 C.3       13 UNK         0.1400 
     76 CB         -3.6889  -24.0923  -43.9671 C.3       13 UNK        -0.1800 
     77 C          -3.7412  -25.1365  -46.2724 C.2       13 UNK         0.5000 
     78 O          -4.6444  -25.9340  -46.5267 O.2       13 UNK        -0.5000 
     79 N          -2.4771  -25.2821  -46.6935 N.am      14 UNK        -0.5000 
     80 CA         -2.0171  -26.3691  -47.5575 C.3       14 UNK         0.1400 
     81 CB         -0.4816  -26.4236  -47.5368 C.3       14 UNK        -0.1800 
     82 C          -2.5423  -26.2411  -48.9999 C.2       14 UNK         0.5000 
     83 O          -2.9619  -27.2405  -49.5847 O.2       14 UNK        -0.5000 
     84 N          -2.5080  -25.0178  -49.5448 N.am      15 UNK        -0.5000 
     85 CA         -2.9533  -24.6895  -50.8990 C.3       15 UNK         0.1400 
     86 CB         -2.3934  -23.3134  -51.2838 C.3       15 UNK        -0.1800 
     87 C          -4.4846  -24.7252  -51.0639 C.2       15 UNK         0.5000 
     88 O          -4.9625  -25.0341  -52.1567 O.2       15 UNK        -0.5000 
     89 N          -5.2208  -24.4198  -49.9851 N.am      16 UNK        -0.5000 
     90 CA         -6.6796  -24.4347  -49.8598 C.3       16 UNK         0.1400 
     91 CB         -7.2076  -25.8857  -49.8920 C.3       16 UNK        -0.1800 
     92 C          -7.3493  -23.5005  -50.8862 C.2       16 UNK         0.5000 
     93 O          -7.3126  -22.2834  -50.7090 O.2       16 UNK        -0.5000 
     94 N          -7.9167  -24.0678  -51.9588 N.am      17 UNK        -0.5000 
     95 CA         -8.5108  -23.3316  -53.0773 C.3       17 UNK         0.1400 
     96 CB         -9.2289  -24.3255  -54.0026 C.3       17 UNK        -0.1800 
     97 C          -7.4908  -22.4921  -53.8750 C.2       17 UNK         0.5000 
     98 O          -7.8770  -21.4964  -54.4876 O.2       17 UNK        -0.5000 
     99 N          -6.2120  -22.8912  -53.8400 N.am      18 UNK        -0.5000 
    100 CA        -5.1012  -22.2118  -54.5056 C.3       18 UNK         0.1400 
    101 CB        -4.1299  -23.2705  -55.0577 C.3       18 UNK        -0.1800 
    102 C         -4.3816  -21.1965  -53.5932 C.2       18 UNK         0.5000 
    103 O         -3.3000  -20.7384  -53.9561 O.2       18 UNK        -0.5000 
    104 N         -4.9635  -20.8427  -52.4345 N.am      19 UNK        -0.5000 
    105 CA        -4.3949  -19.8993  -51.4581 C.3       19 UNK         0.1400 
    106 CB        -5.3154  -19.8085  -50.2335 C.3       19 UNK        -0.1800 
    107 C         -4.1009  -18.4867  -52.0034 C.2       19 UNK         0.5000 
    108 O         -3.2776  -17.7779  -51.4263 O.2       19 UNK        -0.5000 
    109 N         -4.7433  -18.1089  -53.1160 N.am      20 UNK        -0.5000 
    110 CA        -4.4872  -16.8912  -53.8830 C.3       20 UNK         0.1400 
    111 CB        -5.6829  -16.6446  -54.8201 C.3       20 UNK        -0.1800 
    112 C         -3.1385  -16.9520  -54.6389 C.2       20 UNK         0.5000 
    113 O         -3.1173  -16.9938  -55.8698 O.2       20 UNK        -0.5000 
    114 N         -2.0417  -16.9458  -53.8710 N.am      21 UNK        -0.5000 
    115 CA        -0.6395  -16.8790  -54.2936 C.3       21 UNK         0.1400 
    116 CB        -0.3551  -15.5748  -55.0688 C.3       21 UNK        -0.1800 
    117 C         -0.1050  -18.1394  -55.0114 C.2       21 UNK         0.5000 
    118 O          0.8621  -18.0350  -55.7687 O.2       21 UNK        -0.5000 
    119 N         -0.6983  -19.3067  -54.7267 N.am      22 UNK        -0.5000 
    120 CA        -0.3331  -20.6343  -55.2601 C.3       22 UNK         0.1400 
    121 C         -0.6819  -20.8299  -56.7676 C.2       22 UNK         0.5000 
    122 N         -0.4779  -22.0245  -57.3092 N.am      22 UNK        -0.7600 
    123 O         -1.1594  -19.9328  -57.4586 O.2       22 UNK        -0.5000 
    124 C124        1.1252  -21.0706  -54.9227 C.3       23 UNK        -0.0398 
    125 S125        1.4760  -21.0356  -53.1295 S.3       23 UNK        -0.2404 
    126 C126        2.8983  -19.9016  -53.0462 C.3       23 UNK        -0.0205 
    127 H127       -5.3634  -15.9049  -50.4503 H         1 UNK         0.0600 
    128 H128       -4.8767  -14.2215  -50.2363 H         1 UNK         0.0600 
    129 H129       -6.0015  -14.9671  -49.0956 H         1 UNK         0.0600 
    130 H130       -2.8652  -14.0146  -49.3737 H         1 UNK         0.3000 
    131 H131       -0.9384  -14.2823  -48.4415 H         1 UNK         0.0600 
    132 H132       -1.5185  -17.2706  -48.6782 H         1 UNK         0.0800 
    133 H133        0.0073  -16.6793  -48.1010 H         1 UNK         0.0800 
    134 H134        1.7241  -15.4715  -49.2862 H         1 UNK         0.0800 
    135 H135        1.8654  -15.3061  -51.0154 H         1 UNK         0.0800 
    136 H136        1.7846  -17.5198  -52.4287 H         1 UNK         0.1150 
    137 H137        4.0870  -20.6877  -50.7038 H         1 UNK         0.1150 
    138 H138        2.8390  -17.3686  -48.2838 H         1 UNK         0.1150 
    139 H139        5.2959  -19.8304  -48.3658 H         1 UNK         0.0800 
    140 H140        4.1655  -19.0673  -47.2844 H         1 UNK         0.0800 
    141 H141        1.5468  -21.0935  -48.9531 H         1 UNK         0.0800 
    142 H142        1.5155  -20.0839  -47.5324 H         1 UNK         0.0800 
    143 H143        1.2927  -23.1318  -47.4261 H         1 UNK         0.0600 
    144 H144        1.4857  -21.2635  -45.3070 H         1 UNK         0.3000 
    145 H145       -0.4298  -23.1079  -42.8785 H         1 UNK         0.0600 
    146 H146        1.6595  -22.6427  -41.6007 H         1 UNK         0.0600 
    147 H147        2.5404  -22.3955  -43.1059 H         1 UNK         0.0600 
    148 H148        1.8720  -23.9740  -42.7283 H         1 UNK         0.0600 
    149 H149        0.7933  -20.5393  -42.7419 H         1 UNK         0.3000 
    150 H150       -1.9880  -18.7070  -44.0698 H         1 UNK         0.0600 
    151 H151       -2.5826  -18.9695  -41.7037 H         1 UNK         0.0600 
    152 H152       -1.6690  -17.4810  -41.9005 H         1 UNK         0.0600 
    153 H153       -0.8963  -18.9093  -41.2175 H         1 UNK         0.0600 
    154 H154        0.5597  -17.8647  -43.0624 H         1 UNK         0.3000 
    155 H155        2.3607  -18.2841  -46.1093 H         1 UNK         0.0600 
    156 H156        2.9688  -15.8861  -45.5934 H         1 UNK         0.0600 
    157 H157        1.4704  -16.0537  -46.4804 H         1 UNK         0.0600 
    158 H158        1.4275  -15.7087  -44.7579 H         1 UNK         0.0600 
    159 H159        2.9773  -17.2820  -43.4667 H         1 UNK         0.3000 
    160 H160        4.0306  -20.4048  -42.1362 H         1 UNK         0.0600 
    161 H161        6.1416  -19.1413  -41.8056 H         1 UNK         0.0600 
    162 H162        5.6654  -17.9670  -43.0327 H         1 UNK         0.0600 
    163 H163        5.9898  -19.6367  -43.4839 H         1 UNK         0.0600 
    164 H164        4.0688  -17.7010  -41.1573 H         1 UNK         0.3000 
    165 H165        0.7543  -17.6508  -39.8553 H         1 UNK         0.0600 
    166 H166        1.9387  -17.1784  -37.7313 H         1 UNK         0.0600 
    167 H167        2.0413  -18.8902  -38.1092 H         1 UNK         0.0600 
    168 H168        3.4350  -17.8508  -38.3800 H         1 UNK         0.0600 
    169 H169        2.9031  -15.7926  -39.6598 H         1 UNK         0.3000 
    170 H170        2.4734  -13.6930  -40.7802 H         1 UNK         0.0600 
    171 H171        3.9663  -15.0537  -43.1157 H         1 UNK         0.0600 
    172 H172        4.4479  -13.5547  -42.3294 H         1 UNK         0.0600 
    173 H173        4.5194  -15.0610  -41.4453 H         1 UNK         0.0600 
    174 H174        0.9912  -14.1722  -43.1638 H         1 UNK         0.3000 
    175 H175        1.0686  -10.7400  -44.2775 H         1 UNK         0.0600 
    176 H176        1.7044  -13.3693  -45.7055 H         1 UNK         0.0600 
    177 H177        1.1041  -11.9024  -46.4748 H         1 UNK         0.0600 
    178 H178        2.6897  -11.9152  -45.7169 H         1 UNK         0.0600 
    179 H179       -0.6322  -13.0011  -44.8707 H         1 UNK         0.3000 
    180 H180       -3.1961  -12.1607  -42.6249 H         1 UNK         0.0600 
    181 H181       -4.5814  -11.3142  -44.5069 H         1 UNK         0.0600 
    182 H182       -3.1303  -10.9650  -45.4477 H         1 UNK         0.0600 
    183 H183       -3.4605  -10.0757  -43.9658 H         1 UNK         0.0600 
    184 H184       -3.1494  -13.4073  -45.2509 H         1 UNK         0.3000 
    185 H185       -1.9288  -16.4709  -44.2538 H         1 UNK         0.0600 
    186 H186       -4.9476  -16.0231  -44.5598 H         1 UNK         0.0600 
    187 H187       -4.1100  -17.5539  -44.8019 H         1 UNK         0.0600 
    188 H188       -4.1730  -16.8331  -43.2018 H         1 UNK         0.0600 
    189 H189       -3.3592  -16.0719  -46.5870 H         1 UNK         0.3000 
    190 H190       -0.9127  -20.3971  -46.5821 H         1 UNK         0.3000 
    191 H191       -2.7956  -20.7965  -48.6147 H         1 UNK         0.0600 
    192 H192       -2.6669  -18.7734  -47.1476 H         1 UNK         0.0600 
    193 H193       -3.2729  -19.7149  -45.7889 H         1 UNK         0.0600 
    194 H194       -4.2930  -19.4358  -47.1886 H         1 UNK         0.0600 
    195 H195       -2.7356  -22.2222  -45.3109 H         1 UNK         0.3000 
    196 H196       -5.1343  -23.7056  -45.5019 H         1 UNK         0.0600 
    197 H197       -3.9892  -23.2392  -43.3585 H         1 UNK         0.0600 
    198 H198       -2.6155  -24.2335  -43.8372 H         1 UNK         0.0600 
    199 H199       -4.1887  -24.9733  -43.5624 H         1 UNK         0.0600 
    200 H200       -1.7823  -24.6008  -46.4065 H         1 UNK         0.3000 
    201 H201       -2.3919  -27.3100  -47.1491 H         1 UNK         0.0600 
    202 H202       -0.1078  -26.5901  -46.5264 H         1 UNK         0.0600 
    203 H203       -0.0391  -25.4981  -47.9065 H         1 UNK         0.0600 
    204 H204       -0.1108  -27.2380  -48.1602 H         1 UNK         0.0600 
    205 H205       -2.0874  -24.2581  -49.0131 H         1 UNK         0.3000 
    206 H206       -2.5312  -25.4289  -51.5826 H         1 UNK         0.0600 
    207 H207       -2.7962  -22.5276  -50.6447 H         1 UNK         0.0600 
    208 H208       -1.3069  -23.2900  -51.1977 H         1 UNK         0.0600 
    209 H209       -2.6347  -23.0650  -52.3152 H         1 UNK         0.0600 
    210 H210       -4.7333  -24.0557  -49.1714 H         1 UNK         0.3000 
    211 H211       -6.9072  -24.0227  -48.8755 H         1 UNK         0.0600 
    212 H212       -6.9542  -26.4022  -50.8183 H         1 UNK         0.0600 
    213 H213       -8.2923  -25.9119  -49.7807 H         1 UNK         0.0600 
    214 H214       -6.7864  -26.4655  -49.0703 H         1 UNK         0.0600 
    215 H215       -7.8723  -25.0726  -52.0488 H         1 UNK         0.3000 
    216 H216       -9.2543  -22.6434  -52.6699 H         1 UNK         0.0600 
    217 H217       -9.7086  -23.8086  -54.8348 H         1 UNK         0.0600 
    218 H218      -10.0073  -24.8708  -53.4686 H         1 UNK         0.0600 
    219 H219       -8.5357  -25.0545  -54.4245 H         1 UNK         0.0600 
    220 H220       -5.9684  -23.7091  -53.2885 H         1 UNK         0.3000 
    221 H221       -5.4795  -21.6448  -55.3585 H         1 UNK         0.0600 
    222 H222       -3.6898  -23.8729  -54.2639 H         1 UNK         0.0600 
    223 H223       -4.6387  -23.9475  -55.7440 H         1 UNK         0.0600 
    224 H224       -3.3120  -22.8080  -55.6119 H         1 UNK         0.0600 
    225 H225       -5.8462  -21.2690  -52.1823 H         1 UNK         0.3000 
    226 H226       -3.4368  -20.3059  -51.1308 H         1 UNK         0.0600 
    227 H227       -5.3751  -20.7649  -49.7157 H         1 UNK         0.0600 
    228 H228       -4.9444  -19.0767  -49.5148 H         1 UNK         0.0600 
    229 H229       -6.3269  -19.5112  -50.5118 H         1 UNK         0.0600 
    230 H230       -5.3836  -18.7692  -53.5307 H         1 UNK         0.3000 
    231 H231       -4.4331  -16.0503  -53.1881 H         1 UNK         0.0600 
    232 H232       -5.5443  -15.7301  -55.3982 H         1 UNK         0.0600 
    233 H233       -6.6091  -16.5328  -54.2560 H         1 UNK         0.0600 
    234 H234       -5.8177  -17.4643  -55.5270 H         1 UNK         0.0600 
    235 H235       -2.1921  -16.9953  -52.8663 H         1 UNK         0.3000 
    236 H236       -0.0769  -16.8161  -53.3647 H         1 UNK         0.0600 
    237 H237       -0.8259  -15.5775  -56.0522 H         1 UNK         0.0600 
    238 H238       -0.7183  -14.7040  -54.5230 H         1 UNK         0.0600 
    239 H239        0.7157  -15.4347  -55.2208 H         1 UNK         0.0600 
    240 H240       -1.5251  -19.3020  -54.1442 H         1 UNK         0.3000 
    241 H241       -0.9872  -21.3314  -54.7384 H         1 UNK         0.0600 
    242 H242       -0.1163  -22.8002  -56.7771 H         1 UNK         0.3800 
    243 H243       -0.7090  -22.1611  -58.2812 H         1 UNK         0.3800 
    244 H244        1.8460  -20.4595  -55.4663 H         1 UNK         0.0800 
    245 H245        1.3043  -22.0945  -55.2523 H         1 UNK         0.0800 
    246 H246        3.8214  -20.4623  -53.1999 H         1 UNK         0.0800 
    247 H247        2.8438  -19.1665  -53.8507 H         1 UNK         0.0800 
@<TRIPOS>BOND
     1    1    2 1    
     2    1  127 1    
     3    1  128 1    
     4    1  129 1    
     5    2    3 2    
     6    2    4 am   BACKBONE|DICT|INTERRES
     7    4    5 1    
     8    4  130 1    
     9    5    6 1    
    10    5   65 1    
    11    5  131 1    
    12    6    7 1    
    13    6  132 1    
    14    6  133 1    
    15    7    8 1    
    16    8    9 1    
    17    8  134 1    
    18    8  135 1    
    19    9   10 ar   
    20    9   14 ar   
    21   10   11 ar   
    22   10  136 1    
    23   11   12 ar   
    24   11  126 1    
    25   12   13 ar   
    26   12  137 1    
    27   13   14 ar   
    28   13   15 1    
    29   14  138 1    
    30   15   16 1    
    31   15  139 1    
    32   15  140 1    
    33   16   17 1    
    34   17   18 1    
    35   17  141 1    
    36   17  142 1    
    37   18   19 1    
    38   18   67 1    
    39   18  143 1    
    40   19   20 am   BACKBONE|DICT|INTERRES
    41   19  144 1    
    42   20   21 2    
    43   20   22 1    
    44   22   23 1    
    45   22   24 1    
    46   22  145 1    
    47   23  146 1    
    48   23  147 1    
    49   23  148 1    
    50   24   25 am   BACKBONE|DICT|INTERRES
    51   24  149 1    
    52   25   26 2    
    53   25   27 1    
    54   27   28 1    
    55   27   29 1    
    56   27  150 1    
    57   28  151 1    
    58   28  152 1    
    59   28  153 1    
    60   29   30 am   BACKBONE|DICT|INTERRES
    61   29  154 1    
    62   30   31 2    
    63   30   32 1    
    64   32   33 1    
    65   32   34 1    
    66   32  155 1    
    67   33  156 1    
    68   33  157 1    
    69   33  158 1    
    70   34   35 am   BACKBONE|DICT|INTERRES
    71   34  159 1    
    72   35   36 2    
    73   35   37 1    
    74   37   38 1    
    75   37   39 1    
    76   37  160 1    
    77   38  161 1    
    78   38  162 1    
    79   38  163 1    
    80   39   40 am   BACKBONE|DICT|INTERRES
    81   39  164 1    
    82   40   41 2    
    83   40   42 1    
    84   42   43 1    
    85   42   44 1    
    86   42  165 1    
    87   43  166 1    
    88   43  167 1    
    89   43  168 1    
    90   44   45 am   BACKBONE|DICT|INTERRES
    91   44  169 1    
    92   45   46 2    
    93   45   47 1    
    94   47   48 1    
    95   47   49 1    
    96   47  170 1    
    97   48  171 1    
    98   48  172 1    
    99   48  173 1    
   100   49   50 am   BACKBONE|DICT|INTERRES
   101   49  174 1    
   102   50   51 2    
   103   50   52 1    
   104   52   53 1    
   105   52   54 1    
   106   52  175 1    
   107   53  176 1    
   108   53  177 1    
   109   53  178 1    
   110   54   55 am   BACKBONE|DICT|INTERRES
   111   54  179 1    
   112   55   56 2    
   113   55   57 1    
   114   57   58 1    
   115   57   59 1    
   116   57  180 1    
   117   58  181 1    
   118   58  182 1    
   119   58  183 1    
   120   59   60 am   BACKBONE|DICT|INTERRES
   121   59  184 1    
   122   60   61 2    
   123   60   62 1    
   124   62   63 1    
   125   62   64 1    
   126   62  185 1    
   127   63  186 1    
   128   63  187 1    
   129   63  188 1    
   130   64   65 am   BACKBONE|DICT|INTERRES
   131   64  189 1    
   132   65   66 2    
   133   67   68 2    
   134   67   69 am   BACKBONE|DICT|INTERRES
   135   69   70 1    
   136   69  190 1    
   137   70   71 1    
   138   70   72 1    
   139   70  191 1    
   140   71  192 1    
   141   71  193 1    
   142   71  194 1    
   143   72   73 2    
   144   72   74 am   BACKBONE|DICT|INTERRES
   145   74   75 1    
   146   74  195 1    
   147   75   76 1    
   148   75   77 1    
   149   75  196 1    
   150   76  197 1    
   151   76  198 1    
   152   76  199 1    
   153   77   78 2    
   154   77   79 am   BACKBONE|DICT|INTERRES
   155   79   80 1    
   156   79  200 1    
   157   80   81 1    
   158   80   82 1    
   159   80  201 1    
   160   81  202 1    
   161   81  203 1    
   162   81  204 1    
   163   82   83 2    
   164   82   84 am   BACKBONE|DICT|INTERRES
   165   84   85 1    
   166   84  205 1    
   167   85   86 1    
   168   85   87 1    
   169   85  206 1    
   170   86  207 1    
   171   86  208 1    
   172   86  209 1    
   173   87   88 2    
   174   87   89 am   BACKBONE|DICT|INTERRES
   175   89   90 1    
   176   89  210 1    
   177   90   91 1    
   178   90   92 1    
   179   90  211 1    
   180   91  212 1    
   181   91  213 1    
   182   91  214 1    
   183   92   93 2    
   184   92   94 am   BACKBONE|DICT|INTERRES
   185   94   95 1    
   186   94  215 1    
   187   95   96 1    
   188   95   97 1    
   189   95  216 1    
   190   96  217 1    
   191   96  218 1    
   192   96  219 1    
   193   97   98 2    
   194   97   99 am   BACKBONE|DICT|INTERRES
   195   99  100 1    
   196   99  220 1    
   197  100  101 1    
   198  100  102 1    
   199  100  221 1    
   200  101  222 1    
   201  101  223 1    
   202  101  224 1    
   203  102  103 2    
   204  102  104 am   BACKBONE|DICT|INTERRES
   205  104  105 1    
   206  104  225 1    
   207  105  106 1    
   208  105  107 1    
   209  105  226 1    
   210  106  227 1    
   211  106  228 1    
   212  106  229 1    
   213  107  108 2    
   214  107  109 am   BACKBONE|DICT|INTERRES
   215  109  110 1    
   216  109  230 1    
   217  110  111 1    
   218  110  112 1    
   219  110  231 1    
   220  111  232 1    
   221  111  233 1    
   222  111  234 1    
   223  112  113 2    
   224  112  114 am   BACKBONE|DICT|INTERRES
   225  114  115 1    
   226  114  235 1    
   227  115  116 1    
   228  115  117 1    
   229  115  236 1    
   230  116  237 1    
   231  116  238 1    
   232  116  239 1    
   233  117  118 2    
   234  117  119 am   BACKBONE|DICT|INTERRES
   235  119  120 1    
   236  119  240 1    
   237  120  121 1    
   238  120  124 1    
   239  120  241 1    
   240  121  122 am   BACKBONE|DICT|INTERRES
   241  121  123 2    
   242  122  242 1    
   243  122  243 1    
   244  124  125 1    
   245  124  244 1    
   246  124  245 1    
   247  125  126 1    
   248  126  246 1    
   249  126  247 1    
@<TRIPOS>SUBSTRUCTURE
     1 UNK         1 GROUP             0       ****    0 ROOT    
