@<TRIPOS>MOLECULE
3R540
247   249    1
SMALL
USER_CHARGES


@<TRIPOS>ATOM
      1 CA          2.2375  -15.8096  -49.3329 C.3       0 UNK        -0.1800 
      2 C           1.6697  -14.4065  -49.1691 C.2       0 UNK         0.5000 
      3 O           2.3792  -13.4272  -49.3971 O.2       0 UNK        -0.5000 
      4 N           0.3924  -14.3111  -48.7786 N.am      1 UNK        -0.5000 
      5 CA         -0.3793  -13.0701  -48.6204 C.3       1 UNK         0.1400 
      6 C6         -0.5541  -12.2806  -49.9575 C.3       23 UNK        -0.0398 
      7 S7         -2.3144  -11.9673  -50.3337 S.3       23 UNK        -0.2404 
      8 C8         -2.6486  -13.1646  -51.6728 C.3       23 UNK        -0.0205 
      9 C9         -2.1638  -14.5722  -51.3474 C.ar      23 UNK        -0.0193 
     10 C10        -1.1753  -15.1731  -52.1336 C.ar      23 UNK        -0.1150 
     11 C11        -0.6882  -16.4468  -51.8239 C.ar      23 UNK        -0.0193 
     12 C12        -1.1920  -17.1114  -50.7014 C.ar      23 UNK        -0.1150 
     13 C13        -2.1958  -16.5307  -49.9215 C.ar      23 UNK        -0.0193 
     14 C14        -2.6855  -15.2659  -50.2527 C.ar      23 UNK        -0.1150 
     15 C15        -2.7530  -17.2815  -48.7294 C.3       23 UNK        -0.0205 
     16 S16        -1.7458  -16.9841  -47.2462 S.3       23 UNK        -0.2404 
     17 C17        -2.4223  -18.2144  -46.0732 C.3       23 UNK        -0.0398 
     18 CA         -2.3019  -19.6836  -46.5548 C.3       11 UNK         0.1400 
     19 N          -0.9544  -20.0078  -47.0278 N.am      11 UNK        -0.5000 
     20 C          -0.6804  -20.9091  -47.9786 C.2       10 UNK         0.5000 
     21 O          -1.5444  -21.5910  -48.5236 O.2       10 UNK        -0.5000 
     22 CA          0.8003  -21.1060  -48.3613 C.3       10 UNK         0.1400 
     23 CB          1.1777  -20.1530  -49.5055 C.3       10 UNK        -0.1800 
     24 N           1.7243  -20.8912  -47.2467 N.am      10 UNK        -0.5000 
     25 C           1.7229  -21.5776  -46.0952 C.2       9 UNK         0.5000 
     26 O           1.0055  -22.5560  -45.8912 O.2       9 UNK        -0.5000 
     27 CA          2.6235  -21.0447  -44.9605 C.3       9 UNK         0.1400 
     28 CB          3.9476  -21.8210  -44.9144 C.3       9 UNK        -0.1800 
     29 N           2.9133  -19.6063  -45.0351 N.am      9 UNK        -0.5000 
     30 C           1.9947  -18.6315  -45.0694 C.2       8 UNK         0.5000 
     31 O           0.7801  -18.8336  -45.0725 O.2       8 UNK        -0.5000 
     32 CA          2.5268  -17.1951  -45.1286 C.3       8 UNK         0.1400 
     33 CB          1.5321  -16.2499  -45.8187 C.3       8 UNK        -0.1800 
     34 N           2.8033  -16.7173  -43.7775 N.am      8 UNK        -0.5000 
     35 C           3.9932  -16.8182  -43.1709 C.2       7 UNK         0.5000 
     36 O           4.9953  -17.2951  -43.7053 O.2       7 UNK        -0.5000 
     37 CA          4.0663  -16.3348  -41.7146 C.3       7 UNK         0.1400 
     38 CB          3.8977  -14.8093  -41.6166 C.3       7 UNK        -0.1800 
     39 N           3.0409  -16.9948  -40.9112 N.am      7 UNK        -0.5000 
     40 C           3.2141  -18.1556  -40.2620 C.2       6 UNK         0.5000 
     41 O           4.2876  -18.7563  -40.2056 O.2       6 UNK        -0.5000 
     42 CA          1.9787  -18.7529  -39.5576 C.3       6 UNK         0.1400 
     43 CB          1.9179  -18.2907  -38.0937 C.3       6 UNK        -0.1800 
     44 N           0.7280  -18.3901  -40.2228 N.am      6 UNK        -0.5000 
     45 C           0.3414  -18.8522  -41.4203 C.2       5 UNK         0.5000 
     46 O           0.9239  -19.7581  -42.0137 O.2       5 UNK        -0.5000 
     47 CA         -0.8841  -18.1752  -42.0698 C.3       5 UNK         0.1400 
     48 CB         -2.1062  -19.1047  -42.0322 C.3       5 UNK        -0.1800 
     49 N          -1.2405  -16.8918  -41.4555 N.am      5 UNK        -0.5000 
     50 C          -0.5156  -15.7695  -41.5449 C.2       4 UNK         0.5000 
     51 O           0.5418  -15.6789  -42.1765 O.2       4 UNK        -0.5000 
     52 CA         -1.0168  -14.5834  -40.7139 C.3       4 UNK         0.1400 
     53 CB         -0.4451  -14.6475  -39.2865 C.3       4 UNK        -0.1800 
     54 N          -0.6122  -13.3340  -41.3459 N.am      4 UNK        -0.5000 
     55 C          -1.2949  -12.1846  -41.2728 C.2       3 UNK         0.5000 
     56 O          -2.3332  -12.0532  -40.6224 O.2       3 UNK        -0.5000 
     57 CA         -0.7388  -10.9667  -42.0411 C.3       3 UNK         0.1400 
     58 CB         -0.0850   -9.9743  -41.0663 C.3       3 UNK        -0.1800 
     59 N           0.2276  -11.2938  -43.0930 N.am      3 UNK        -0.5000 
     60 C          -0.0515  -11.9646  -44.2175 C.2       2 UNK         0.5000 
     61 O          -1.1685  -12.4156  -44.4835 O.2       2 UNK        -0.5000 
     62 CA          1.1355  -12.1799  -45.1776 C.3       2 UNK         0.1400 
     63 CB          2.2276  -13.0351  -44.5115 C.3       2 UNK        -0.1800 
     64 N           0.7172  -12.8187  -46.4269 N.am      2 UNK        -0.5000 
     65 C           0.0933  -12.1918  -47.4343 C.2       1 UNK         0.5000 
     66 O          -0.1217  -10.9777  -47.4377 O.2       1 UNK        -0.5000 
     67 C          -2.8071  -20.6813  -45.4928 C.2       11 UNK         0.5000 
     68 O          -3.9918  -20.6474  -45.1611 O.2       11 UNK        -0.5000 
     69 N          -1.9286  -21.5680  -45.0009 N.am      12 UNK        -0.5000 
     70 CA         -2.2825  -22.6757  -44.1118 C.3       12 UNK         0.1400 
     71 CB         -1.0656  -23.0338  -43.2424 C.3       12 UNK        -0.1800 
     72 C          -2.7882  -23.9136  -44.8833 C.2       12 UNK         0.5000 
     73 O          -3.2983  -24.8414  -44.2532 O.2       12 UNK        -0.5000 
     74 N          -2.6348  -23.9249  -46.2171 N.am      13 UNK        -0.5000 
     75 CA         -3.1163  -24.9816  -47.1080 C.3       13 UNK         0.1400 
     76 CB         -2.4936  -24.7782  -48.4974 C.3       13 UNK        -0.1800 
     77 C          -4.6566  -25.0119  -47.1917 C.2       13 UNK         0.5000 
     78 O          -5.3076  -23.9927  -46.9496 O.2       13 UNK        -0.5000 
     79 N          -5.2060  -26.1783  -47.5595 N.am      14 UNK        -0.5000 
     80 CA         -6.6359  -26.5210  -47.5166 C.3       14 UNK         0.1400 
     81 CB         -6.8135  -27.9588  -48.0287 C.3       14 UNK        -0.1800 
     82 C          -7.5880  -25.5694  -48.2706 C.2       14 UNK         0.5000 
     83 O          -8.7339  -25.4057  -47.8498 O.2       14 UNK        -0.5000 
     84 N          -7.0955  -24.9557  -49.3513 N.am      15 UNK        -0.5000 
     85 CA         -7.7883  -23.9297  -50.1333 C.3       15 UNK         0.1400 
     86 CB         -8.2624  -24.5283  -51.4708 C.3       15 UNK        -0.1800 
     87 C          -6.8871  -22.6956  -50.3244 C.2       15 UNK         0.5000 
     88 O          -7.0258  -21.9867  -51.3229 O.2       15 UNK        -0.5000 
     89 N          -5.9628  -22.4718  -49.3758 N.am      16 UNK        -0.5000 
     90 CA         -4.9851  -21.3826  -49.3300 C.3       16 UNK         0.1400 
     91 CB         -5.6882  -20.0721  -48.9116 C.3       16 UNK        -0.1800 
     92 C          -4.1716  -21.2825  -50.6385 C.2       16 UNK         0.5000 
     93 O          -3.5681  -22.2765  -51.0474 O.2       16 UNK        -0.5000 
     94 N          -4.2148  -20.1183  -51.3006 N.am      17 UNK        -0.5000 
     95 CA         -3.5082  -19.8128  -52.5461 C.3       17 UNK         0.1400 
     96 CB         -3.8021  -18.3581  -52.9416 C.3       17 UNK        -0.1800 
     97 C          -3.8325  -20.7494  -53.7264 C.2       17 UNK         0.5000 
     98 O          -2.9898  -20.9044  -54.6117 O.2       17 UNK        -0.5000 
     99 N          -5.0281  -21.3574  -53.7249 N.am      18 UNK        -0.5000 
    100 CA        -5.4556  -22.3205  -54.7393 C.3       18 UNK         0.1400 
    101 CB        -6.9900  -22.3673  -54.7885 C.3       18 UNK        -0.1800 
    102 C         -4.8780  -23.7260  -54.4933 C.2       18 UNK         0.5000 
    103 O         -4.5993  -24.4367  -55.4588 O.2       18 UNK        -0.5000 
    104 N         -4.6907  -24.0982  -53.2187 N.am      19 UNK        -0.5000 
    105 CA        -4.0888  -25.3722  -52.8160 C.3       19 UNK         0.1400 
    106 CB        -4.5668  -25.7587  -51.4093 C.3       19 UNK        -0.1800 
    107 C         -2.5550  -25.3168  -52.8798 C.2       19 UNK         0.5000 
    108 O         -1.9280  -26.2819  -53.3175 O.2       19 UNK        -0.5000 
    109 N         -1.9829  -24.1730  -52.4800 N.am      20 UNK        -0.5000 
    110 CA        -0.5576  -23.8652  -52.6095 C.3       20 UNK         0.1400 
    111 CB        -0.2418  -22.6385  -51.7439 C.3       20 UNK        -0.1800 
    112 C         -0.1242  -23.6193  -54.0692 C.2       20 UNK         0.5000 
    113 O          1.0651  -23.7208  -54.3710 O.2       20 UNK        -0.5000 
    114 N         -1.0974  -23.2945  -54.9340 N.am      21 UNK        -0.5000 
    115 CA        -0.9800  -22.9921  -56.3641 C.3       21 UNK         0.1400 
    116 CB        -0.4584  -24.2142  -57.1480 C.3       21 UNK        -0.1800 
    117 C         -0.1873  -21.7014  -56.6615 C.2       21 UNK         0.5000 
    118 O          0.3168  -21.5351  -57.7739 O.2       21 UNK        -0.5000 
    119 N         -0.1069  -20.8038  -55.6720 N.am      22 UNK        -0.5000 
    120 CA         0.5033  -19.4728  -55.7866 C.3       22 UNK         0.1400 
    121 C         -0.4848  -18.3745  -56.2790 C.2       22 UNK         0.5000 
    122 N         -1.7901  -18.6231  -56.3119 N.am      22 UNK        -0.7600 
    123 O         -0.0563  -17.2869  -56.6549 O.2       22 UNK        -0.5000 
    124 C124        1.2402  -19.0748  -54.4817 C.3       23 UNK        -0.0398 
    125 S125        0.1368  -18.8401  -53.0436 S.3       23 UNK        -0.2404 
    126 C126        0.3987  -17.0681  -52.6957 C.3       23 UNK        -0.0205 
    127 H127        2.6954  -15.9160  -50.3160 H         1 UNK         0.0600 
    128 H128        1.4643  -16.5723  -49.2374 H         1 UNK         0.0600 
    129 H129        3.0015  -15.9974  -48.5787 H         1 UNK         0.0600 
    130 H130       -0.1379  -15.1588  -48.6259 H         1 UNK         0.3000 
    131 H131       -1.3598  -13.4269  -48.3015 H         1 UNK         0.0600 
    132 H132       -0.0251  -11.3265  -49.9497 H         1 UNK         0.0800 
    133 H133       -0.1121  -12.8210  -50.7945 H         1 UNK         0.0800 
    134 H134       -2.1838  -12.7994  -52.5899 H         1 UNK         0.0800 
    135 H135       -3.7221  -13.1926  -51.8640 H         1 UNK         0.0800 
    136 H136       -0.7747  -14.6410  -52.9850 H         1 UNK         0.1150 
    137 H137       -0.8146  -18.0893  -50.4403 H         1 UNK         0.1150 
    138 H138       -3.4539  -14.8088  -49.6450 H         1 UNK         0.1150 
    139 H139       -3.7864  -16.9896  -48.5368 H         1 UNK         0.0800 
    140 H140       -2.7628  -18.3414  -48.9781 H         1 UNK         0.0800 
    141 H141       -3.4654  -17.9619  -45.8755 H         1 UNK         0.0800 
    142 H142       -1.8941  -18.0836  -45.1283 H         1 UNK         0.0800 
    143 H143       -2.9928  -19.8081  -47.3878 H         1 UNK         0.0600 
    144 H144       -0.1981  -19.5161  -46.5592 H         1 UNK         0.3000 
    145 H145        0.9197  -22.1347  -48.7070 H         1 UNK         0.0600 
    146 H146        1.1483  -19.1103  -49.1871 H         1 UNK         0.0600 
    147 H147        2.1788  -20.3624  -49.8824 H         1 UNK         0.0600 
    148 H148        0.4885  -20.2548  -50.3437 H         1 UNK         0.0600 
    149 H149        2.3520  -20.1056  -47.3263 H         1 UNK         0.3000 
    150 H150        2.0920  -21.2204  -44.0232 H         1 UNK         0.0600 
    151 H151        3.7691  -22.8940  -44.8313 H         1 UNK         0.0600 
    152 H152        4.5480  -21.5259  -44.0537 H         1 UNK         0.0600 
    153 H153        4.5423  -21.6552  -45.8135 H         1 UNK         0.0600 
    154 H154        3.8888  -19.3435  -45.0058 H         1 UNK         0.3000 
    155 H155        3.4387  -17.1981  -45.7296 H         1 UNK         0.0600 
    156 H156        1.1634  -16.6858  -46.7469 H         1 UNK         0.0600 
    157 H157        0.6670  -16.0331  -45.1901 H         1 UNK         0.0600 
    158 H158        2.0172  -15.3135  -46.0829 H         1 UNK         0.0600 
    159 H159        2.0110  -16.3528  -43.2562 H         1 UNK         0.3000 
    160 H160        5.0572  -16.5823  -41.3276 H         1 UNK         0.0600 
    161 H161        4.0518  -14.4651  -40.5939 H         1 UNK         0.0600 
    162 H162        4.6245  -14.2944  -42.2460 H         1 UNK         0.0600 
    163 H163        2.9055  -14.4843  -41.9275 H         1 UNK         0.0600 
    164 H164        2.1141  -16.5933  -40.9543 H         1 UNK         0.3000 
    165 H165        2.0772  -19.8405  -39.5721 H         1 UNK         0.0600 
    166 H166        1.0826  -18.7537  -37.5681 H         1 UNK         0.0600 
    167 H167        2.8287  -18.5655  -37.5600 H         1 UNK         0.0600 
    168 H168        1.8060  -17.2084  -38.0164 H         1 UNK         0.0600 
    169 H169        0.1693  -17.6752  -39.7829 H         1 UNK         0.3000 
    170 H170       -0.6310  -17.9838  -43.1124 H         1 UNK         0.0600 
    171 H171       -1.8813  -20.0622  -42.5009 H         1 UNK         0.0600 
    172 H172       -2.4273  -19.3077  -41.0100 H         1 UNK         0.0600 
    173 H173       -2.9488  -18.6726  -42.5725 H         1 UNK         0.0600 
    174 H174       -2.0873  -16.8840  -40.9047 H         1 UNK         0.3000 
    175 H175       -2.1070  -14.6356  -40.6717 H         1 UNK         0.0600 
    176 H176        0.6451  -14.6047  -39.2883 H         1 UNK         0.0600 
    177 H177       -0.8097  -13.8196  -38.6782 H         1 UNK         0.0600 
    178 H178       -0.7389  -15.5697  -38.7838 H         1 UNK         0.0600 
    179 H179        0.2064  -13.3957  -41.9358 H         1 UNK         0.3000 
    180 H180       -1.5891  -10.4698  -42.5130 H         1 UNK         0.0600 
    181 H181        0.7872  -10.4086  -40.5761 H         1 UNK         0.0600 
    182 H182       -0.7843   -9.6736  -40.2849 H         1 UNK         0.0600 
    183 H183        0.2336   -9.0669  -41.5798 H         1 UNK         0.0600 
    184 H184        1.1704  -10.9639  -42.9444 H         1 UNK         0.3000 
    185 H185        1.5620  -11.2027  -45.4138 H         1 UNK         0.0600 
    186 H186        3.0288  -13.2755  -45.2106 H         1 UNK         0.0600 
    187 H187        2.6866  -12.5081  -43.6747 H         1 UNK         0.0600 
    188 H188        1.8231  -13.9688  -44.1212 H         1 UNK         0.0600 
    189 H189        0.8169  -13.8205  -46.4819 H         1 UNK         0.3000 
    190 H190       -0.9723  -21.5467  -45.3321 H         1 UNK         0.3000 
    191 H191       -3.0849  -22.3540  -43.4446 H         1 UNK         0.0600 
    192 H192       -0.2671  -23.4863  -43.8296 H         1 UNK         0.0600 
    193 H193       -1.3415  -23.7502  -42.4679 H         1 UNK         0.0600 
    194 H194       -0.6570  -22.1560  -42.7417 H         1 UNK         0.0600 
    195 H195       -2.2279  -23.1153  -46.6634 H         1 UNK         0.3000 
    196 H196       -2.7710  -25.9377  -46.7092 H         1 UNK         0.0600 
    197 H197       -2.6905  -25.6331  -49.1433 H         1 UNK         0.0600 
    198 H198       -1.4106  -24.6673  -48.4364 H         1 UNK         0.0600 
    199 H199       -2.8896  -23.8906  -48.9907 H         1 UNK         0.0600 
    200 H200       -4.5864  -26.9483  -47.7669 H         1 UNK         0.3000 
    201 H201       -6.9342  -26.4976  -46.4665 H         1 UNK         0.0600 
    202 H202       -6.2491  -28.6678  -47.4229 H         1 UNK         0.0600 
    203 H203       -6.4816  -28.0600  -49.0629 H         1 UNK         0.0600 
    204 H204       -7.8604  -28.2635  -47.9889 H         1 UNK         0.0600 
    205 H205       -6.1412  -25.1518  -49.6146 H         1 UNK         0.3000 
    206 H206       -8.6674  -23.5755  -49.5916 H         1 UNK         0.0600 
    207 H207       -8.8532  -25.4306  -51.3124 H         1 UNK         0.0600 
    208 H208       -8.8930  -23.8214  -52.0112 H         1 UNK         0.0600 
    209 H209       -7.4275  -24.7826  -52.1231 H         1 UNK         0.0600 
    210 H210       -5.9271  -23.1032  -48.5806 H         1 UNK         0.3000 
    211 H211       -4.2716  -21.6441  -48.5478 H         1 UNK         0.0600 
    212 H212       -6.4474  -19.7651  -49.6321 H         1 UNK         0.0600 
    213 H213       -4.9795  -19.2527  -48.8006 H         1 UNK         0.0600 
    214 H214       -6.1822  -20.1926  -47.9472 H         1 UNK         0.0600 
    215 H215       -4.7830  -19.3764  -50.9204 H         1 UNK         0.3000 
    216 H216       -2.4432  -19.9082  -52.3355 H         1 UNK         0.0600 
    217 H217       -3.1885  -18.0542  -53.7905 H         1 UNK         0.0600 
    218 H218       -3.5847  -17.6690  -52.1277 H         1 UNK         0.0600 
    219 H219       -4.8470  -18.2204  -53.2223 H         1 UNK         0.0600 
    220 H220       -5.6603  -21.2009  -52.9487 H         1 UNK         0.3000 
    221 H221       -5.1017  -21.9821  -55.7158 H         1 UNK         0.0600 
    222 H222       -7.4151  -22.7242  -53.8508 H         1 UNK         0.0600 
    223 H223       -7.4085  -21.3818  -54.9929 H         1 UNK         0.0600 
    224 H224       -7.3336  -23.0368  -55.5780 H         1 UNK         0.0600 
    225 H225       -4.8673  -23.4227  -52.4870 H         1 UNK         0.3000 
    226 H226       -4.4157  -26.1564  -53.5026 H         1 UNK         0.0600 
    227 H227       -5.6140  -26.0550  -51.4272 H         1 UNK         0.0600 
    228 H228       -4.0064  -26.6113  -51.0231 H         1 UNK         0.0600 
    229 H229       -4.4495  -24.9354  -50.7053 H         1 UNK         0.0600 
    230 H230       -2.5667  -23.4513  -52.0614 H         1 UNK         0.3000 
    231 H231        0.0163  -24.7128  -52.2296 H         1 UNK         0.0600 
    232 H232        0.8184  -22.3862  -51.7889 H         1 UNK         0.0600 
    233 H233       -0.4903  -22.8268  -50.7000 H         1 UNK         0.0600 
    234 H234       -0.8044  -21.7623  -52.0671 H         1 UNK         0.0600 
    235 H235       -2.0294  -23.1987  -54.5567 H         1 UNK         0.3000 
    236 H236       -1.9976  -22.7973  -56.7060 H         1 UNK         0.0600 
    237 H237       -0.5310  -24.0495  -58.2236 H         1 UNK         0.0600 
    238 H238       -1.0408  -25.1065  -56.9181 H         1 UNK         0.0600 
    239 H239        0.5866  -24.4265  -56.9210 H         1 UNK         0.0600 
    240 H240       -0.6043  -20.9927  -54.8131 H         1 UNK         0.3000 
    241 H241        1.2732  -19.5263  -56.5586 H         1 UNK         0.0600 
    242 H242       -2.1542  -19.4976  -55.9542 H         1 UNK         0.3800 
    243 H243       -2.4216  -17.9122  -56.6434 H         1 UNK         0.3800 
    244 H244        1.8330  -18.1741  -54.6483 H         1 UNK         0.0800 
    245 H245        1.9629  -19.8497  -54.2228 H         1 UNK         0.0800 
    246 H246        1.3649  -16.9394  -52.2071 H         1 UNK         0.0800 
    247 H247        0.4529  -16.5330  -53.6453 H         1 UNK         0.0800 
@<TRIPOS>BOND
     1    1    2 1    
     2    1  127 1    
     3    1  128 1    
     4    1  129 1    
     5    2    3 2    
     6    2    4 am   BACKBONE|DICT|INTERRES
     7    4    5 1    
     8    4  130 1    
     9    5    6 1    
    10    5   65 1    
    11    5  131 1    
    12    6    7 1    
    13    6  132 1    
    14    6  133 1    
    15    7    8 1    
    16    8    9 1    
    17    8  134 1    
    18    8  135 1    
    19    9   10 ar   
    20    9   14 ar   
    21   10   11 ar   
    22   10  136 1    
    23   11   12 ar   
    24   11  126 1    
    25   12   13 ar   
    26   12  137 1    
    27   13   14 ar   
    28   13   15 1    
    29   14  138 1    
    30   15   16 1    
    31   15  139 1    
    32   15  140 1    
    33   16   17 1    
    34   17   18 1    
    35   17  141 1    
    36   17  142 1    
    37   18   19 1    
    38   18   67 1    
    39   18  143 1    
    40   19   20 am   BACKBONE|DICT|INTERRES
    41   19  144 1    
    42   20   21 2    
    43   20   22 1    
    44   22   23 1    
    45   22   24 1    
    46   22  145 1    
    47   23  146 1    
    48   23  147 1    
    49   23  148 1    
    50   24   25 am   BACKBONE|DICT|INTERRES
    51   24  149 1    
    52   25   26 2    
    53   25   27 1    
    54   27   28 1    
    55   27   29 1    
    56   27  150 1    
    57   28  151 1    
    58   28  152 1    
    59   28  153 1    
    60   29   30 am   BACKBONE|DICT|INTERRES
    61   29  154 1    
    62   30   31 2    
    63   30   32 1    
    64   32   33 1    
    65   32   34 1    
    66   32  155 1    
    67   33  156 1    
    68   33  157 1    
    69   33  158 1    
    70   34   35 am   BACKBONE|DICT|INTERRES
    71   34  159 1    
    72   35   36 2    
    73   35   37 1    
    74   37   38 1    
    75   37   39 1    
    76   37  160 1    
    77   38  161 1    
    78   38  162 1    
    79   38  163 1    
    80   39   40 am   BACKBONE|DICT|INTERRES
    81   39  164 1    
    82   40   41 2    
    83   40   42 1    
    84   42   43 1    
    85   42   44 1    
    86   42  165 1    
    87   43  166 1    
    88   43  167 1    
    89   43  168 1    
    90   44   45 am   BACKBONE|DICT|INTERRES
    91   44  169 1    
    92   45   46 2    
    93   45   47 1    
    94   47   48 1    
    95   47   49 1    
    96   47  170 1    
    97   48  171 1    
    98   48  172 1    
    99   48  173 1    
   100   49   50 am   BACKBONE|DICT|INTERRES
   101   49  174 1    
   102   50   51 2    
   103   50   52 1    
   104   52   53 1    
   105   52   54 1    
   106   52  175 1    
   107   53  176 1    
   108   53  177 1    
   109   53  178 1    
   110   54   55 am   BACKBONE|DICT|INTERRES
   111   54  179 1    
   112   55   56 2    
   113   55   57 1    
   114   57   58 1    
   115   57   59 1    
   116   57  180 1    
   117   58  181 1    
   118   58  182 1    
   119   58  183 1    
   120   59   60 am   BACKBONE|DICT|INTERRES
   121   59  184 1    
   122   60   61 2    
   123   60   62 1    
   124   62   63 1    
   125   62   64 1    
   126   62  185 1    
   127   63  186 1    
   128   63  187 1    
   129   63  188 1    
   130   64   65 am   BACKBONE|DICT|INTERRES
   131   64  189 1    
   132   65   66 2    
   133   67   68 2    
   134   67   69 am   BACKBONE|DICT|INTERRES
   135   69   70 1    
   136   69  190 1    
   137   70   71 1    
   138   70   72 1    
   139   70  191 1    
   140   71  192 1    
   141   71  193 1    
   142   71  194 1    
   143   72   73 2    
   144   72   74 am   BACKBONE|DICT|INTERRES
   145   74   75 1    
   146   74  195 1    
   147   75   76 1    
   148   75   77 1    
   149   75  196 1    
   150   76  197 1    
   151   76  198 1    
   152   76  199 1    
   153   77   78 2    
   154   77   79 am   BACKBONE|DICT|INTERRES
   155   79   80 1    
   156   79  200 1    
   157   80   81 1    
   158   80   82 1    
   159   80  201 1    
   160   81  202 1    
   161   81  203 1    
   162   81  204 1    
   163   82   83 2    
   164   82   84 am   BACKBONE|DICT|INTERRES
   165   84   85 1    
   166   84  205 1    
   167   85   86 1    
   168   85   87 1    
   169   85  206 1    
   170   86  207 1    
   171   86  208 1    
   172   86  209 1    
   173   87   88 2    
   174   87   89 am   BACKBONE|DICT|INTERRES
   175   89   90 1    
   176   89  210 1    
   177   90   91 1    
   178   90   92 1    
   179   90  211 1    
   180   91  212 1    
   181   91  213 1    
   182   91  214 1    
   183   92   93 2    
   184   92   94 am   BACKBONE|DICT|INTERRES
   185   94   95 1    
   186   94  215 1    
   187   95   96 1    
   188   95   97 1    
   189   95  216 1    
   190   96  217 1    
   191   96  218 1    
   192   96  219 1    
   193   97   98 2    
   194   97   99 am   BACKBONE|DICT|INTERRES
   195   99  100 1    
   196   99  220 1    
   197  100  101 1    
   198  100  102 1    
   199  100  221 1    
   200  101  222 1    
   201  101  223 1    
   202  101  224 1    
   203  102  103 2    
   204  102  104 am   BACKBONE|DICT|INTERRES
   205  104  105 1    
   206  104  225 1    
   207  105  106 1    
   208  105  107 1    
   209  105  226 1    
   210  106  227 1    
   211  106  228 1    
   212  106  229 1    
   213  107  108 2    
   214  107  109 am   BACKBONE|DICT|INTERRES
   215  109  110 1    
   216  109  230 1    
   217  110  111 1    
   218  110  112 1    
   219  110  231 1    
   220  111  232 1    
   221  111  233 1    
   222  111  234 1    
   223  112  113 2    
   224  112  114 am   BACKBONE|DICT|INTERRES
   225  114  115 1    
   226  114  235 1    
   227  115  116 1    
   228  115  117 1    
   229  115  236 1    
   230  116  237 1    
   231  116  238 1    
   232  116  239 1    
   233  117  118 2    
   234  117  119 am   BACKBONE|DICT|INTERRES
   235  119  120 1    
   236  119  240 1    
   237  120  121 1    
   238  120  124 1    
   239  120  241 1    
   240  121  122 am   BACKBONE|DICT|INTERRES
   241  121  123 2    
   242  122  242 1    
   243  122  243 1    
   244  124  125 1    
   245  124  244 1    
   246  124  245 1    
   247  125  126 1    
   248  126  246 1    
   249  126  247 1    
@<TRIPOS>SUBSTRUCTURE
     1 UNK         1 GROUP             0       ****    0 ROOT    
