@<TRIPOS>MOLECULE
3R540
247   249    1
SMALL
USER_CHARGES


@<TRIPOS>ATOM
      1 CA          5.4483  -16.7032  -43.4980 C.3       0 UNK        -0.1800 
      2 C           4.1560  -15.9489  -43.7755 C.2       0 UNK         0.5000 
      3 O           3.4482  -15.5794  -42.8389 O.2       0 UNK        -0.5000 
      4 N           3.8425  -15.7302  -45.0572 N.am      1 UNK        -0.5000 
      5 CA          2.6595  -14.9972  -45.5075 C.3       1 UNK         0.1400 
      6 C6          2.2658  -15.3589  -46.9648 C.3       23 UNK        -0.0398 
      7 S7          3.5512  -15.0140  -48.2162 S.3       23 UNK        -0.2404 
      8 C8          4.1281  -16.6960  -48.6254 C.3       23 UNK        -0.0205 
      9 C9          3.1857  -17.5338  -49.4911 C.ar      23 UNK        -0.0193 
     10 C10         2.1732  -16.9696  -50.2799 C.ar      23 UNK        -0.1150 
     11 C11         1.3812  -17.7714  -51.1073 C.ar      23 UNK        -0.0193 
     12 C12         1.6184  -19.1480  -51.1591 C.ar      23 UNK        -0.1150 
     13 C13         2.6273  -19.7273  -50.3848 C.ar      23 UNK        -0.0193 
     14 C14         3.3952  -18.9153  -49.5461 C.ar      23 UNK        -0.1150 
     15 C15         2.9372  -21.2164  -50.4975 C.3       23 UNK        -0.0205 
     16 S16         1.4953  -22.2794  -50.1754 S.3       23 UNK        -0.2404 
     17 C17         1.0765  -21.8042  -48.4704 C.3       23 UNK        -0.0398 
     18 CA          0.3987  -22.9259  -47.6484 C.3       11 UNK         0.1400 
     19 N           0.3980  -22.5582  -46.2336 N.am      11 UNK        -0.5000 
     20 C           0.1764  -23.3653  -45.1910 C.2       10 UNK         0.5000 
     21 O          -0.0749  -24.5636  -45.3091 O.2       10 UNK        -0.5000 
     22 CA          0.1762  -22.7032  -43.7939 C.3       10 UNK         0.1400 
     23 CB          0.8111  -23.6007  -42.7132 C.3       10 UNK        -0.1800 
     24 N           0.7549  -21.3508  -43.7928 N.am      10 UNK        -0.5000 
     25 C           2.0308  -20.9961  -44.0178 C.2       9 UNK         0.5000 
     26 O           2.9582  -21.7973  -44.1293 O.2       9 UNK        -0.5000 
     27 CA          2.3147  -19.4931  -44.2207 C.3       9 UNK         0.1400 
     28 CB          2.6312  -19.2167  -45.7002 C.3       9 UNK        -0.1800 
     29 N           1.2013  -18.6335  -43.8112 N.am      9 UNK        -0.5000 
     30 C           0.9293  -18.2913  -42.5439 C.2       8 UNK         0.5000 
     31 O           1.6316  -18.6094  -41.5841 O.2       8 UNK        -0.5000 
     32 CA         -0.3734  -17.5040  -42.3049 C.3       8 UNK         0.1400 
     33 CB         -0.1191  -15.9892  -42.3123 C.3       8 UNK        -0.1800 
     34 N          -1.4103  -17.8336  -43.2872 N.am      8 UNK        -0.5000 
     35 C          -2.1280  -18.9669  -43.2630 C.2       7 UNK         0.5000 
     36 O          -1.9957  -19.8364  -42.4022 O.2       7 UNK        -0.5000 
     37 CA         -3.1308  -19.1982  -44.4098 C.3       7 UNK         0.1400 
     38 CB         -4.5031  -18.6091  -44.0571 C.3       7 UNK        -0.1800 
     39 N          -2.6845  -18.6593  -45.6954 N.am      7 UNK        -0.5000 
     40 C          -1.5935  -19.0744  -46.3528 C.2       6 UNK         0.5000 
     41 O          -0.9126  -20.0356  -45.9962 O.2       6 UNK        -0.5000 
     42 CA         -1.1701  -18.2866  -47.6053 C.3       6 UNK         0.1400 
     43 CB         -1.6946  -18.9938  -48.8596 C.3       6 UNK        -0.1800 
     44 N          -1.6064  -16.8887  -47.6206 N.am      6 UNK        -0.5000 
     45 C          -1.3412  -15.9778  -46.6779 C.2       5 UNK         0.5000 
     46 O          -0.6148  -16.1924  -45.7059 O.2       5 UNK        -0.5000 
     47 CA         -1.9797  -14.6007  -46.8827 C.3       5 UNK         0.1400 
     48 CB         -1.8600  -13.6903  -45.6469 C.3       5 UNK        -0.1800 
     49 N          -1.3640  -13.9746  -48.0469 N.am      5 UNK        -0.5000 
     50 C          -1.9427  -13.0476  -48.8162 C.2       4 UNK         0.5000 
     51 O          -3.0713  -12.5977  -48.6141 O.2       4 UNK        -0.5000 
     52 CA         -1.0771  -12.5091  -49.9643 C.3       4 UNK         0.1400 
     53 CB         -1.8163  -11.5098  -50.8724 C.3       4 UNK        -0.1800 
     54 N           0.0990  -11.8689  -49.3850 N.am      4 UNK        -0.5000 
     55 C           1.3477  -11.9383  -49.8522 C.2       3 UNK         0.5000 
     56 O           1.6624  -12.5733  -50.8587 O.2       3 UNK        -0.5000 
     57 CA          2.4390  -11.1794  -49.0669 C.3       3 UNK         0.1400 
     58 CB          2.4868   -9.6965  -49.4809 C.3       3 UNK        -0.1800 
     59 N           2.3733  -11.3246  -47.6043 N.am      3 UNK        -0.5000 
     60 C           1.4408  -10.8990  -46.7390 C.2       2 UNK         0.5000 
     61 O           0.4269  -10.2841  -47.0730 O.2       2 UNK        -0.5000 
     62 CA          1.6564  -11.3005  -45.2636 C.3       2 UNK         0.1400 
     63 CB          0.5376  -10.7935  -44.3355 C.3       2 UNK        -0.1800 
     64 N           1.7401  -12.7579  -45.1551 N.am      2 UNK        -0.5000 
     65 C           2.8520  -13.4760  -45.3447 C.2       1 UNK         0.5000 
     66 O           3.9688  -12.9701  -45.4834 O.2       1 UNK        -0.5000 
     67 C          -1.0317  -23.2398  -48.1411 C.2       11 UNK         0.5000 
     68 O          -1.2166  -24.1066  -48.9992 O.2       11 UNK        -0.5000 
     69 N          -2.0281  -22.5541  -47.5615 N.am      12 UNK        -0.5000 
     70 CA         -3.4470  -22.8226  -47.7910 C.3       12 UNK         0.1400 
     71 CB         -4.2803  -21.6202  -47.3344 C.3       12 UNK        -0.1800 
     72 C          -3.9045  -24.1064  -47.0793 C.2       12 UNK         0.5000 
     73 O          -4.6495  -24.8881  -47.6676 O.2       12 UNK        -0.5000 
     74 N          -3.4139  -24.3200  -45.8488 N.am      13 UNK        -0.5000 
     75 CA         -3.6886  -25.5041  -45.0285 C.3       13 UNK         0.1400 
     76 CB         -3.1810  -25.2645  -43.5982 C.3       13 UNK        -0.1800 
     77 C          -3.0794  -26.7889  -45.6203 C.2       13 UNK         0.5000 
     78 O          -3.7076  -27.8460  -45.5636 O.2       13 UNK        -0.5000 
     79 N          -1.8908  -26.6583  -46.2251 N.am      14 UNK        -0.5000 
     80 CA         -1.2130  -27.7005  -46.9988 C.3       14 UNK         0.1400 
     81 CB          0.2507  -27.2780  -47.2053 C.3       14 UNK        -0.1800 
     82 C          -1.8775  -27.9910  -48.3619 C.2       14 UNK         0.5000 
     83 O          -1.5087  -28.9722  -49.0080 O.2       14 UNK        -0.5000 
     84 N          -2.8153  -27.1273  -48.7839 N.am      15 UNK        -0.5000 
     85 CA         -3.5332  -27.1312  -50.0629 C.3       15 UNK         0.1400 
     86 CB         -4.4120  -28.3906  -50.2071 C.3       15 UNK        -0.1800 
     87 C          -2.6155  -26.8909  -51.2801 C.2       15 UNK         0.5000 
     88 O          -2.9584  -27.2858  -52.3953 O.2       15 UNK        -0.5000 
     89 N          -1.4747  -26.2276  -51.0497 N.am      16 UNK        -0.5000 
     90 CA         -0.5251  -25.8258  -52.0832 C.3       16 UNK         0.1400 
     91 CB          0.8752  -25.6962  -51.4666 C.3       16 UNK        -0.1800 
     92 C          -0.9813  -24.5228  -52.7593 C.2       16 UNK         0.5000 
     93 O          -0.9795  -24.4447  -53.9884 O.2       16 UNK        -0.5000 
     94 N          -1.4163  -23.5468  -51.9488 N.am      17 UNK        -0.5000 
     95 CA         -2.0875  -22.3351  -52.4267 C.3       17 UNK         0.1400 
     96 CB         -1.9642  -21.2226  -51.3770 C.3       17 UNK        -0.1800 
     97 C          -3.5719  -22.6013  -52.7266 C.2       17 UNK         0.5000 
     98 O          -4.1093  -22.0491  -53.6858 O.2       17 UNK        -0.5000 
     99 N          -4.1972  -23.4352  -51.8790 N.am      18 UNK        -0.5000 
    100 CA        -5.6032  -23.8623  -51.9060 C.3       18 UNK         0.1400 
    101 CB        -5.8919  -24.7005  -53.1679 C.3       18 UNK        -0.1800 
    102 C         -6.6311  -22.7240  -51.7019 C.2       18 UNK         0.5000 
    103 O         -7.8193  -22.9251  -51.9579 O.2       18 UNK        -0.5000 
    104 N         -6.1743  -21.5648  -51.2158 N.am      19 UNK        -0.5000 
    105 CA        -6.9759  -20.3923  -50.8933 C.3       19 UNK         0.1400 
    106 CB        -7.2144  -19.5488  -52.1560 C.3       19 UNK        -0.1800 
    107 C         -6.2100  -19.5956  -49.8339 C.2       19 UNK         0.5000 
    108 O         -4.9990  -19.4171  -49.9782 O.2       19 UNK        -0.5000 
    109 N         -6.9188  -19.1395  -48.7935 N.am      20 UNK        -0.5000 
    110 CA        -6.3591  -18.4866  -47.6046 C.3       20 UNK         0.1400 
    111 CB        -7.4896  -18.2337  -46.5956 C.3       20 UNK        -0.1800 
    112 C         -5.5958  -17.1809  -47.8842 C.2       20 UNK         0.5000 
    113 O         -4.6156  -16.8958  -47.1957 O.2       20 UNK        -0.5000 
    114 N         -6.0564  -16.4312  -48.8914 N.am      21 UNK        -0.5000 
    115 CA        -5.5149  -15.1365  -49.3051 C.3       21 UNK         0.1400 
    116 CB        -6.6823  -14.1416  -49.4324 C.3       21 UNK        -0.1800 
    117 C         -4.7036  -15.2344  -50.6133 C.2       21 UNK         0.5000 
    118 O         -4.5379  -14.2216  -51.2927 O.2       21 UNK        -0.5000 
    119 N         -4.2404  -16.4437  -50.9662 N.am      22 UNK        -0.5000 
    120 CA        -3.5076  -16.7671  -52.2086 C.3       22 UNK         0.1400 
    121 C         -4.3757  -16.7418  -53.5060 C.2       22 UNK         0.5000 
    122 N         -5.6879  -16.5553  -53.4346 N.am      22 UNK        -0.7600 
    123 O         -3.8557  -16.9294  -54.6025 O.2       22 UNK        -0.5000 
    124 C124       -2.1852  -15.9605  -52.3860 C.3       23 UNK        -0.0398 
    125 S125       -0.9767  -16.2737  -51.0565 S.3       23 UNK        -0.2404 
    126 C126        0.3150  -17.1484  -51.9979 C.3       23 UNK        -0.0205 
    127 H127        5.9461  -17.0076  -44.4191 H         1 UNK         0.0600 
    128 H128        6.1348  -16.0752  -42.9304 H         1 UNK         0.0600 
    129 H129        5.2401  -17.5990  -42.9129 H         1 UNK         0.0600 
    130 H130        4.4952  -15.9867  -45.7827 H         1 UNK         0.3000 
    131 H131        1.8267  -15.2940  -44.8691 H         1 UNK         0.0600 
    132 H132        1.3746  -14.8043  -47.2573 H         1 UNK         0.0800 
    133 H133        1.9747  -16.4079  -47.0212 H         1 UNK         0.0800 
    134 H134        4.3501  -17.2277  -47.6994 H         1 UNK         0.0800 
    135 H135        5.0753  -16.6037  -49.1582 H         1 UNK         0.0800 
    136 H136        2.0038  -15.9026  -50.2779 H         1 UNK         0.1150 
    137 H137        1.0343  -19.7713  -51.8209 H         1 UNK         0.1150 
    138 H138        4.1885  -19.3558  -48.9583 H         1 UNK         0.1150 
    139 H139        3.3022  -21.4208  -51.5047 H         1 UNK         0.0800 
    140 H140        3.7420  -21.5006  -49.8178 H         1 UNK         0.0800 
    141 H141        2.0060  -21.5159  -47.9768 H         1 UNK         0.0800 
    142 H142        0.4661  -20.9022  -48.4959 H         1 UNK         0.0800 
    143 H143        0.9899  -23.8380  -47.7525 H         1 UNK         0.0600 
    144 H144        0.4695  -21.5682  -46.0339 H         1 UNK         0.3000 
    145 H145       -0.8739  -22.5716  -43.5295 H         1 UNK         0.0600 
    146 H146        0.8076  -23.1090  -41.7404 H         1 UNK         0.0600 
    147 H147        0.2566  -24.5336  -42.6064 H         1 UNK         0.0600 
    148 H148        1.8409  -23.8644  -42.9543 H         1 UNK         0.0600 
    149 H149        0.0793  -20.6012  -43.7333 H         1 UNK         0.3000 
    150 H150        3.1968  -19.2408  -43.6286 H         1 UNK         0.0600 
    151 H151        3.4565  -19.8379  -46.0506 H         1 UNK         0.0600 
    152 H152        2.9281  -18.1818  -45.8492 H         1 UNK         0.0600 
    153 H153        1.7753  -19.4162  -46.3447 H         1 UNK         0.0600 
    154 H154        0.5701  -18.3235  -44.5363 H         1 UNK         0.3000 
    155 H155       -0.7395  -17.7725  -41.3115 H         1 UNK         0.0600 
    156 H156       -1.0238  -15.4367  -42.0584 H         1 UNK         0.0600 
    157 H157        0.2226  -15.6397  -43.2843 H         1 UNK         0.0600 
    158 H158        0.6448  -15.7183  -41.5822 H         1 UNK         0.0600 
    159 H159       -1.5197  -17.1906  -44.0624 H         1 UNK         0.3000 
    160 H160       -3.2432  -20.2783  -44.5166 H         1 UNK         0.0600 
    161 H161       -4.4866  -17.5185  -44.0557 H         1 UNK         0.0600 
    162 H162       -4.8312  -18.9364  -43.0696 H         1 UNK         0.0600 
    163 H163       -5.2592  -18.9354  -44.7687 H         1 UNK         0.0600 
    164 H164       -3.2235  -17.8942  -46.0888 H         1 UNK         0.3000 
    165 H165       -0.0789  -18.2978  -47.6347 H         1 UNK         0.0600 
    166 H166       -2.7228  -18.7119  -49.0787 H         1 UNK         0.0600 
    167 H167       -1.0860  -18.7573  -49.7293 H         1 UNK         0.0600 
    168 H168       -1.6725  -20.0759  -48.7508 H         1 UNK         0.0600 
    169 H169       -2.2021  -16.6215  -48.3905 H         1 UNK         0.3000 
    170 H170       -3.0400  -14.7643  -47.0765 H         1 UNK         0.0600 
    171 H171       -2.3278  -14.1524  -44.7766 H         1 UNK         0.0600 
    172 H172       -0.8215  -13.4946  -45.3939 H         1 UNK         0.0600 
    173 H173       -2.3526  -12.7315  -45.8091 H         1 UNK         0.0600 
    174 H174       -0.4481  -14.3136  -48.3039 H         1 UNK         0.3000 
    175 H175       -0.7784  -13.3653  -50.5712 H         1 UNK         0.0600 
    176 H176       -1.1819  -11.1847  -51.6970 H         1 UNK         0.0600 
    177 H177       -2.7073  -11.9649  -51.3071 H         1 UNK         0.0600 
    178 H178       -2.1317  -10.6227  -50.3220 H         1 UNK         0.0600 
    179 H179       -0.0556  -11.3188  -48.5424 H         1 UNK         0.3000 
    180 H180        3.3911  -11.6271  -49.3567 H         1 UNK         0.0600 
    181 H181        3.3063   -9.1754  -48.9861 H         1 UNK         0.0600 
    182 H182        2.6417   -9.5988  -50.5561 H         1 UNK         0.0600 
    183 H183        1.5612   -9.1739  -49.2383 H         1 UNK         0.0600 
    184 H184        3.1405  -11.8525  -47.2042 H         1 UNK         0.3000 
    185 H185        2.5934  -10.8483  -44.9315 H         1 UNK         0.0600 
    186 H186        0.4785   -9.7046  -44.3572 H         1 UNK         0.0600 
    187 H187       -0.4400  -11.1795  -44.6252 H         1 UNK         0.0600 
    188 H188        0.7207  -11.0868  -43.3017 H         1 UNK         0.0600 
    189 H189        0.8602  -13.2408  -45.0531 H         1 UNK         0.3000 
    190 H190       -1.7902  -21.8471  -46.8776 H         1 UNK         0.3000 
    191 H191       -3.6092  -22.9562  -48.8621 H         1 UNK         0.0600 
    192 H192       -5.3327  -21.7600  -47.5844 H         1 UNK         0.0600 
    193 H193       -3.9473  -20.7066  -47.8247 H         1 UNK         0.0600 
    194 H194       -4.2179  -21.4669  -46.2578 H         1 UNK         0.0600 
    195 H195       -2.7878  -23.6362  -45.4549 H         1 UNK         0.3000 
    196 H196       -4.7715  -25.6396  -44.9869 H         1 UNK         0.0600 
    197 H197       -3.4191  -26.1125  -42.9548 H         1 UNK         0.0600 
    198 H198       -3.6447  -24.3824  -43.1562 H         1 UNK         0.0600 
    199 H199       -2.1001  -25.1272  -43.5687 H         1 UNK         0.0600 
    200 H200       -1.3956  -25.7768  -46.1328 H         1 UNK         0.3000 
    201 H201       -1.2282  -28.6264  -46.4204 H         1 UNK         0.0600 
    202 H202        0.7550  -27.1228  -46.2514 H         1 UNK         0.0600 
    203 H203        0.3237  -26.3521  -47.7772 H         1 UNK         0.0600 
    204 H204        0.8094  -28.0430  -47.7461 H         1 UNK         0.0600 
    205 H205       -3.0588  -26.3656  -48.1643 H         1 UNK         0.3000 
    206 H206       -4.2049  -26.2733  -50.0275 H         1 UNK         0.0600 
    207 H207       -5.0470  -28.5295  -49.3320 H         1 UNK         0.0600 
    208 H208       -5.0693  -28.3114  -51.0737 H         1 UNK         0.0600 
    209 H209       -3.8128  -29.2924  -50.3346 H         1 UNK         0.0600 
    210 H210       -1.2977  -25.8790  -50.1148 H         1 UNK         0.3000 
    211 H211       -0.4787  -26.6004  -52.8518 H         1 UNK         0.0600 
    212 H212        0.8709  -25.0560  -50.5857 H         1 UNK         0.0600 
    213 H213        1.5852  -25.2767  -52.1804 H         1 UNK         0.0600 
    214 H214        1.2563  -26.6706  -51.1606 H         1 UNK         0.0600 
    215 H215       -1.3401  -23.6794  -50.9459 H         1 UNK         0.3000 
    216 H216       -1.6069  -21.9914  -53.3452 H         1 UNK         0.0600 
    217 H217       -2.4521  -20.3073  -51.7151 H         1 UNK         0.0600 
    218 H218       -0.9227  -20.9771  -51.1799 H         1 UNK         0.0600 
    219 H219       -2.4278  -21.5083  -50.4337 H         1 UNK         0.0600 
    220 H220       -3.6416  -23.8260  -51.1339 H         1 UNK         0.3000 
    221 H221       -5.7284  -24.5210  -51.0456 H         1 UNK         0.0600 
    222 H222       -5.8538  -24.0948  -54.0736 H         1 UNK         0.0600 
    223 H223       -5.1710  -25.5112  -53.2756 H         1 UNK         0.0600 
    224 H224       -6.8823  -25.1546  -53.1208 H         1 UNK         0.0600 
    225 H225       -5.1886  -21.4615  -51.0167 H         1 UNK         0.3000 
    226 H226       -7.9352  -20.7088  -50.4785 H         1 UNK         0.0600 
    227 H227       -7.7653  -18.6371  -51.9228 H         1 UNK         0.0600 
    228 H228       -6.2730  -19.2584  -52.6241 H         1 UNK         0.0600 
    229 H229       -7.7956  -20.1003  -52.8949 H         1 UNK         0.0600 
    230 H230       -7.9118  -19.3220  -48.7682 H         1 UNK         0.3000 
    231 H231       -5.6490  -19.1771  -47.1497 H         1 UNK         0.0600 
    232 H232       -7.1205  -17.7192  -45.7074 H         1 UNK         0.0600 
    233 H233       -7.9384  -19.1701  -46.2638 H         1 UNK         0.0600 
    234 H234       -8.2793  -17.6150  -47.0237 H         1 UNK         0.0600 
    235 H235       -6.8586  -16.7678  -49.4037 H         1 UNK         0.3000 
    236 H236       -4.8373  -14.7518  -48.5425 H         1 UNK         0.0600 
    237 H237       -7.3720  -14.4283  -50.2271 H         1 UNK         0.0600 
    238 H238       -7.2483  -14.0787  -48.5028 H         1 UNK         0.0600 
    239 H239       -6.3204  -13.1368  -49.6549 H         1 UNK         0.0600 
    240 H240       -4.4536  -17.2374  -50.3750 H         1 UNK         0.3000 
    241 H241       -3.2285  -17.8159  -52.1001 H         1 UNK         0.0600 
    242 H242       -6.2323  -16.5519  -54.2826 H         1 UNK         0.3800 
    243 H243       -6.1343  -16.3836  -52.5502 H         1 UNK         0.3800 
    244 H244       -2.3782  -14.8890  -52.4317 H         1 UNK         0.0800 
    245 H245       -1.7145  -16.2025  -53.3399 H         1 UNK         0.0800 
    246 H246        0.7918  -16.4493  -52.6864 H         1 UNK         0.0800 
    247 H247       -0.1570  -17.9174  -52.6117 H         1 UNK         0.0800 
@<TRIPOS>BOND
     1    1    2 1    
     2    1  127 1    
     3    1  128 1    
     4    1  129 1    
     5    2    3 2    
     6    2    4 am   BACKBONE|DICT|INTERRES
     7    4    5 1    
     8    4  130 1    
     9    5    6 1    
    10    5   65 1    
    11    5  131 1    
    12    6    7 1    
    13    6  132 1    
    14    6  133 1    
    15    7    8 1    
    16    8    9 1    
    17    8  134 1    
    18    8  135 1    
    19    9   10 ar   
    20    9   14 ar   
    21   10   11 ar   
    22   10  136 1    
    23   11   12 ar   
    24   11  126 1    
    25   12   13 ar   
    26   12  137 1    
    27   13   14 ar   
    28   13   15 1    
    29   14  138 1    
    30   15   16 1    
    31   15  139 1    
    32   15  140 1    
    33   16   17 1    
    34   17   18 1    
    35   17  141 1    
    36   17  142 1    
    37   18   19 1    
    38   18   67 1    
    39   18  143 1    
    40   19   20 am   BACKBONE|DICT|INTERRES
    41   19  144 1    
    42   20   21 2    
    43   20   22 1    
    44   22   23 1    
    45   22   24 1    
    46   22  145 1    
    47   23  146 1    
    48   23  147 1    
    49   23  148 1    
    50   24   25 am   BACKBONE|DICT|INTERRES
    51   24  149 1    
    52   25   26 2    
    53   25   27 1    
    54   27   28 1    
    55   27   29 1    
    56   27  150 1    
    57   28  151 1    
    58   28  152 1    
    59   28  153 1    
    60   29   30 am   BACKBONE|DICT|INTERRES
    61   29  154 1    
    62   30   31 2    
    63   30   32 1    
    64   32   33 1    
    65   32   34 1    
    66   32  155 1    
    67   33  156 1    
    68   33  157 1    
    69   33  158 1    
    70   34   35 am   BACKBONE|DICT|INTERRES
    71   34  159 1    
    72   35   36 2    
    73   35   37 1    
    74   37   38 1    
    75   37   39 1    
    76   37  160 1    
    77   38  161 1    
    78   38  162 1    
    79   38  163 1    
    80   39   40 am   BACKBONE|DICT|INTERRES
    81   39  164 1    
    82   40   41 2    
    83   40   42 1    
    84   42   43 1    
    85   42   44 1    
    86   42  165 1    
    87   43  166 1    
    88   43  167 1    
    89   43  168 1    
    90   44   45 am   BACKBONE|DICT|INTERRES
    91   44  169 1    
    92   45   46 2    
    93   45   47 1    
    94   47   48 1    
    95   47   49 1    
    96   47  170 1    
    97   48  171 1    
    98   48  172 1    
    99   48  173 1    
   100   49   50 am   BACKBONE|DICT|INTERRES
   101   49  174 1    
   102   50   51 2    
   103   50   52 1    
   104   52   53 1    
   105   52   54 1    
   106   52  175 1    
   107   53  176 1    
   108   53  177 1    
   109   53  178 1    
   110   54   55 am   BACKBONE|DICT|INTERRES
   111   54  179 1    
   112   55   56 2    
   113   55   57 1    
   114   57   58 1    
   115   57   59 1    
   116   57  180 1    
   117   58  181 1    
   118   58  182 1    
   119   58  183 1    
   120   59   60 am   BACKBONE|DICT|INTERRES
   121   59  184 1    
   122   60   61 2    
   123   60   62 1    
   124   62   63 1    
   125   62   64 1    
   126   62  185 1    
   127   63  186 1    
   128   63  187 1    
   129   63  188 1    
   130   64   65 am   BACKBONE|DICT|INTERRES
   131   64  189 1    
   132   65   66 2    
   133   67   68 2    
   134   67   69 am   BACKBONE|DICT|INTERRES
   135   69   70 1    
   136   69  190 1    
   137   70   71 1    
   138   70   72 1    
   139   70  191 1    
   140   71  192 1    
   141   71  193 1    
   142   71  194 1    
   143   72   73 2    
   144   72   74 am   BACKBONE|DICT|INTERRES
   145   74   75 1    
   146   74  195 1    
   147   75   76 1    
   148   75   77 1    
   149   75  196 1    
   150   76  197 1    
   151   76  198 1    
   152   76  199 1    
   153   77   78 2    
   154   77   79 am   BACKBONE|DICT|INTERRES
   155   79   80 1    
   156   79  200 1    
   157   80   81 1    
   158   80   82 1    
   159   80  201 1    
   160   81  202 1    
   161   81  203 1    
   162   81  204 1    
   163   82   83 2    
   164   82   84 am   BACKBONE|DICT|INTERRES
   165   84   85 1    
   166   84  205 1    
   167   85   86 1    
   168   85   87 1    
   169   85  206 1    
   170   86  207 1    
   171   86  208 1    
   172   86  209 1    
   173   87   88 2    
   174   87   89 am   BACKBONE|DICT|INTERRES
   175   89   90 1    
   176   89  210 1    
   177   90   91 1    
   178   90   92 1    
   179   90  211 1    
   180   91  212 1    
   181   91  213 1    
   182   91  214 1    
   183   92   93 2    
   184   92   94 am   BACKBONE|DICT|INTERRES
   185   94   95 1    
   186   94  215 1    
   187   95   96 1    
   188   95   97 1    
   189   95  216 1    
   190   96  217 1    
   191   96  218 1    
   192   96  219 1    
   193   97   98 2    
   194   97   99 am   BACKBONE|DICT|INTERRES
   195   99  100 1    
   196   99  220 1    
   197  100  101 1    
   198  100  102 1    
   199  100  221 1    
   200  101  222 1    
   201  101  223 1    
   202  101  224 1    
   203  102  103 2    
   204  102  104 am   BACKBONE|DICT|INTERRES
   205  104  105 1    
   206  104  225 1    
   207  105  106 1    
   208  105  107 1    
   209  105  226 1    
   210  106  227 1    
   211  106  228 1    
   212  106  229 1    
   213  107  108 2    
   214  107  109 am   BACKBONE|DICT|INTERRES
   215  109  110 1    
   216  109  230 1    
   217  110  111 1    
   218  110  112 1    
   219  110  231 1    
   220  111  232 1    
   221  111  233 1    
   222  111  234 1    
   223  112  113 2    
   224  112  114 am   BACKBONE|DICT|INTERRES
   225  114  115 1    
   226  114  235 1    
   227  115  116 1    
   228  115  117 1    
   229  115  236 1    
   230  116  237 1    
   231  116  238 1    
   232  116  239 1    
   233  117  118 2    
   234  117  119 am   BACKBONE|DICT|INTERRES
   235  119  120 1    
   236  119  240 1    
   237  120  121 1    
   238  120  124 1    
   239  120  241 1    
   240  121  122 am   BACKBONE|DICT|INTERRES
   241  121  123 2    
   242  122  242 1    
   243  122  243 1    
   244  124  125 1    
   245  124  244 1    
   246  124  245 1    
   247  125  126 1    
   248  126  246 1    
   249  126  247 1    
@<TRIPOS>SUBSTRUCTURE
     1 UNK         1 GROUP             0       ****    0 ROOT    
