@<TRIPOS>MOLECULE
3R540
247   249    1
SMALL
USER_CHARGES


@<TRIPOS>ATOM
      1 CA          6.8460  -11.2615  -47.6974 C.3       0 UNK        -0.1800 
      2 C           5.7870  -12.3259  -47.9493 C.2       0 UNK         0.5000 
      3 O           5.6060  -13.2179  -47.1196 O.2       0 UNK        -0.5000 
      4 N           5.0963  -12.2371  -49.0940 N.am      1 UNK        -0.5000 
      5 CA          4.0529  -13.1621  -49.5479 C.3       1 UNK         0.1400 
      6 C6          3.6369  -12.8550  -51.0109 C.3       23 UNK        -0.0398 
      7 S7          2.8741  -14.2907  -51.8357 S.3       23 UNK        -0.2404 
      8 C8          1.1274  -13.7820  -51.8994 C.3       23 UNK        -0.0205 
      9 C9          0.2230  -14.9910  -52.0681 C.ar      23 UNK        -0.0193 
     10 C10        -0.3790  -15.2845  -53.2946 C.ar      23 UNK        -0.1150 
     11 C11        -1.1981  -16.4111  -53.4426 C.ar      23 UNK        -0.0193 
     12 C12        -1.4027  -17.2507  -52.3354 C.ar      23 UNK        -0.1150 
     13 C13        -0.7957  -16.9698  -51.1074 C.ar      23 UNK        -0.0193 
     14 C14         0.0008  -15.8318  -50.9795 C.ar      23 UNK        -0.1150 
     15 C15        -0.9676  -17.8914  -49.9115 C.3       23 UNK        -0.0205 
     16 S16         0.5905  -18.7674  -49.5628 S.3       23 UNK        -0.2404 
     17 C17         0.4602  -19.0698  -47.7704 C.3       23 UNK        -0.0398 
     18 CA          0.3292  -20.5691  -47.4206 C.3       11 UNK         0.1400 
     19 N           0.6798  -20.8322  -46.0257 N.am      11 UNK        -0.5000 
     20 C           0.8248  -22.0476  -45.4815 C.2       10 UNK         0.5000 
     21 O           0.7171  -23.0995  -46.1119 O.2       10 UNK        -0.5000 
     22 CA          1.0839  -22.0928  -43.9647 C.3       10 UNK         0.1400 
     23 CB          2.5578  -21.7981  -43.6499 C.3       10 UNK        -0.1800 
     24 N           0.2256  -21.1658  -43.2244 N.am      10 UNK        -0.5000 
     25 C          -1.1119  -21.2551  -43.1756 C.2       9 UNK         0.5000 
     26 O          -1.7582  -22.1541  -43.7147 O.2       9 UNK        -0.5000 
     27 CA         -1.8563  -20.1281  -42.4391 C.3       9 UNK         0.1400 
     28 CB         -1.7913  -20.3372  -40.9189 C.3       9 UNK        -0.1800 
     29 N          -1.3465  -18.7986  -42.7776 N.am      9 UNK        -0.5000 
     30 C          -1.3961  -18.2529  -44.0012 C.2       8 UNK         0.5000 
     31 O          -1.9081  -18.8023  -44.9752 O.2       8 UNK        -0.5000 
     32 CA         -0.7053  -16.8910  -44.1896 C.3       8 UNK         0.1400 
     33 CB         -1.5851  -15.7439  -43.6746 C.3       8 UNK        -0.1800 
     34 N           0.6107  -16.8317  -43.5549 N.am      8 UNK        -0.5000 
     35 C           1.6416  -17.6229  -43.8845 C.2       7 UNK         0.5000 
     36 O           1.6022  -18.4601  -44.7832 O.2       7 UNK        -0.5000 
     37 CA          2.9204  -17.4829  -43.0492 C.3       7 UNK         0.1400 
     38 CB          3.7559  -16.3000  -43.5519 C.3       7 UNK        -0.1800 
     39 N           2.6171  -17.3190  -41.6290 N.am      7 UNK        -0.5000 
     40 C           2.1341  -18.2993  -40.8521 C.2       6 UNK         0.5000 
     41 O           1.9248  -19.4474  -41.2470 O.2       6 UNK        -0.5000 
     42 CA          1.7845  -17.9161  -39.4031 C.3       6 UNK         0.1400 
     43 CB          3.0484  -17.8624  -38.5317 C.3       6 UNK        -0.1800 
     44 N           1.0764  -16.6377  -39.3149 N.am      6 UNK        -0.5000 
     45 C          -0.1435  -16.4157  -39.8230 C.2       5 UNK         0.5000 
     46 O          -0.8046  -17.2698  -40.4114 O.2       5 UNK        -0.5000 
     47 CA         -0.7144  -14.9948  -39.6783 C.3       5 UNK         0.1400 
     48 CB         -1.4739  -14.8565  -38.3504 C.3       5 UNK        -0.1800 
     49 N           0.2814  -13.9246  -39.7784 N.am      5 UNK        -0.5000 
     50 C           1.0735  -13.6922  -40.8340 C.2       4 UNK         0.5000 
     51 O           1.1463  -14.4406  -41.8126 O.2       4 UNK        -0.5000 
     52 CA          1.8999  -12.3933  -40.7572 C.3       4 UNK         0.1400 
     53 CB          3.1019  -12.5375  -39.8008 C.3       4 UNK        -0.1800 
     54 N           2.2847  -11.8871  -42.0807 N.am      4 UNK        -0.5000 
     55 C           3.2493  -12.3284  -42.8987 C.2       3 UNK         0.5000 
     56 O           4.0934  -13.1750  -42.6015 O.2       3 UNK        -0.5000 
     57 CA          3.2786  -11.6991  -44.3029 C.3       3 UNK         0.1400 
     58 CB          4.6189  -11.0007  -44.5756 C.3       3 UNK        -0.1800 
     59 N           3.0401  -12.7143  -45.3270 N.am      3 UNK        -0.5000 
     60 C           1.8420  -13.2615  -45.5800 C.2       2 UNK         0.5000 
     61 O           0.8065  -12.9061  -45.0147 O.2       2 UNK        -0.5000 
     62 CA          1.7991  -14.3839  -46.6434 C.3       2 UNK         0.1400 
     63 CB          0.3846  -14.6462  -47.2042 C.3       2 UNK        -0.1800 
     64 N           2.7680  -14.2002  -47.7321 N.am      2 UNK        -0.5000 
     65 C           2.8515  -13.1587  -48.5757 C.2       1 UNK         0.5000 
     66 O           2.0689  -12.2064  -48.5832 O.2       1 UNK        -0.5000 
     67 C          -1.0642  -21.1229  -47.7726 C.2       11 UNK         0.5000 
     68 O          -1.1971  -21.8034  -48.7868 O.2       11 UNK        -0.5000 
     69 N          -2.0638  -20.8723  -46.9140 N.am      12 UNK        -0.5000 
     70 CA         -3.4243  -21.3919  -47.0561 C.3       12 UNK         0.1400 
     71 CB         -4.3295  -20.8039  -45.9645 C.3       12 UNK        -0.1800 
     72 C          -3.4819  -22.9285  -47.0413 C.2       12 UNK         0.5000 
     73 O          -4.1915  -23.5080  -47.8636 O.2       12 UNK        -0.5000 
     74 N          -2.7118  -23.5575  -46.1424 N.am      13 UNK        -0.5000 
     75 CA         -2.5573  -25.0096  -46.0572 C.3       13 UNK         0.1400 
     76 CB         -1.7724  -25.3759  -44.7888 C.3       13 UNK        -0.1800 
     77 C          -1.8951  -25.6059  -47.3128 C.2       13 UNK         0.5000 
     78 O          -2.4132  -26.5777  -47.8647 O.2       13 UNK        -0.5000 
     79 N          -0.7965  -24.9874  -47.7715 N.am      14 UNK        -0.5000 
     80 CA         -0.0827  -25.3527  -49.0000 C.3       14 UNK         0.1400 
     81 CB          1.2094  -24.5290  -49.1057 C.3       14 UNK        -0.1800 
     82 C          -0.9418  -25.1841  -50.2687 C.2       14 UNK         0.5000 
     83 O          -0.8581  -26.0086  -51.1789 O.2       14 UNK        -0.5000 
     84 N          -1.7885  -24.1483  -50.2765 N.am      15 UNK        -0.5000 
     85 CA         -2.7770  -23.8466  -51.3093 C.3       15 UNK         0.1400 
     86 CB         -3.0558  -22.3344  -51.2932 C.3       15 UNK        -0.1800 
     87 C          -4.0824  -24.6605  -51.1790 C.2       15 UNK         0.5000 
     88 O          -5.0600  -24.3098  -51.8374 O.2       15 UNK        -0.5000 
     89 N          -4.0954  -25.7151  -50.3483 N.am      16 UNK        -0.5000 
     90 CA         -5.1890  -26.6735  -50.1530 C.3       16 UNK         0.1400 
     91 CB         -5.3911  -27.5252  -51.4240 C.3       16 UNK        -0.1800 
     92 C          -6.4881  -26.0033  -49.6615 C.2       16 UNK         0.5000 
     93 O          -7.5388  -26.1402  -50.2907 O.2       16 UNK        -0.5000 
     94 N          -6.3657  -25.2755  -48.5438 N.am      17 UNK        -0.5000 
     95 CA         -7.3842  -24.4342  -47.9086 C.3       17 UNK         0.1400 
     96 CB         -8.6438  -25.2370  -47.5171 C.3       17 UNK        -0.1800 
     97 C          -7.6794  -23.1723  -48.7430 C.2       17 UNK         0.5000 
     98 O          -8.8406  -22.8050  -48.9307 O.2       17 UNK        -0.5000 
     99 N          -6.5961  -22.5272  -49.2007 N.am      18 UNK        -0.5000 
    100 CA        -6.5546  -21.2567  -49.9299 C.3       18 UNK         0.1400 
    101 CB        -6.9575  -20.0931  -48.9996 C.3       18 UNK        -0.1800 
    102 C         -7.3445  -21.2744  -51.2551 C.2       18 UNK         0.5000 
    103 O         -8.1491  -20.3742  -51.5074 O.2       18 UNK        -0.5000 
    104 N         -7.0962  -22.2928  -52.0901 N.am      19 UNK        -0.5000 
    105 CA        -7.6133  -22.3679  -53.4564 C.3       19 UNK         0.1400 
    106 CB        -7.3914  -23.7842  -54.0097 C.3       19 UNK        -0.1800 
    107 C         -6.9343  -21.3248  -54.3644 C.2       19 UNK         0.5000 
    108 O         -5.7730  -20.9723  -54.1397 O.2       19 UNK        -0.5000 
    109 N         -7.6584  -20.8834  -55.4015 N.am      20 UNK        -0.5000 
    110 CA        -7.2514  -19.8346  -56.3466 C.3       20 UNK         0.1400 
    111 CB        -8.4355  -19.5227  -57.2754 C.3       20 UNK        -0.1800 
    112 C         -5.9867  -20.1494  -57.1736 C.2       20 UNK         0.5000 
    113 O         -5.3861  -19.2302  -57.7313 O.2       20 UNK        -0.5000 
    114 N         -5.5994  -21.4305  -57.2335 N.am      21 UNK        -0.5000 
    115 CA        -4.3511  -21.9005  -57.8332 C.3       21 UNK         0.1400 
    116 CB        -4.4286  -23.4262  -58.0000 C.3       21 UNK        -0.1800 
    117 C         -3.0974  -21.5120  -57.0209 C.2       21 UNK         0.5000 
    118 O         -2.0103  -21.4582  -57.5971 O.2       21 UNK        -0.5000 
    119 N         -3.2627  -21.2609  -55.7125 N.am      22 UNK        -0.5000 
    120 CA        -2.2084  -20.8669  -54.7579 C.3       22 UNK         0.1400 
    121 C         -1.1166  -21.9527  -54.4991 C.2       22 UNK         0.5000 
    122 N         -1.3509  -23.2176  -54.8279 N.am      22 UNK        -0.7600 
    123 O         -0.0518  -21.6575  -53.9644 O.2       22 UNK        -0.5000 
    124 C124       -1.6064  -19.4657  -55.0640 C.3       23 UNK        -0.0398 
    125 S125       -2.8689  -18.1481  -54.9956 S.3       23 UNK        -0.2404 
    126 C126       -1.8264  -16.6579  -54.8186 C.3       23 UNK        -0.0205 
    127 H127        6.8217  -10.4778  -48.4549 H         1 UNK         0.0600 
    128 H128        7.8377  -11.7136  -47.7072 H         1 UNK         0.0600 
    129 H129        6.6958  -10.7960  -46.7242 H         1 UNK         0.0600 
    130 H130        5.2821  -11.4592  -49.7108 H         1 UNK         0.3000 
    131 H131        4.5024  -14.1577  -49.5336 H         1 UNK         0.0600 
    132 H132        2.9877  -11.9798  -51.0752 H         1 UNK         0.0800 
    133 H133        4.5212  -12.6051  -51.5988 H         1 UNK         0.0800 
    134 H134        0.8552  -13.2618  -50.9796 H         1 UNK         0.0800 
    135 H135        0.9851  -13.0702  -52.7140 H         1 UNK         0.0800 
    136 H136       -0.2066  -14.6338  -54.1408 H         1 UNK         0.1150 
    137 H137       -2.0232  -18.1304  -52.4168 H         1 UNK         0.1150 
    138 H138        0.4815  -15.6160  -50.0369 H         1 UNK         0.1150 
    139 H139       -1.2708  -17.2918  -49.0523 H         1 UNK         0.0800 
    140 H140       -1.7615  -18.6203  -50.0825 H         1 UNK         0.0800 
    141 H141       -0.3465  -18.4856  -47.3253 H         1 UNK         0.0800 
    142 H142        1.3808  -18.6748  -47.3406 H         1 UNK         0.0800 
    143 H143        1.0561  -21.1174  -48.0239 H         1 UNK         0.0600 
    144 H144        0.8363  -20.0144  -45.4410 H         1 UNK         0.3000 
    145 H145        0.8587  -23.1042  -43.6200 H         1 UNK         0.0600 
    146 H146        2.7606  -21.9018  -42.5838 H         1 UNK         0.0600 
    147 H147        3.2155  -22.4914  -44.1757 H         1 UNK         0.0600 
    148 H148        2.8405  -20.7878  -43.9460 H         1 UNK         0.0600 
    149 H149        0.6872  -20.4093  -42.7323 H         1 UNK         0.3000 
    150 H150       -2.9043  -20.1699  -42.7426 H         1 UNK         0.0600 
    151 H151       -2.1623  -21.3250  -40.6428 H         1 UNK         0.0600 
    152 H152       -2.4027  -19.6023  -40.3949 H         1 UNK         0.0600 
    153 H153       -0.7708  -20.2505  -40.5436 H         1 UNK         0.0600 
    154 H154       -0.9479  -18.2597  -42.0127 H         1 UNK         0.3000 
    155 H155       -0.5566  -16.7512  -45.2612 H         1 UNK         0.0600 
    156 H156       -1.7982  -15.8473  -42.6113 H         1 UNK         0.0600 
    157 H157       -1.1043  -14.7773  -43.8281 H         1 UNK         0.0600 
    158 H158       -2.5406  -15.7211  -44.1998 H         1 UNK         0.0600 
    159 H159        0.7400  -16.1372  -42.8252 H         1 UNK         0.3000 
    160 H160        3.5107  -18.3935  -43.1714 H         1 UNK         0.0600 
    161 H161        3.1765  -15.3777  -43.5432 H         1 UNK         0.0600 
    162 H162        4.0886  -16.4654  -44.5772 H         1 UNK         0.0600 
    163 H163        4.6447  -16.1472  -42.9396 H         1 UNK         0.0600 
    164 H164        2.6986  -16.3862  -41.2499 H         1 UNK         0.3000 
    165 H165        1.1285  -18.6929  -39.0043 H         1 UNK         0.0600 
    166 H166        2.7990  -17.6757  -37.4871 H         1 UNK         0.0600 
    167 H167        3.5895  -18.8088  -38.5714 H         1 UNK         0.0600 
    168 H168        3.7328  -17.0787  -38.8589 H         1 UNK         0.0600 
    169 H169        1.5524  -15.8770  -38.8532 H         1 UNK         0.3000 
    170 H170       -1.4289  -14.8474  -40.4898 H         1 UNK         0.0600 
    171 H171       -0.8064  -14.9497  -37.4928 H         1 UNK         0.0600 
    172 H172       -1.9777  -13.8922  -38.2816 H         1 UNK         0.0600 
    173 H173       -2.2395  -15.6279  -38.2558 H         1 UNK         0.0600 
    174 H174        0.2970  -13.2673  -39.0119 H         1 UNK         0.3000 
    175 H175        1.2451  -11.6247  -40.3435 H         1 UNK         0.0600 
    176 H176        3.7217  -11.6408  -39.8048 H         1 UNK         0.0600 
    177 H177        3.7344  -13.3866  -40.0609 H         1 UNK         0.0600 
    178 H178        2.7659  -12.6933  -38.7753 H         1 UNK         0.0600 
    179 H179        1.6400  -11.2098  -42.4636 H         1 UNK         0.3000 
    180 H180        2.4932  -10.9433  -44.3737 H         1 UNK         0.0600 
    181 H181        5.4482  -11.7092  -44.5893 H         1 UNK         0.0600 
    182 H182        4.8347  -10.2559  -43.8086 H         1 UNK         0.0600 
    183 H183        4.5994  -10.4830  -45.5343 H         1 UNK         0.0600 
    184 H184        3.8534  -13.0549  -45.8265 H         1 UNK         0.3000 
    185 H185        2.1034  -15.2876  -46.1138 H         1 UNK         0.0600 
    186 H186       -0.3535  -14.7357  -46.4078 H         1 UNK         0.0600 
    187 H187        0.0492  -13.8448  -47.8623 H         1 UNK         0.0600 
    188 H188        0.3584  -15.5800  -47.7642 H         1 UNK         0.0600 
    189 H189        3.4975  -14.8983  -47.7793 H         1 UNK         0.3000 
    190 H190       -1.8923  -20.2681  -46.1133 H         1 UNK         0.3000 
    191 H191       -3.8037  -21.0580  -48.0236 H         1 UNK         0.0600 
    192 H192       -4.3820  -19.7178  -46.0406 H         1 UNK         0.0600 
    193 H193       -5.3474  -21.1862  -46.0512 H         1 UNK         0.0600 
    194 H194       -3.9696  -21.0516  -44.9658 H         1 UNK         0.0600 
    195 H195       -2.1932  -23.0028  -45.4680 H         1 UNK         0.3000 
    196 H196       -3.5554  -25.4444  -45.9717 H         1 UNK         0.0600 
    197 H197       -1.6619  -26.4570  -44.6961 H         1 UNK         0.0600 
    198 H198       -2.2854  -25.0230  -43.8940 H         1 UNK         0.0600 
    199 H199       -0.7724  -24.9420  -44.7911 H         1 UNK         0.0600 
    200 H200       -0.4158  -24.2075  -47.2420 H         1 UNK         0.3000 
    201 H201        0.1906  -26.4070  -48.9236 H         1 UNK         0.0600 
    202 H202        1.8575  -24.7003  -48.2460 H         1 UNK         0.0600 
    203 H203        1.0014  -23.4599  -49.1590 H         1 UNK         0.0600 
    204 H204        1.7739  -24.7993  -49.9988 H         1 UNK         0.0600 
    205 H205       -1.7294  -23.4773  -49.5147 H         1 UNK         0.3000 
    206 H206       -2.3509  -24.0972  -52.2820 H         1 UNK         0.0600 
    207 H207       -2.1456  -21.7666  -51.4871 H         1 UNK         0.0600 
    208 H208       -3.7854  -22.0492  -52.0522 H         1 UNK         0.0600 
    209 H209       -3.4402  -22.0177  -50.3250 H         1 UNK         0.0600 
    210 H210       -3.2656  -25.8907  -49.7955 H         1 UNK         0.3000 
    211 H211       -4.8686  -27.3463  -49.3561 H         1 UNK         0.0600 
    212 H212       -5.7365  -26.9243  -52.2661 H         1 UNK         0.0600 
    213 H213       -6.1323  -28.3072  -51.2552 H         1 UNK         0.0600 
    214 H214       -4.4639  -28.0155  -51.7206 H         1 UNK         0.0600 
    215 H215       -5.4301  -25.1494  -48.1732 H         1 UNK         0.3000 
    216 H216       -6.9347  -24.0775  -46.9806 H         1 UNK         0.0600 
    217 H217       -9.3087  -24.6335  -46.8983 H         1 UNK         0.0600 
    218 H218       -8.3830  -26.1253  -46.9421 H         1 UNK         0.0600 
    219 H219       -9.2164  -25.5552  -48.3883 H         1 UNK         0.0600 
    220 H220       -5.6945  -22.9357  -48.9737 H         1 UNK         0.3000 
    221 H221       -5.5150  -21.0930  -50.2090 H         1 UNK         0.0600 
    222 H222       -8.0004  -20.1647  -48.6892 H         1 UNK         0.0600 
    223 H223       -6.3415  -20.0734  -48.1014 H         1 UNK         0.0600 
    224 H224       -6.8296  -19.1316  -49.4982 H         1 UNK         0.0600 
    225 H225       -6.4014  -22.9930  -51.8408 H         1 UNK         0.3000 
    226 H226       -8.6869  -22.1702  -53.4275 H         1 UNK         0.0600 
    227 H227       -7.8025  -24.5400  -53.3397 H         1 UNK         0.0600 
    228 H228       -7.8782  -23.9068  -54.9777 H         1 UNK         0.0600 
    229 H229       -6.3316  -24.0018  -54.1480 H         1 UNK         0.0600 
    230 H230       -8.5925  -21.2469  -55.5262 H         1 UNK         0.3000 
    231 H231       -7.0308  -18.9385  -55.7629 H         1 UNK         0.0600 
    232 H232       -8.7224  -20.3936  -57.8660 H         1 UNK         0.0600 
    233 H233       -8.1872  -18.7210  -57.9723 H         1 UNK         0.0600 
    234 H234       -9.3080  -19.1973  -56.7085 H         1 UNK         0.0600 
    235 H235       -6.1623  -22.1181  -56.7560 H         1 UNK         0.3000 
    236 H236       -4.2549  -21.4513  -58.8238 H         1 UNK         0.0600 
    237 H237       -5.2665  -23.7113  -58.6365 H         1 UNK         0.0600 
    238 H238       -3.5220  -23.8153  -58.4655 H         1 UNK         0.0600 
    239 H239       -4.5482  -23.9310  -57.0405 H         1 UNK         0.0600 
    240 H240       -4.1994  -21.2915  -55.3219 H         1 UNK         0.3000 
    241 H241       -2.7203  -20.7793  -53.8001 H         1 UNK         0.0600 
    242 H242       -2.2150  -23.4800  -55.2726 H         1 UNK         0.3800 
    243 H243       -0.6411  -23.9119  -54.6564 H         1 UNK         0.3800 
    244 H244       -1.1287  -19.4513  -56.0441 H         1 UNK         0.0800 
    245 H245       -0.8246  -19.2198  -54.3442 H         1 UNK         0.0800 
    246 H246       -1.0367  -16.6950  -55.5706 H         1 UNK         0.0800 
    247 H247       -2.4439  -15.7938  -55.0675 H         1 UNK         0.0800 
@<TRIPOS>BOND
     1    1    2 1    
     2    1  127 1    
     3    1  128 1    
     4    1  129 1    
     5    2    3 2    
     6    2    4 am   BACKBONE|DICT|INTERRES
     7    4    5 1    
     8    4  130 1    
     9    5    6 1    
    10    5   65 1    
    11    5  131 1    
    12    6    7 1    
    13    6  132 1    
    14    6  133 1    
    15    7    8 1    
    16    8    9 1    
    17    8  134 1    
    18    8  135 1    
    19    9   10 ar   
    20    9   14 ar   
    21   10   11 ar   
    22   10  136 1    
    23   11   12 ar   
    24   11  126 1    
    25   12   13 ar   
    26   12  137 1    
    27   13   14 ar   
    28   13   15 1    
    29   14  138 1    
    30   15   16 1    
    31   15  139 1    
    32   15  140 1    
    33   16   17 1    
    34   17   18 1    
    35   17  141 1    
    36   17  142 1    
    37   18   19 1    
    38   18   67 1    
    39   18  143 1    
    40   19   20 am   BACKBONE|DICT|INTERRES
    41   19  144 1    
    42   20   21 2    
    43   20   22 1    
    44   22   23 1    
    45   22   24 1    
    46   22  145 1    
    47   23  146 1    
    48   23  147 1    
    49   23  148 1    
    50   24   25 am   BACKBONE|DICT|INTERRES
    51   24  149 1    
    52   25   26 2    
    53   25   27 1    
    54   27   28 1    
    55   27   29 1    
    56   27  150 1    
    57   28  151 1    
    58   28  152 1    
    59   28  153 1    
    60   29   30 am   BACKBONE|DICT|INTERRES
    61   29  154 1    
    62   30   31 2    
    63   30   32 1    
    64   32   33 1    
    65   32   34 1    
    66   32  155 1    
    67   33  156 1    
    68   33  157 1    
    69   33  158 1    
    70   34   35 am   BACKBONE|DICT|INTERRES
    71   34  159 1    
    72   35   36 2    
    73   35   37 1    
    74   37   38 1    
    75   37   39 1    
    76   37  160 1    
    77   38  161 1    
    78   38  162 1    
    79   38  163 1    
    80   39   40 am   BACKBONE|DICT|INTERRES
    81   39  164 1    
    82   40   41 2    
    83   40   42 1    
    84   42   43 1    
    85   42   44 1    
    86   42  165 1    
    87   43  166 1    
    88   43  167 1    
    89   43  168 1    
    90   44   45 am   BACKBONE|DICT|INTERRES
    91   44  169 1    
    92   45   46 2    
    93   45   47 1    
    94   47   48 1    
    95   47   49 1    
    96   47  170 1    
    97   48  171 1    
    98   48  172 1    
    99   48  173 1    
   100   49   50 am   BACKBONE|DICT|INTERRES
   101   49  174 1    
   102   50   51 2    
   103   50   52 1    
   104   52   53 1    
   105   52   54 1    
   106   52  175 1    
   107   53  176 1    
   108   53  177 1    
   109   53  178 1    
   110   54   55 am   BACKBONE|DICT|INTERRES
   111   54  179 1    
   112   55   56 2    
   113   55   57 1    
   114   57   58 1    
   115   57   59 1    
   116   57  180 1    
   117   58  181 1    
   118   58  182 1    
   119   58  183 1    
   120   59   60 am   BACKBONE|DICT|INTERRES
   121   59  184 1    
   122   60   61 2    
   123   60   62 1    
   124   62   63 1    
   125   62   64 1    
   126   62  185 1    
   127   63  186 1    
   128   63  187 1    
   129   63  188 1    
   130   64   65 am   BACKBONE|DICT|INTERRES
   131   64  189 1    
   132   65   66 2    
   133   67   68 2    
   134   67   69 am   BACKBONE|DICT|INTERRES
   135   69   70 1    
   136   69  190 1    
   137   70   71 1    
   138   70   72 1    
   139   70  191 1    
   140   71  192 1    
   141   71  193 1    
   142   71  194 1    
   143   72   73 2    
   144   72   74 am   BACKBONE|DICT|INTERRES
   145   74   75 1    
   146   74  195 1    
   147   75   76 1    
   148   75   77 1    
   149   75  196 1    
   150   76  197 1    
   151   76  198 1    
   152   76  199 1    
   153   77   78 2    
   154   77   79 am   BACKBONE|DICT|INTERRES
   155   79   80 1    
   156   79  200 1    
   157   80   81 1    
   158   80   82 1    
   159   80  201 1    
   160   81  202 1    
   161   81  203 1    
   162   81  204 1    
   163   82   83 2    
   164   82   84 am   BACKBONE|DICT|INTERRES
   165   84   85 1    
   166   84  205 1    
   167   85   86 1    
   168   85   87 1    
   169   85  206 1    
   170   86  207 1    
   171   86  208 1    
   172   86  209 1    
   173   87   88 2    
   174   87   89 am   BACKBONE|DICT|INTERRES
   175   89   90 1    
   176   89  210 1    
   177   90   91 1    
   178   90   92 1    
   179   90  211 1    
   180   91  212 1    
   181   91  213 1    
   182   91  214 1    
   183   92   93 2    
   184   92   94 am   BACKBONE|DICT|INTERRES
   185   94   95 1    
   186   94  215 1    
   187   95   96 1    
   188   95   97 1    
   189   95  216 1    
   190   96  217 1    
   191   96  218 1    
   192   96  219 1    
   193   97   98 2    
   194   97   99 am   BACKBONE|DICT|INTERRES
   195   99  100 1    
   196   99  220 1    
   197  100  101 1    
   198  100  102 1    
   199  100  221 1    
   200  101  222 1    
   201  101  223 1    
   202  101  224 1    
   203  102  103 2    
   204  102  104 am   BACKBONE|DICT|INTERRES
   205  104  105 1    
   206  104  225 1    
   207  105  106 1    
   208  105  107 1    
   209  105  226 1    
   210  106  227 1    
   211  106  228 1    
   212  106  229 1    
   213  107  108 2    
   214  107  109 am   BACKBONE|DICT|INTERRES
   215  109  110 1    
   216  109  230 1    
   217  110  111 1    
   218  110  112 1    
   219  110  231 1    
   220  111  232 1    
   221  111  233 1    
   222  111  234 1    
   223  112  113 2    
   224  112  114 am   BACKBONE|DICT|INTERRES
   225  114  115 1    
   226  114  235 1    
   227  115  116 1    
   228  115  117 1    
   229  115  236 1    
   230  116  237 1    
   231  116  238 1    
   232  116  239 1    
   233  117  118 2    
   234  117  119 am   BACKBONE|DICT|INTERRES
   235  119  120 1    
   236  119  240 1    
   237  120  121 1    
   238  120  124 1    
   239  120  241 1    
   240  121  122 am   BACKBONE|DICT|INTERRES
   241  121  123 2    
   242  122  242 1    
   243  122  243 1    
   244  124  125 1    
   245  124  244 1    
   246  124  245 1    
   247  125  126 1    
   248  126  246 1    
   249  126  247 1    
@<TRIPOS>SUBSTRUCTURE
     1 UNK         1 GROUP             0       ****    0 ROOT    
