@<TRIPOS>MOLECULE
3R540
247   249    1
SMALL
USER_CHARGES


@<TRIPOS>ATOM
      1 CA         -3.3468  -11.3750  -50.8802 C.3       0 UNK        -0.1800 
      2 C          -2.9051  -11.7910  -49.4836 C.2       0 UNK         0.5000 
      3 O          -3.1084  -11.0351  -48.5333 O.2       0 UNK        -0.5000 
      4 N          -2.3155  -12.9893  -49.3681 N.am      1 UNK        -0.5000 
      5 CA         -1.7549  -13.5967  -48.1530 C.3       1 UNK         0.1400 
      6 C6         -2.7767  -13.6643  -46.9807 C.3       23 UNK        -0.0398 
      7 S7         -2.3438  -14.8723  -45.6823 S.3       23 UNK        -0.2404 
      8 C8         -3.5408  -16.2282  -45.9334 C.3       23 UNK        -0.0205 
      9 C9         -3.3176  -17.0820  -47.1816 C.ar      23 UNK        -0.0193 
     10 C10        -4.4023  -17.7763  -47.7262 C.ar      23 UNK        -0.1150 
     11 C11        -4.2460  -18.5885  -48.8541 C.ar      23 UNK        -0.0193 
     12 C12        -2.9857  -18.6857  -49.4530 C.ar      23 UNK        -0.1150 
     13 C13        -1.8916  -17.9939  -48.9276 C.ar      23 UNK        -0.0193 
     14 C14        -2.0593  -17.2189  -47.7784 C.ar      23 UNK        -0.1150 
     15 C15        -0.5367  -18.0405  -49.6219 C.3       23 UNK        -0.0205 
     16 S16         0.3395  -19.6201  -49.4018 S.3       23 UNK        -0.2404 
     17 C17         0.5561  -19.7113  -47.5918 C.3       23 UNK        -0.0398 
     18 CA          0.1374  -21.0857  -47.0237 C.3       11 UNK         0.1400 
     19 N           0.6549  -21.3001  -45.6732 N.am      11 UNK        -0.5000 
     20 C           0.6707  -22.4853  -45.0489 C.2       10 UNK         0.5000 
     21 O           0.2486  -23.5283  -45.5493 O.2       10 UNK        -0.5000 
     22 CA          1.2161  -22.5008  -43.6108 C.3       10 UNK         0.1400 
     23 CB          2.7504  -22.4291  -43.6087 C.3       10 UNK        -0.1800 
     24 N           0.6694  -21.4215  -42.7879 N.am      10 UNK        -0.5000 
     25 C          -0.6292  -21.2926  -42.4789 C.2       9 UNK         0.5000 
     26 O          -1.5029  -22.0778  -42.8472 O.2       9 UNK        -0.5000 
     27 CA         -1.0278  -20.0600  -41.6500 C.3       9 UNK         0.1400 
     28 CB         -0.6579  -20.2534  -40.1718 C.3       9 UNK        -0.1800 
     29 N          -0.4302  -18.8223  -42.1486 N.am      9 UNK        -0.5000 
     30 C          -0.6481  -18.3083  -43.3678 C.2       8 UNK         0.5000 
     31 O          -1.3838  -18.8186  -44.2111 O.2       8 UNK        -0.5000 
     32 CA          0.1347  -17.0358  -43.7240 C.3       8 UNK         0.1400 
     33 CB         -0.4129  -15.8234  -42.9563 C.3       8 UNK        -0.1800 
     34 N           1.5651  -17.1715  -43.4602 N.am      8 UNK        -0.5000 
     35 C           2.3689  -18.0985  -43.9998 C.2       7 UNK         0.5000 
     36 O           2.0053  -18.9301  -44.8298 O.2       7 UNK        -0.5000 
     37 CA          3.8155  -18.1310  -43.4846 C.3       7 UNK         0.1400 
     38 CB          4.6627  -17.0507  -44.1723 C.3       7 UNK        -0.1800 
     39 N           3.8783  -17.9622  -42.0331 N.am      7 UNK        -0.5000 
     40 C           3.4182  -18.8571  -41.1466 C.2       6 UNK         0.5000 
     41 O           2.9163  -19.9380  -41.4564 O.2       6 UNK        -0.5000 
     42 CA          3.4943  -18.4500  -39.6650 C.3       6 UNK         0.1400 
     43 CB          4.9138  -18.6533  -39.1143 C.3       6 UNK        -0.1800 
     44 N           3.0801  -17.0627  -39.4496 N.am      6 UNK        -0.5000 
     45 C           1.8291  -16.6163  -39.6281 C.2       5 UNK         0.5000 
     46 O           0.8898  -17.3339  -39.9713 O.2       5 UNK        -0.5000 
     47 CA          1.5948  -15.1091  -39.4191 C.3       5 UNK         0.1400 
     48 CB          1.3323  -14.8064  -37.9363 C.3       5 UNK        -0.1800 
     49 N           2.6923  -14.2645  -39.9001 N.am      5 UNK        -0.5000 
     50 C           3.1003  -14.1897  -41.1736 C.2       4 UNK         0.5000 
     51 O           2.6582  -14.8963  -42.0817 O.2       4 UNK        -0.5000 
     52 CA          4.2112  -13.1757  -41.4831 C.3       4 UNK         0.1400 
     53 CB          5.5416  -13.8926  -41.7602 C.3       4 UNK        -0.1800 
     54 N           3.8444  -12.3691  -42.6451 N.am      4 UNK        -0.5000 
     55 C           3.0459  -11.2939  -42.5975 C.2       3 UNK         0.5000 
     56 O           2.5819  -10.8336  -41.5533 O.2       3 UNK        -0.5000 
     57 CA          2.7153  -10.6102  -43.9382 C.3       3 UNK         0.1400 
     58 CB          3.7681   -9.5413  -44.2704 C.3       3 UNK        -0.1800 
     59 N           2.6229  -11.5563  -45.0525 N.am      3 UNK        -0.5000 
     60 C           1.5764  -12.3639  -45.2651 C.2       2 UNK         0.5000 
     61 O           0.5695  -12.3829  -44.5533 O.2       2 UNK        -0.5000 
     62 CA          1.6998  -13.3300  -46.4573 C.3       2 UNK         0.1400 
     63 CB          2.4625  -14.5957  -46.0364 C.3       2 UNK        -0.1800 
     64 N           0.3888  -13.7241  -46.9704 N.am      2 UNK        -0.5000 
     65 C          -0.3900  -12.9737  -47.7592 C.2       1 UNK         0.5000 
     66 O          -0.0421  -11.8731  -48.1956 O.2       1 UNK        -0.5000 
     67 C          -1.3831  -21.3285  -47.1057 C.2       11 UNK         0.5000 
     68 O          -1.8300  -21.9631  -48.0607 O.2       11 UNK        -0.5000 
     69 N          -2.1405  -20.8858  -46.0909 N.am      12 UNK        -0.5000 
     70 CA         -3.5763  -21.1387  -45.9708 C.3       12 UNK         0.1400 
     71 CB         -4.1618  -20.3119  -44.8174 C.3       12 UNK        -0.1800 
     72 C          -3.9042  -22.6316  -45.7919 C.2       12 UNK         0.5000 
     73 O          -4.8282  -23.1238  -46.4391 O.2       12 UNK        -0.5000 
     74 N          -3.1262  -23.3321  -44.9529 N.am      13 UNK        -0.5000 
     75 CA         -3.2499  -24.7720  -44.7106 C.3       13 UNK         0.1400 
     76 CB         -2.3565  -25.1764  -43.5282 C.3       13 UNK        -0.1800 
     77 C          -2.9250  -25.6198  -45.9545 C.2       13 UNK         0.5000 
     78 O          -3.6312  -26.5900  -46.2310 O.2       13 UNK        -0.5000 
     79 N          -1.8841  -25.2213  -46.6979 N.am      14 UNK        -0.5000 
     80 CA         -1.4898  -25.8290  -47.9713 C.3       14 UNK         0.1400 
     81 CB         -0.0308  -25.4445  -48.2652 C.3       14 UNK        -0.1800 
     82 C          -2.3882  -25.4115  -49.1533 C.2       14 UNK         0.5000 
     83 O          -2.2845  -26.0059  -50.2274 O.2       14 UNK        -0.5000 
     84 N          -3.1958  -24.3578  -48.9617 N.am      15 UNK        -0.5000 
     85 CA         -4.0088  -23.6479  -49.9550 C.3       15 UNK         0.1400 
     86 CB         -5.2042  -24.5170  -50.3940 C.3       15 UNK        -0.1800 
     87 C          -3.1751  -23.1337  -51.1487 C.2       15 UNK         0.5000 
     88 O          -3.6632  -23.1271  -52.2776 O.2       15 UNK        -0.5000 
     89 N          -1.9116  -22.7688  -50.8821 N.am      16 UNK        -0.5000 
     90 CA         -0.8501  -22.4272  -51.8399 C.3       16 UNK         0.1400 
     91 CB         -1.1368  -21.0639  -52.4979 C.3       16 UNK        -0.1800 
     92 C          -0.5753  -23.5217  -52.9005 C.2       16 UNK         0.5000 
     93 O          -0.1013  -23.1988  -53.9903 O.2       16 UNK        -0.5000 
     94 N          -0.8948  -24.7873  -52.5802 N.am      17 UNK        -0.5000 
     95 CA         -0.9381  -25.9391  -53.4902 C.3       17 UNK         0.1400 
     96 CB          0.4671  -26.3000  -54.0161 C.3       17 UNK        -0.1800 
     97 C          -1.9871  -25.7463  -54.6089 C.2       17 UNK         0.5000 
     98 O          -1.7126  -26.0087  -55.7815 O.2       17 UNK        -0.5000 
     99 N          -3.1676  -25.2525  -54.2094 N.am      18 UNK        -0.5000 
    100 CA        -4.3466  -24.8744  -54.9952 C.3       18 UNK         0.1400 
    101 CB        -4.8609  -26.0263  -55.8795 C.3       18 UNK        -0.1800 
    102 C         -4.1540  -23.5759  -55.7972 C.2       18 UNK         0.5000 
    103 O         -4.9944  -22.6800  -55.6935 O.2       18 UNK        -0.5000 
    104 N         -3.0552  -23.4919  -56.5616 N.am      19 UNK        -0.5000 
    105 CA        -2.6347  -22.3643  -57.4003 C.3       19 UNK         0.1400 
    106 CB        -2.0470  -21.2461  -56.5092 C.3       19 UNK        -0.1800 
    107 C         -3.7651  -21.8913  -58.3439 C.2       19 UNK         0.5000 
    108 O         -4.3003  -22.7054  -59.0993 O.2       19 UNK        -0.5000 
    109 N         -4.1273  -20.6075  -58.2587 N.am      20 UNK        -0.5000 
    110 CA        -5.3097  -20.0141  -58.8688 C.3       20 UNK         0.1400 
    111 CB        -4.8728  -18.9131  -59.8517 C.3       20 UNK        -0.1800 
    112 C         -6.1670  -19.4731  -57.7158 C.2       20 UNK         0.5000 
    113 O         -6.0293  -18.3056  -57.3446 O.2       20 UNK        -0.5000 
    114 N         -6.9662  -20.3640  -57.1089 N.am      21 UNK        -0.5000 
    115 CA        -7.8150  -20.1293  -55.9297 C.3       21 UNK         0.1400 
    116 CB        -9.0052  -19.2176  -56.2948 C.3       21 UNK        -0.1800 
    117 C         -7.0089  -19.6169  -54.7147 C.2       21 UNK         0.5000 
    118 O         -7.4102  -18.6562  -54.0580 O.2       21 UNK        -0.5000 
    119 N         -5.8540  -20.2545  -54.4957 N.am      22 UNK        -0.5000 
    120 CA        -4.7882  -19.9154  -53.5429 C.3       22 UNK         0.1400 
    121 C         -4.0320  -18.5740  -53.7932 C.2       22 UNK         0.5000 
    122 N         -4.2848  -17.8517  -54.8794 N.am      22 UNK        -0.7600 
    123 O         -3.1527  -18.2066  -53.0204 O.2       22 UNK        -0.5000 
    124 C124       -5.1453  -20.2196  -52.0592 C.3       23 UNK        -0.0398 
    125 S125       -5.9302  -18.8936  -51.0749 S.3       23 UNK        -0.2404 
    126 C126       -5.4350  -19.3813  -49.3878 C.3       23 UNK        -0.0205 
    127 H127       -4.4225  -11.2001  -50.8971 H         1 UNK         0.0600 
    128 H128       -3.1150  -12.1375  -51.6243 H         1 UNK         0.0600 
    129 H129       -2.8457  -10.4521  -51.1723 H         1 UNK         0.0600 
    130 H130       -2.1752  -13.5323  -50.2084 H         1 UNK         0.3000 
    131 H131       -1.5364  -14.6187  -48.4599 H         1 UNK         0.0600 
    132 H132       -2.8841  -12.6876  -46.5069 H         1 UNK         0.0800 
    133 H133       -3.7647  -13.9188  -47.3664 H         1 UNK         0.0800 
    134 H134       -3.4867  -16.8848  -45.0645 H         1 UNK         0.0800 
    135 H135       -4.5475  -15.8076  -45.9395 H         1 UNK         0.0800 
    136 H136       -5.3728  -17.6952  -47.2570 H         1 UNK         0.1150 
    137 H137       -2.8503  -19.2931  -50.3329 H         1 UNK         0.1150 
    138 H138       -1.2029  -16.7121  -47.3607 H         1 UNK         0.1150 
    139 H139       -0.6829  -17.8713  -50.6899 H         1 UNK         0.0800 
    140 H140        0.1041  -17.2291  -49.2731 H         1 UNK         0.0800 
    141 H141        0.0286  -18.9046  -47.0828 H         1 UNK         0.0800 
    142 H142        1.6157  -19.5411  -47.3978 H         1 UNK         0.0800 
    143 H143        0.6080  -21.8479  -47.6492 H         1 UNK         0.0600 
    144 H144        1.0366  -20.4830  -45.2017 H         1 UNK         0.3000 
    145 H145        0.9207  -23.4484  -43.1557 H         1 UNK         0.0600 
    146 H146        3.1474  -22.5381  -42.5993 H         1 UNK         0.0600 
    147 H147        3.1805  -23.2269  -44.2154 H         1 UNK         0.0600 
    148 H148        3.1102  -21.4802  -44.0079 H         1 UNK         0.0600 
    149 H149        1.3334  -20.7433  -42.4272 H         1 UNK         0.3000 
    150 H150       -2.1123  -19.9532  -41.7176 H         1 UNK         0.0600 
    151 H151       -1.0928  -21.1720  -39.7759 H         1 UNK         0.0600 
    152 H152       -1.0290  -19.4289  -39.5628 H         1 UNK         0.0600 
    153 H153        0.4221  -20.3116  -40.0310 H         1 UNK         0.0600 
    154 H154        0.1788  -18.3233  -41.5064 H         1 UNK         0.3000 
    155 H155        0.0055  -16.8549  -44.7929 H         1 UNK         0.0600 
    156 H156       -1.4950  -15.7450  -43.0602 H         1 UNK         0.0600 
    157 H157        0.0219  -14.8943  -43.3256 H         1 UNK         0.0600 
    158 H158       -0.2014  -15.8898  -41.8915 H         1 UNK         0.0600 
    159 H159        1.9692  -16.4922  -42.8203 H         1 UNK         0.3000 
    160 H160        4.2395  -19.1066  -43.7317 H         1 UNK         0.0600 
    161 H161        4.2722  -16.0514  -43.9814 H         1 UNK         0.0600 
    162 H162        4.6721  -17.1949  -45.2534 H         1 UNK         0.0600 
    163 H163        5.6973  -17.0803  -43.8304 H         1 UNK         0.0600 
    164 H164        4.2258  -17.0786  -41.6927 H         1 UNK         0.3000 
    165 H165        2.8160  -19.0987  -39.1064 H         1 UNK         0.0600 
    166 H166        4.9554  -18.4419  -38.0456 H         1 UNK         0.0600 
    167 H167        5.2415  -19.6844  -39.2534 H         1 UNK         0.0600 
    168 H168        5.6384  -18.0082  -39.6127 H         1 UNK         0.0600 
    169 H169        3.7924  -16.4063  -39.1664 H         1 UNK         0.3000 
    170 H170        0.7002  -14.8341  -39.9806 H         1 UNK         0.0600 
    171 H171        0.5050  -15.4072  -37.5558 H         1 UNK         0.0600 
    172 H172        2.2056  -15.0220  -37.3194 H         1 UNK         0.0600 
    173 H173        1.0659  -13.7597  -37.7882 H         1 UNK         0.0600 
    174 H174        3.1165  -13.6539  -39.2166 H         1 UNK         0.3000 
    175 H175        4.3530  -12.5213  -40.6202 H         1 UNK         0.0600 
    176 H176        5.4836  -14.5327  -42.6400 H         1 UNK         0.0600 
    177 H177        6.3460  -13.1753  -41.9240 H         1 UNK         0.0600 
    178 H178        5.8328  -14.5187  -40.9158 H         1 UNK         0.0600 
    179 H179        4.1403  -12.7127  -43.5458 H         1 UNK         0.3000 
    180 H180        1.7513  -10.1089  -43.8255 H         1 UNK         0.0600 
    181 H181        4.7577   -9.9783  -44.4103 H         1 UNK         0.0600 
    182 H182        3.8445   -8.8064  -43.4679 H         1 UNK         0.0600 
    183 H183        3.5075   -9.0005  -45.1804 H         1 UNK         0.0600 
    184 H184        3.4120  -11.5925  -45.6817 H         1 UNK         0.3000 
    185 H185        2.2560  -12.8366  -47.2573 H         1 UNK         0.0600 
    186 H186        3.4791  -14.3552  -45.7240 H         1 UNK         0.0600 
    187 H187        1.9739  -15.0927  -45.1991 H         1 UNK         0.0600 
    188 H188        2.5355  -15.3103  -46.8565 H         1 UNK         0.0600 
    189 H189       -0.0008  -14.5707  -46.5823 H         1 UNK         0.3000 
    190 H190       -1.7170  -20.3263  -45.3551 H         1 UNK         0.3000 
    191 H191       -4.0490  -20.8061  -46.8968 H         1 UNK         0.0600 
    192 H192       -4.0235  -19.2457  -44.9911 H         1 UNK         0.0600 
    193 H193       -5.2332  -20.4872  -44.7136 H         1 UNK         0.0600 
    194 H194       -3.6919  -20.5593  -43.8649 H         1 UNK         0.0600 
    195 H195       -2.4123  -22.8431  -44.4200 H         1 UNK         0.3000 
    196 H196       -4.2868  -24.9749  -44.4347 H         1 UNK         0.0600 
    197 H197       -2.4353  -26.2451  -43.3251 H         1 UNK         0.0600 
    198 H198       -2.6466  -24.6507  -42.6184 H         1 UNK         0.0600 
    199 H199       -1.3066  -24.9542  -43.7217 H         1 UNK         0.0600 
    200 H200       -1.3104  -24.4515  -46.3645 H         1 UNK         0.3000 
    201 H201       -1.5481  -26.9153  -47.8786 H         1 UNK         0.0600 
    202 H202        0.6321  -25.7730  -47.4645 H         1 UNK         0.0600 
    203 H203        0.0851  -24.3650  -48.3723 H         1 UNK         0.0600 
    204 H204        0.3211  -25.9069  -49.1884 H         1 UNK         0.0600 
    205 H205       -3.1581  -23.9137  -48.0536 H         1 UNK         0.3000 
    206 H206       -4.4025  -22.7642  -49.4521 H         1 UNK         0.0600 
    207 H207       -5.7800  -24.8555  -49.5325 H         1 UNK         0.0600 
    208 H208       -5.8830  -23.9546  -51.0362 H         1 UNK         0.0600 
    209 H209       -4.8816  -25.3982  -50.9495 H         1 UNK         0.0600 
    210 H210       -1.6503  -22.7291  -49.9011 H         1 UNK         0.3000 
    211 H211        0.0641  -22.3289  -51.2532 H         1 UNK         0.0600 
    212 H212       -1.9385  -21.1375  -53.2298 H         1 UNK         0.0600 
    213 H213       -0.2561  -20.6892  -53.0202 H         1 UNK         0.0600 
    214 H214       -1.4176  -20.3124  -51.7630 H         1 UNK         0.0600 
    215 H215       -1.2882  -24.9634  -51.6614 H         1 UNK         0.3000 
    216 H216       -1.2868  -26.7823  -52.8922 H         1 UNK         0.0600 
    217 H217        0.4433  -27.2386  -54.5709 H         1 UNK         0.0600 
    218 H218        1.1741  -26.4257  -53.1962 H         1 UNK         0.0600 
    219 H219        0.8627  -25.5378  -54.6875 H         1 UNK         0.0600 
    220 H220       -3.2268  -24.9510  -53.2439 H         1 UNK         0.3000 
    221 H221       -5.1233  -24.6668  -54.2572 H         1 UNK         0.0600 
    222 H222       -4.1650  -26.2739  -56.6811 H         1 UNK         0.0600 
    223 H223       -5.0324  -26.9281  -55.2918 H         1 UNK         0.0600 
    224 H224       -5.8084  -25.7577  -56.3478 H         1 UNK         0.0600 
    225 H225       -2.4449  -24.3028  -56.5682 H         1 UNK         0.3000 
    226 H226       -1.8343  -22.7351  -58.0418 H         1 UNK         0.0600 
    227 H227       -1.2315  -21.6283  -55.8958 H         1 UNK         0.0600 
    228 H228       -1.6357  -20.4334  -57.1090 H         1 UNK         0.0600 
    229 H229       -2.7917  -20.8243  -55.8346 H         1 UNK         0.0600 
    230 H230       -3.6459  -20.0215  -57.5912 H         1 UNK         0.3000 
    231 H231       -5.8956  -20.7554  -59.4163 H         1 UNK         0.0600 
    232 H232       -4.2610  -18.1516  -59.3663 H         1 UNK         0.0600 
    233 H233       -5.7392  -18.4133  -60.2863 H         1 UNK         0.0600 
    234 H234       -4.2916  -19.3318  -60.6734 H         1 UNK         0.0600 
    235 H235       -6.9468  -21.3182  -57.4423 H         1 UNK         0.3000 
    236 H236       -8.2192  -21.1003  -55.6396 H         1 UNK         0.0600 
    237 H237       -9.5674  -19.6221  -57.1365 H         1 UNK         0.0600 
    238 H238       -9.6977  -19.1251  -55.4575 H         1 UNK         0.0600 
    239 H239       -8.6786  -18.2121  -56.5620 H         1 UNK         0.0600 
    240 H240       -5.6361  -21.0533  -55.0886 H         1 UNK         0.3000 
    241 H241       -4.0383  -20.6608  -53.8010 H         1 UNK         0.0600 
    242 H242       -3.7700  -16.9985  -55.0261 H         1 UNK         0.3800 
    243 H243       -5.0103  -18.1138  -55.5358 H         1 UNK         0.3800 
    244 H244       -5.7760  -21.1077  -52.0035 H         1 UNK         0.0800 
    245 H245       -4.2233  -20.4954  -51.5518 H         1 UNK         0.0800 
    246 H246       -6.2993  -19.2459  -48.7361 H         1 UNK         0.0800 
    247 H247       -5.2038  -20.4461  -49.3511 H         1 UNK         0.0800 
@<TRIPOS>BOND
     1    1    2 1    
     2    1  127 1    
     3    1  128 1    
     4    1  129 1    
     5    2    3 2    
     6    2    4 am   BACKBONE|DICT|INTERRES
     7    4    5 1    
     8    4  130 1    
     9    5    6 1    
    10    5   65 1    
    11    5  131 1    
    12    6    7 1    
    13    6  132 1    
    14    6  133 1    
    15    7    8 1    
    16    8    9 1    
    17    8  134 1    
    18    8  135 1    
    19    9   10 ar   
    20    9   14 ar   
    21   10   11 ar   
    22   10  136 1    
    23   11   12 ar   
    24   11  126 1    
    25   12   13 ar   
    26   12  137 1    
    27   13   14 ar   
    28   13   15 1    
    29   14  138 1    
    30   15   16 1    
    31   15  139 1    
    32   15  140 1    
    33   16   17 1    
    34   17   18 1    
    35   17  141 1    
    36   17  142 1    
    37   18   19 1    
    38   18   67 1    
    39   18  143 1    
    40   19   20 am   BACKBONE|DICT|INTERRES
    41   19  144 1    
    42   20   21 2    
    43   20   22 1    
    44   22   23 1    
    45   22   24 1    
    46   22  145 1    
    47   23  146 1    
    48   23  147 1    
    49   23  148 1    
    50   24   25 am   BACKBONE|DICT|INTERRES
    51   24  149 1    
    52   25   26 2    
    53   25   27 1    
    54   27   28 1    
    55   27   29 1    
    56   27  150 1    
    57   28  151 1    
    58   28  152 1    
    59   28  153 1    
    60   29   30 am   BACKBONE|DICT|INTERRES
    61   29  154 1    
    62   30   31 2    
    63   30   32 1    
    64   32   33 1    
    65   32   34 1    
    66   32  155 1    
    67   33  156 1    
    68   33  157 1    
    69   33  158 1    
    70   34   35 am   BACKBONE|DICT|INTERRES
    71   34  159 1    
    72   35   36 2    
    73   35   37 1    
    74   37   38 1    
    75   37   39 1    
    76   37  160 1    
    77   38  161 1    
    78   38  162 1    
    79   38  163 1    
    80   39   40 am   BACKBONE|DICT|INTERRES
    81   39  164 1    
    82   40   41 2    
    83   40   42 1    
    84   42   43 1    
    85   42   44 1    
    86   42  165 1    
    87   43  166 1    
    88   43  167 1    
    89   43  168 1    
    90   44   45 am   BACKBONE|DICT|INTERRES
    91   44  169 1    
    92   45   46 2    
    93   45   47 1    
    94   47   48 1    
    95   47   49 1    
    96   47  170 1    
    97   48  171 1    
    98   48  172 1    
    99   48  173 1    
   100   49   50 am   BACKBONE|DICT|INTERRES
   101   49  174 1    
   102   50   51 2    
   103   50   52 1    
   104   52   53 1    
   105   52   54 1    
   106   52  175 1    
   107   53  176 1    
   108   53  177 1    
   109   53  178 1    
   110   54   55 am   BACKBONE|DICT|INTERRES
   111   54  179 1    
   112   55   56 2    
   113   55   57 1    
   114   57   58 1    
   115   57   59 1    
   116   57  180 1    
   117   58  181 1    
   118   58  182 1    
   119   58  183 1    
   120   59   60 am   BACKBONE|DICT|INTERRES
   121   59  184 1    
   122   60   61 2    
   123   60   62 1    
   124   62   63 1    
   125   62   64 1    
   126   62  185 1    
   127   63  186 1    
   128   63  187 1    
   129   63  188 1    
   130   64   65 am   BACKBONE|DICT|INTERRES
   131   64  189 1    
   132   65   66 2    
   133   67   68 2    
   134   67   69 am   BACKBONE|DICT|INTERRES
   135   69   70 1    
   136   69  190 1    
   137   70   71 1    
   138   70   72 1    
   139   70  191 1    
   140   71  192 1    
   141   71  193 1    
   142   71  194 1    
   143   72   73 2    
   144   72   74 am   BACKBONE|DICT|INTERRES
   145   74   75 1    
   146   74  195 1    
   147   75   76 1    
   148   75   77 1    
   149   75  196 1    
   150   76  197 1    
   151   76  198 1    
   152   76  199 1    
   153   77   78 2    
   154   77   79 am   BACKBONE|DICT|INTERRES
   155   79   80 1    
   156   79  200 1    
   157   80   81 1    
   158   80   82 1    
   159   80  201 1    
   160   81  202 1    
   161   81  203 1    
   162   81  204 1    
   163   82   83 2    
   164   82   84 am   BACKBONE|DICT|INTERRES
   165   84   85 1    
   166   84  205 1    
   167   85   86 1    
   168   85   87 1    
   169   85  206 1    
   170   86  207 1    
   171   86  208 1    
   172   86  209 1    
   173   87   88 2    
   174   87   89 am   BACKBONE|DICT|INTERRES
   175   89   90 1    
   176   89  210 1    
   177   90   91 1    
   178   90   92 1    
   179   90  211 1    
   180   91  212 1    
   181   91  213 1    
   182   91  214 1    
   183   92   93 2    
   184   92   94 am   BACKBONE|DICT|INTERRES
   185   94   95 1    
   186   94  215 1    
   187   95   96 1    
   188   95   97 1    
   189   95  216 1    
   190   96  217 1    
   191   96  218 1    
   192   96  219 1    
   193   97   98 2    
   194   97   99 am   BACKBONE|DICT|INTERRES
   195   99  100 1    
   196   99  220 1    
   197  100  101 1    
   198  100  102 1    
   199  100  221 1    
   200  101  222 1    
   201  101  223 1    
   202  101  224 1    
   203  102  103 2    
   204  102  104 am   BACKBONE|DICT|INTERRES
   205  104  105 1    
   206  104  225 1    
   207  105  106 1    
   208  105  107 1    
   209  105  226 1    
   210  106  227 1    
   211  106  228 1    
   212  106  229 1    
   213  107  108 2    
   214  107  109 am   BACKBONE|DICT|INTERRES
   215  109  110 1    
   216  109  230 1    
   217  110  111 1    
   218  110  112 1    
   219  110  231 1    
   220  111  232 1    
   221  111  233 1    
   222  111  234 1    
   223  112  113 2    
   224  112  114 am   BACKBONE|DICT|INTERRES
   225  114  115 1    
   226  114  235 1    
   227  115  116 1    
   228  115  117 1    
   229  115  236 1    
   230  116  237 1    
   231  116  238 1    
   232  116  239 1    
   233  117  118 2    
   234  117  119 am   BACKBONE|DICT|INTERRES
   235  119  120 1    
   236  119  240 1    
   237  120  121 1    
   238  120  124 1    
   239  120  241 1    
   240  121  122 am   BACKBONE|DICT|INTERRES
   241  121  123 2    
   242  122  242 1    
   243  122  243 1    
   244  124  125 1    
   245  124  244 1    
   246  124  245 1    
   247  125  126 1    
   248  126  246 1    
   249  126  247 1    
@<TRIPOS>SUBSTRUCTURE
     1 UNK         1 GROUP             0       ****    0 ROOT    
