@<TRIPOS>MOLECULE
3R540
247   249    1
SMALL
USER_CHARGES


@<TRIPOS>ATOM
      1 CA          7.2182   -9.7901  -49.6220 C.3       0 UNK        -0.1800 
      2 C           6.8515  -11.1622  -49.0737 C.2       0 UNK         0.5000 
      3 O           7.6231  -12.1095  -49.2280 O.2       0 UNK        -0.5000 
      4 N           5.6760  -11.2736  -48.4426 N.am      1 UNK        -0.5000 
      5 CA          5.1874  -12.4921  -47.7892 C.3       1 UNK         0.1400 
      6 C6          3.6548  -12.4243  -47.5541 C.3       23 UNK        -0.0398 
      7 S7          2.8413  -14.0449  -47.7406 S.3       23 UNK        -0.2404 
      8 C8          2.7080  -14.1335  -49.5522 C.3       23 UNK        -0.0205 
      9 C9          1.8963  -15.3366  -50.0030 C.ar      23 UNK        -0.0193 
     10 C10         0.5664  -15.1735  -50.3971 C.ar      23 UNK        -0.1150 
     11 C11        -0.1767  -16.2623  -50.8594 C.ar      23 UNK        -0.0193 
     12 C12         0.4210  -17.5240  -50.9271 C.ar      23 UNK        -0.1150 
     13 C13         1.7490  -17.7034  -50.5264 C.ar      23 UNK        -0.0193 
     14 C14         2.4808  -16.6053  -50.0626 C.ar      23 UNK        -0.1150 
     15 C15         2.4065  -19.0730  -50.6264 C.3       23 UNK        -0.0205 
     16 S16         2.1921  -20.0549  -49.1082 S.3       23 UNK        -0.2404 
     17 C17         0.4501  -20.5646  -49.2653 C.3       23 UNK        -0.0398 
     18 CA          0.0868  -21.7498  -48.3391 C.3       11 UNK         0.1400 
     19 N           0.0669  -21.3791  -46.9187 N.am      11 UNK        -0.5000 
     20 C          -0.1333  -22.2338  -45.9039 C.2       10 UNK         0.5000 
     21 O          -0.2465  -23.4510  -46.0477 O.2       10 UNK        -0.5000 
     22 CA         -0.2935  -21.6297  -44.4962 C.3       10 UNK         0.1400 
     23 CB          1.0721  -21.3238  -43.8641 C.3       10 UNK        -0.1800 
     24 N          -1.1352  -20.4313  -44.4905 N.am      10 UNK        -0.5000 
     25 C          -2.4387  -20.4260  -44.8072 C.2       9 UNK         0.5000 
     26 O          -3.0758  -21.4424  -45.0783 O.2       9 UNK        -0.5000 
     27 CA         -3.1444  -19.0596  -44.8799 C.3       9 UNK         0.1400 
     28 CB         -3.5914  -18.5953  -43.4861 C.3       9 UNK        -0.1800 
     29 N          -2.3120  -18.0303  -45.4997 N.am      9 UNK        -0.5000 
     30 C          -1.8871  -18.0578  -46.7709 C.2       8 UNK         0.5000 
     31 O          -2.2168  -18.9229  -47.5820 O.2       8 UNK        -0.5000 
     32 CA         -0.8760  -16.9699  -47.1796 C.3       8 UNK         0.1400 
     33 CB         -1.5886  -15.6520  -47.5181 C.3       8 UNK        -0.1800 
     34 N           0.1301  -16.7371  -46.1409 N.am      8 UNK        -0.5000 
     35 C           1.0288  -17.6530  -45.7526 C.2       7 UNK         0.5000 
     36 O           1.1273  -18.7662  -46.2629 O.2       7 UNK        -0.5000 
     37 CA          1.9162  -17.3036  -44.5463 C.3       7 UNK         0.1400 
     38 CB          3.1935  -16.5776  -44.9797 C.3       7 UNK        -0.1800 
     39 N           1.1982  -16.5189  -43.5397 N.am      7 UNK        -0.5000 
     40 C           0.2652  -17.0549  -42.7384 C.2       6 UNK         0.5000 
     41 O          -0.0444  -18.2463  -42.7632 O.2       6 UNK        -0.5000 
     42 CA         -0.4764  -16.1110  -41.7765 C.3       6 UNK         0.1400 
     43 CB          0.3353  -15.8857  -40.4936 C.3       6 UNK        -0.1800 
     44 N          -0.8148  -14.8180  -42.3671 N.am      6 UNK        -0.5000 
     45 C          -1.6227  -14.6271  -43.4157 C.2       5 UNK         0.5000 
     46 O          -2.1446  -15.5497  -44.0401 O.2       5 UNK        -0.5000 
     47 CA         -1.8859  -13.1742  -43.8632 C.3       5 UNK         0.1400 
     48 CB         -3.0820  -12.5703  -43.1040 C.3       5 UNK        -0.1800 
     49 N          -0.7109  -12.2919  -43.8112 N.am      5 UNK        -0.5000 
     50 C          -0.0193  -11.8665  -42.7452 C.2       4 UNK         0.5000 
     51 O          -0.3015  -12.1384  -41.5762 O.2       4 UNK        -0.5000 
     52 CA          1.2495  -11.0494  -43.0459 C.3       4 UNK         0.1400 
     53 CB          1.1792   -9.6600  -42.3929 C.3       4 UNK        -0.1800 
     54 N           2.4612  -11.7356  -42.5924 N.am      4 UNK        -0.5000 
     55 C           2.8588  -12.9498  -42.9937 C.2       3 UNK         0.5000 
     56 O           2.2300  -13.6611  -43.7819 O.2       3 UNK        -0.5000 
     57 CA          4.1927  -13.4581  -42.4394 C.3       3 UNK         0.1400 
     58 CB          3.9826  -14.5788  -41.4068 C.3       3 UNK        -0.1800 
     59 N           4.9665  -13.9444  -43.5726 N.am      3 UNK        -0.5000 
     60 C           6.2945  -14.0892  -43.6122 C.2       2 UNK         0.5000 
     61 O           7.0338  -13.8990  -42.6455 O.2       2 UNK        -0.5000 
     62 CA          6.9080  -14.4919  -44.9685 C.3       2 UNK         0.1400 
     63 CB          7.1044  -16.0137  -45.0475 C.3       2 UNK        -0.1800 
     64 N           6.1347  -14.0433  -46.1328 N.am      2 UNK        -0.5000 
     65 C           5.9646  -12.7603  -46.4819 C.2       1 UNK         0.5000 
     66 O           6.3873  -11.8103  -45.8172 O.2       1 UNK        -0.5000 
     67 C          -1.2474  -22.3859  -48.7779 C.2       11 UNK         0.5000 
     68 O          -1.2312  -23.4512  -49.3960 O.2       11 UNK        -0.5000 
     69 N          -2.3715  -21.7531  -48.4101 N.am      12 UNK        -0.5000 
     70 CA         -3.7204  -22.2567  -48.6664 C.3       12 UNK         0.1400 
     71 CB         -4.7600  -21.2190  -48.2193 C.3       12 UNK        -0.1800 
     72 C          -3.9804  -23.6112  -47.9850 C.2       12 UNK         0.5000 
     73 O          -4.4873  -24.5233  -48.6348 O.2       12 UNK        -0.5000 
     74 N          -3.5984  -23.7337  -46.7057 N.am      13 UNK        -0.5000 
     75 CA         -3.7211  -24.9556  -45.9091 C.3       13 UNK         0.1400 
     76 CB         -3.3392  -24.6664  -44.4502 C.3       13 UNK        -0.1800 
     77 C          -2.8940  -26.1268  -46.4676 C.2       13 UNK         0.5000 
     78 O          -3.4034  -27.2459  -46.5324 O.2       13 UNK        -0.5000 
     79 N          -1.6591  -25.8477  -46.9096 N.am      14 UNK        -0.5000 
     80 CA         -0.7701  -26.8133  -47.5639 C.3       14 UNK         0.1400 
     81 CB          0.6151  -26.1794  -47.7608 C.3       14 UNK        -0.1800 
     82 C          -1.3245  -27.3362  -48.9043 C.2       14 UNK         0.5000 
     83 O          -1.0977  -28.4968  -49.2471 O.2       14 UNK        -0.5000 
     84 N          -2.0726  -26.4826  -49.6129 N.am      15 UNK        -0.5000 
     85 CA         -2.7925  -26.7991  -50.8460 C.3       15 UNK         0.1400 
     86 CB         -2.8120  -25.5375  -51.7202 C.3       15 UNK        -0.1800 
     87 C          -4.2232  -27.3263  -50.5953 C.2       15 UNK         0.5000 
     88 O          -4.9808  -27.4791  -51.5547 O.2       15 UNK        -0.5000 
     89 N          -4.5888  -27.5699  -49.3257 N.am      16 UNK        -0.5000 
     90 CA         -5.8867  -28.0649  -48.8462 C.3       16 UNK         0.1400 
     91 CB         -6.0887  -29.5333  -49.2737 C.3       16 UNK        -0.1800 
     92 C          -7.0809  -27.1627  -49.2329 C.2       16 UNK         0.5000 
     93 O          -8.1938  -27.6580  -49.4172 O.2       16 UNK        -0.5000 
     94 N          -6.8148  -25.8557  -49.3724 N.am      17 UNK        -0.5000 
     95 CA         -7.7084  -24.7817  -49.8172 C.3       17 UNK         0.1400 
     96 CB         -8.8640  -24.5789  -48.8164 C.3       17 UNK        -0.1800 
     97 C          -8.2054  -24.9199  -51.2742 C.2       17 UNK         0.5000 
     98 O          -9.1031  -24.1774  -51.6756 O.2       17 UNK        -0.5000 
     99 N          -7.6145  -25.8365  -52.0546 N.am      18 UNK        -0.5000 
    100 CA        -7.9456  -26.0612  -53.4636 C.3       18 UNK         0.1400 
    101 CB        -7.5910  -27.5101  -53.8325 C.3       18 UNK        -0.1800 
    102 C         -7.2270  -25.0743  -54.4033 C.2       18 UNK         0.5000 
    103 O         -7.6461  -24.9143  -55.5505 O.2       18 UNK        -0.5000 
    104 N         -6.1619  -24.4375  -53.9070 N.am      19 UNK        -0.5000 
    105 CA        -5.3152  -23.4749  -54.5986 C.3       19 UNK         0.1400 
    106 CB        -4.3806  -24.2136  -55.5797 C.3       19 UNK        -0.1800 
    107 C         -4.5239  -22.6841  -53.5430 C.2       19 UNK         0.5000 
    108 O         -4.7180  -22.8996  -52.3441 O.2       19 UNK        -0.5000 
    109 N         -3.6412  -21.7903  -54.0118 N.am      20 UNK        -0.5000 
    110 CA        -2.6188  -21.0610  -53.2454 C.3       20 UNK         0.1400 
    111 CB        -1.5817  -22.0456  -52.6705 C.3       20 UNK        -0.1800 
    112 C         -3.1566  -20.0916  -52.1697 C.2       20 UNK         0.5000 
    113 O         -2.3896  -19.6518  -51.3142 O.2       20 UNK        -0.5000 
    114 N         -4.4489  -19.7502  -52.2464 N.am      21 UNK        -0.5000 
    115 CA        -5.1160  -18.7973  -51.3573 C.3       21 UNK         0.1400 
    116 CB        -6.5763  -19.2398  -51.1736 C.3       21 UNK        -0.1800 
    117 C         -5.0407  -17.3470  -51.8720 C.2       21 UNK         0.5000 
    118 O         -5.3645  -16.4279  -51.1196 O.2       21 UNK        -0.5000 
    119 N         -4.6184  -17.1671  -53.1323 N.am      22 UNK        -0.5000 
    120 CA        -4.4591  -15.8774  -53.8316 C.3       22 UNK         0.1400 
    121 C         -5.7959  -15.1334  -54.1440 C.2       22 UNK         0.5000 
    122 N         -6.9498  -15.7862  -54.0756 N.am      22 UNK        -0.7600 
    123 O         -5.7913  -13.9543  -54.4881 O.2       22 UNK        -0.5000 
    124 C124       -3.4030  -14.9462  -53.1701 C.3       23 UNK        -0.0398 
    125 S125       -1.7408  -15.6973  -53.0607 S.3       23 UNK        -0.2404 
    126 C126       -1.6223  -16.0651  -51.2830 C.3       23 UNK        -0.0205 
    127 H127        6.4400   -9.0526  -49.4238 H         1 UNK         0.0600 
    128 H128        8.1435   -9.4389  -49.1651 H         1 UNK         0.0600 
    129 H129        7.3682   -9.8445  -50.7003 H         1 UNK         0.0600 
    130 H130        5.1078  -10.4485  -48.3158 H         1 UNK         0.3000 
    131 H131        5.4017  -13.3154  -48.4740 H         1 UNK         0.0600 
    132 H132        3.4130  -12.0185  -46.5695 H         1 UNK         0.0800 
    133 H133        3.1851  -11.7431  -48.2651 H         1 UNK         0.0800 
    134 H134        2.2541  -13.2156  -49.9289 H         1 UNK         0.0800 
    135 H135        3.7054  -14.1839  -49.9909 H         1 UNK         0.0800 
    136 H136        0.1098  -14.1946  -50.3537 H         1 UNK         0.1150 
    137 H137       -0.1478  -18.3657  -51.2948 H         1 UNK         0.1150 
    138 H138        3.5099  -16.7347  -49.7582 H         1 UNK         0.1150 
    139 H139        2.0135  -19.6214  -51.4838 H         1 UNK         0.0800 
    140 H140        3.4747  -18.9528  -50.8129 H         1 UNK         0.0800 
    141 H141        0.2814  -20.8336  -50.3083 H         1 UNK         0.0800 
    142 H142       -0.1904  -19.7052  -49.0661 H         1 UNK         0.0800 
    143 H143        0.8534  -22.5185  -48.4580 H         1 UNK         0.0600 
    144 H144        0.2261  -20.3972  -46.7072 H         1 UNK         0.3000 
    145 H145       -0.7866  -22.3770  -43.8713 H         1 UNK         0.0600 
    146 H146        0.9608  -20.9240  -42.8561 H         1 UNK         0.0600 
    147 H147        1.6756  -22.2292  -43.7905 H         1 UNK         0.0600 
    148 H148        1.6395  -20.6026  -44.4506 H         1 UNK         0.0600 
    149 H149       -0.6916  -19.5601  -44.2216 H         1 UNK         0.3000 
    150 H150       -4.0362  -19.1803  -45.4982 H         1 UNK         0.0600 
    151 H151       -4.2437  -19.3345  -43.0197 H         1 UNK         0.0600 
    152 H152       -4.1472  -17.6591  -43.5424 H         1 UNK         0.0600 
    153 H153       -2.7428  -18.4396  -42.8203 H         1 UNK         0.0600 
    154 H154       -2.0457  -17.2442  -44.9129 H         1 UNK         0.3000 
    155 H155       -0.3565  -17.3170  -48.0748 H         1 UNK         0.0600 
    156 H156       -0.8798  -14.8961  -47.8560 H         1 UNK         0.0600 
    157 H157       -2.1272  -15.2473  -46.6620 H         1 UNK         0.0600 
    158 H158       -2.3156  -15.8007  -48.3168 H         1 UNK         0.0600 
    159 H159        0.0902  -15.8575  -45.6490 H         1 UNK         0.3000 
    160 H160        2.2248  -18.2456  -44.0882 H         1 UNK         0.0600 
    161 H161        2.9763  -15.5856  -45.3678 H         1 UNK         0.0600 
    162 H162        3.7143  -17.1315  -45.7620 H         1 UNK         0.0600 
    163 H163        3.8797  -16.4723  -44.1405 H         1 UNK         0.0600 
    164 H164        1.3965  -15.5244  -43.4973 H         1 UNK         0.3000 
    165 H165       -1.4132  -16.5996  -41.5008 H         1 UNK         0.0600 
    166 H166        1.2486  -15.3264  -40.6916 H         1 UNK         0.0600 
    167 H167       -0.2426  -15.3289  -39.7558 H         1 UNK         0.0600 
    168 H168        0.6199  -16.8341  -40.0361 H         1 UNK         0.0600 
    169 H169       -0.4516  -13.9877  -41.9077 H         1 UNK         0.3000 
    170 H170       -2.1643  -13.2250  -44.9169 H         1 UNK         0.0600 
    171 H171       -3.9771  -13.1772  -43.2466 H         1 UNK         0.0600 
    172 H172       -2.8992  -12.5112  -42.0309 H         1 UNK         0.0600 
    173 H173       -3.3100  -11.5663  -43.4619 H         1 UNK         0.0600 
    174 H174       -0.3426  -12.0457  -44.7194 H         1 UNK         0.3000 
    175 H175        1.3343  -10.9106  -44.1257 H         1 UNK         0.0600 
    176 H176        2.0436   -9.0526  -42.6619 H         1 UNK         0.0600 
    177 H177        0.2894   -9.1203  -42.7196 H         1 UNK         0.0600 
    178 H178        1.1411   -9.7271  -41.3048 H         1 UNK         0.0600 
    179 H179        3.0267  -11.2351  -41.9225 H         1 UNK         0.3000 
    180 H180        4.7271  -12.6288  -41.9709 H         1 UNK         0.0600 
    181 H181        3.4588  -15.4321  -41.8386 H         1 UNK         0.0600 
    182 H182        3.3964  -14.2205  -40.5601 H         1 UNK         0.0600 
    183 H183        4.9328  -14.9378  -41.0115 H         1 UNK         0.0600 
    184 H184        4.4266  -14.0994  -44.4135 H         1 UNK         0.3000 
    185 H185        7.8930  -14.0238  -45.0261 H         1 UNK         0.0600 
    186 H186        7.6382  -16.2955  -45.9553 H         1 UNK         0.0600 
    187 H187        7.6910  -16.3764  -44.2023 H         1 UNK         0.0600 
    188 H188        6.1540  -16.5464  -45.0387 H         1 UNK         0.0600 
    189 H189        5.7485  -14.7671  -46.7219 H         1 UNK         0.3000 
    190 H190       -2.2998  -20.8535  -47.9430 H         1 UNK         0.3000 
    191 H191       -3.8187  -22.3956  -49.7451 H         1 UNK         0.0600 
    192 H192       -4.5601  -20.2455  -48.6619 H         1 UNK         0.0600 
    193 H193       -5.7635  -21.5194  -48.5228 H         1 UNK         0.0600 
    194 H194       -4.7683  -21.0909  -47.1371 H         1 UNK         0.0600 
    195 H195       -3.2281  -22.9166  -46.2257 H         1 UNK         0.3000 
    196 H196       -4.7708  -25.2555  -45.9302 H         1 UNK         0.0600 
    197 H197       -3.4422  -25.5603  -43.8339 H         1 UNK         0.0600 
    198 H198       -3.9824  -23.8988  -44.0195 H         1 UNK         0.0600 
    199 H199       -2.3075  -24.3248  -44.3645 H         1 UNK         0.0600 
    200 H200       -1.2926  -24.9079  -46.7812 H         1 UNK         0.3000 
    201 H201       -0.6607  -27.6702  -46.8963 H         1 UNK         0.0600 
    202 H202        1.0524  -25.8845  -46.8068 H         1 UNK         0.0600 
    203 H203        0.5650  -25.2926  -48.3934 H         1 UNK         0.0600 
    204 H204        1.3042  -26.8817  -48.2315 H         1 UNK         0.0600 
    205 H205       -2.1818  -25.5368  -49.2652 H         1 UNK         0.3000 
    206 H206       -2.2570  -27.5784  -51.3915 H         1 UNK         0.0600 
    207 H207       -3.3425  -25.7040  -52.6582 H         1 UNK         0.0600 
    208 H208       -3.3016  -24.7141  -51.2011 H         1 UNK         0.0600 
    209 H209       -1.8010  -25.2164  -51.9711 H         1 UNK         0.0600 
    210 H210       -3.9139  -27.3754  -48.5957 H         1 UNK         0.3000 
    211 H211       -5.8353  -28.0423  -47.7570 H         1 UNK         0.0600 
    212 H212       -6.2104  -29.6267  -50.3533 H         1 UNK         0.0600 
    213 H213       -6.9765  -29.9603  -48.8059 H         1 UNK         0.0600 
    214 H214       -5.2401  -30.1499  -48.9770 H         1 UNK         0.0600 
    215 H215       -5.8631  -25.5468  -49.1746 H         1 UNK         0.3000 
    216 H216       -7.1016  -23.8750  -49.8014 H         1 UNK         0.0600 
    217 H217       -8.4882  -24.4608  -47.8001 H         1 UNK         0.0600 
    218 H218       -9.5587  -25.4190  -48.8232 H         1 UNK         0.0600 
    219 H219       -9.4362  -23.6816  -49.0545 H         1 UNK         0.0600 
    220 H220       -6.8690  -26.4059  -51.6696 H         1 UNK         0.3000 
    221 H221       -9.0208  -25.9312  -53.6040 H         1 UNK         0.0600 
    222 H222       -6.5183  -27.6930  -53.7613 H         1 UNK         0.0600 
    223 H223       -8.0966  -28.2199  -53.1774 H         1 UNK         0.0600 
    224 H224       -7.8941  -27.7374  -54.8552 H         1 UNK         0.0600 
    225 H225       -5.9166  -24.5708  -52.9336 H         1 UNK         0.3000 
    226 H226       -5.9463  -22.7720  -55.1457 H         1 UNK         0.0600 
    227 H227       -4.9454  -24.7985  -56.3055 H         1 UNK         0.0600 
    228 H228       -3.7646  -23.5169  -56.1486 H         1 UNK         0.0600 
    229 H229       -3.7091  -24.8946  -55.0556 H         1 UNK         0.0600 
    230 H230       -3.5898  -21.6613  -55.0128 H         1 UNK         0.3000 
    231 H231       -2.0997  -20.4323  -53.9701 H         1 UNK         0.0600 
    232 H232       -1.2269  -22.7401  -53.4319 H         1 UNK         0.0600 
    233 H233       -1.9992  -22.6305  -51.8515 H         1 UNK         0.0600 
    234 H234       -0.7098  -21.5170  -52.2873 H         1 UNK         0.0600 
    235 H235       -5.0147  -20.1839  -52.9606 H         1 UNK         0.3000 
    236 H236       -4.6299  -18.8067  -50.3811 H         1 UNK         0.0600 
    237 H237       -7.1024  -18.5785  -50.4838 H         1 UNK         0.0600 
    238 H238       -7.1222  -19.2331  -52.1176 H         1 UNK         0.0600 
    239 H239       -6.6317  -20.2477  -50.7614 H         1 UNK         0.0600 
    240 H240       -4.3745  -17.9860  -53.6684 H         1 UNK         0.3000 
    241 H241       -4.0708  -16.1387  -54.8165 H         1 UNK         0.0600 
    242 H242       -6.9760  -16.7567  -53.8082 H         1 UNK         0.3800 
    243 H243       -7.8072  -15.3013  -54.2901 H         1 UNK         0.3800 
    244 H244       -3.2869  -14.0336  -53.7568 H         1 UNK         0.0800 
    245 H245       -3.7386  -14.6188  -52.1858 H         1 UNK         0.0800 
    246 H246       -2.0621  -15.2501  -50.7069 H         1 UNK         0.0800 
    247 H247       -2.2055  -16.9567  -51.0514 H         1 UNK         0.0800 
@<TRIPOS>BOND
     1    1    2 1    
     2    1  127 1    
     3    1  128 1    
     4    1  129 1    
     5    2    3 2    
     6    2    4 am   BACKBONE|DICT|INTERRES
     7    4    5 1    
     8    4  130 1    
     9    5    6 1    
    10    5   65 1    
    11    5  131 1    
    12    6    7 1    
    13    6  132 1    
    14    6  133 1    
    15    7    8 1    
    16    8    9 1    
    17    8  134 1    
    18    8  135 1    
    19    9   10 ar   
    20    9   14 ar   
    21   10   11 ar   
    22   10  136 1    
    23   11   12 ar   
    24   11  126 1    
    25   12   13 ar   
    26   12  137 1    
    27   13   14 ar   
    28   13   15 1    
    29   14  138 1    
    30   15   16 1    
    31   15  139 1    
    32   15  140 1    
    33   16   17 1    
    34   17   18 1    
    35   17  141 1    
    36   17  142 1    
    37   18   19 1    
    38   18   67 1    
    39   18  143 1    
    40   19   20 am   BACKBONE|DICT|INTERRES
    41   19  144 1    
    42   20   21 2    
    43   20   22 1    
    44   22   23 1    
    45   22   24 1    
    46   22  145 1    
    47   23  146 1    
    48   23  147 1    
    49   23  148 1    
    50   24   25 am   BACKBONE|DICT|INTERRES
    51   24  149 1    
    52   25   26 2    
    53   25   27 1    
    54   27   28 1    
    55   27   29 1    
    56   27  150 1    
    57   28  151 1    
    58   28  152 1    
    59   28  153 1    
    60   29   30 am   BACKBONE|DICT|INTERRES
    61   29  154 1    
    62   30   31 2    
    63   30   32 1    
    64   32   33 1    
    65   32   34 1    
    66   32  155 1    
    67   33  156 1    
    68   33  157 1    
    69   33  158 1    
    70   34   35 am   BACKBONE|DICT|INTERRES
    71   34  159 1    
    72   35   36 2    
    73   35   37 1    
    74   37   38 1    
    75   37   39 1    
    76   37  160 1    
    77   38  161 1    
    78   38  162 1    
    79   38  163 1    
    80   39   40 am   BACKBONE|DICT|INTERRES
    81   39  164 1    
    82   40   41 2    
    83   40   42 1    
    84   42   43 1    
    85   42   44 1    
    86   42  165 1    
    87   43  166 1    
    88   43  167 1    
    89   43  168 1    
    90   44   45 am   BACKBONE|DICT|INTERRES
    91   44  169 1    
    92   45   46 2    
    93   45   47 1    
    94   47   48 1    
    95   47   49 1    
    96   47  170 1    
    97   48  171 1    
    98   48  172 1    
    99   48  173 1    
   100   49   50 am   BACKBONE|DICT|INTERRES
   101   49  174 1    
   102   50   51 2    
   103   50   52 1    
   104   52   53 1    
   105   52   54 1    
   106   52  175 1    
   107   53  176 1    
   108   53  177 1    
   109   53  178 1    
   110   54   55 am   BACKBONE|DICT|INTERRES
   111   54  179 1    
   112   55   56 2    
   113   55   57 1    
   114   57   58 1    
   115   57   59 1    
   116   57  180 1    
   117   58  181 1    
   118   58  182 1    
   119   58  183 1    
   120   59   60 am   BACKBONE|DICT|INTERRES
   121   59  184 1    
   122   60   61 2    
   123   60   62 1    
   124   62   63 1    
   125   62   64 1    
   126   62  185 1    
   127   63  186 1    
   128   63  187 1    
   129   63  188 1    
   130   64   65 am   BACKBONE|DICT|INTERRES
   131   64  189 1    
   132   65   66 2    
   133   67   68 2    
   134   67   69 am   BACKBONE|DICT|INTERRES
   135   69   70 1    
   136   69  190 1    
   137   70   71 1    
   138   70   72 1    
   139   70  191 1    
   140   71  192 1    
   141   71  193 1    
   142   71  194 1    
   143   72   73 2    
   144   72   74 am   BACKBONE|DICT|INTERRES
   145   74   75 1    
   146   74  195 1    
   147   75   76 1    
   148   75   77 1    
   149   75  196 1    
   150   76  197 1    
   151   76  198 1    
   152   76  199 1    
   153   77   78 2    
   154   77   79 am   BACKBONE|DICT|INTERRES
   155   79   80 1    
   156   79  200 1    
   157   80   81 1    
   158   80   82 1    
   159   80  201 1    
   160   81  202 1    
   161   81  203 1    
   162   81  204 1    
   163   82   83 2    
   164   82   84 am   BACKBONE|DICT|INTERRES
   165   84   85 1    
   166   84  205 1    
   167   85   86 1    
   168   85   87 1    
   169   85  206 1    
   170   86  207 1    
   171   86  208 1    
   172   86  209 1    
   173   87   88 2    
   174   87   89 am   BACKBONE|DICT|INTERRES
   175   89   90 1    
   176   89  210 1    
   177   90   91 1    
   178   90   92 1    
   179   90  211 1    
   180   91  212 1    
   181   91  213 1    
   182   91  214 1    
   183   92   93 2    
   184   92   94 am   BACKBONE|DICT|INTERRES
   185   94   95 1    
   186   94  215 1    
   187   95   96 1    
   188   95   97 1    
   189   95  216 1    
   190   96  217 1    
   191   96  218 1    
   192   96  219 1    
   193   97   98 2    
   194   97   99 am   BACKBONE|DICT|INTERRES
   195   99  100 1    
   196   99  220 1    
   197  100  101 1    
   198  100  102 1    
   199  100  221 1    
   200  101  222 1    
   201  101  223 1    
   202  101  224 1    
   203  102  103 2    
   204  102  104 am   BACKBONE|DICT|INTERRES
   205  104  105 1    
   206  104  225 1    
   207  105  106 1    
   208  105  107 1    
   209  105  226 1    
   210  106  227 1    
   211  106  228 1    
   212  106  229 1    
   213  107  108 2    
   214  107  109 am   BACKBONE|DICT|INTERRES
   215  109  110 1    
   216  109  230 1    
   217  110  111 1    
   218  110  112 1    
   219  110  231 1    
   220  111  232 1    
   221  111  233 1    
   222  111  234 1    
   223  112  113 2    
   224  112  114 am   BACKBONE|DICT|INTERRES
   225  114  115 1    
   226  114  235 1    
   227  115  116 1    
   228  115  117 1    
   229  115  236 1    
   230  116  237 1    
   231  116  238 1    
   232  116  239 1    
   233  117  118 2    
   234  117  119 am   BACKBONE|DICT|INTERRES
   235  119  120 1    
   236  119  240 1    
   237  120  121 1    
   238  120  124 1    
   239  120  241 1    
   240  121  122 am   BACKBONE|DICT|INTERRES
   241  121  123 2    
   242  122  242 1    
   243  122  243 1    
   244  124  125 1    
   245  124  244 1    
   246  124  245 1    
   247  125  126 1    
   248  126  246 1    
   249  126  247 1    
@<TRIPOS>SUBSTRUCTURE
     1 UNK         1 GROUP             0       ****    0 ROOT    
