@<TRIPOS>MOLECULE
3R540
247   249    1
SMALL
USER_CHARGES


@<TRIPOS>ATOM
      1 CA         -1.9030   -9.9322  -47.5520 C.3       0 UNK        -0.1800 
      2 C          -1.3831  -11.2888  -47.1005 C.2       0 UNK         0.5000 
      3 O          -0.5022  -11.3548  -46.2449 O.2       0 UNK        -0.5000 
      4 N          -1.9365  -12.3749  -47.6556 N.am      1 UNK        -0.5000 
      5 CA         -1.5312  -13.7658  -47.3953 C.3       1 UNK         0.1400 
      6 C6         -2.2045  -14.7706  -48.3668 C.3       23 UNK        -0.0398 
      7 S7         -2.2110  -14.2506  -50.1197 S.3       23 UNK        -0.2404 
      8 C8         -0.4987  -14.5677  -50.6465 C.3       23 UNK        -0.0205 
      9 C9         -0.1027  -16.0340  -50.5492 C.ar      23 UNK        -0.0193 
     10 C10        -0.7396  -17.0003  -51.3349 C.ar      23 UNK        -0.1150 
     11 C11        -0.3463  -18.3402  -51.2640 C.ar      23 UNK        -0.0193 
     12 C12         0.7002  -18.7066  -50.4141 C.ar      23 UNK        -0.1150 
     13 C13         1.3437  -17.7511  -49.6211 C.ar      23 UNK        -0.0193 
     14 C14         0.9317  -16.4180  -49.6922 C.ar      23 UNK        -0.1150 
     15 C15         2.5070  -18.1215  -48.7065 C.3       23 UNK        -0.0205 
     16 S16         2.3439  -19.7339  -47.8678 S.3       23 UNK        -0.2404 
     17 C17         0.7325  -19.5935  -47.0152 C.3       23 UNK        -0.0398 
     18 CA         -0.1516  -20.8334  -47.2896 C.3       11 UNK         0.1400 
     19 N           0.5011  -22.0716  -46.8566 N.am      11 UNK        -0.5000 
     20 C           0.1214  -23.3087  -47.1944 C.2       10 UNK         0.5000 
     21 O          -0.8449  -23.5550  -47.9146 O.2       10 UNK        -0.5000 
     22 CA          0.9476  -24.4622  -46.5963 C.3       10 UNK         0.1400 
     23 CB          2.1898  -24.7366  -47.4568 C.3       10 UNK        -0.1800 
     24 N           1.3616  -24.2032  -45.2145 N.am      10 UNK        -0.5000 
     25 C           0.5161  -24.1526  -44.1758 C.2       9 UNK         0.5000 
     26 O          -0.6970  -24.3330  -44.2744 O.2       9 UNK        -0.5000 
     27 CA          1.1185  -23.7880  -42.8048 C.3       9 UNK         0.1400 
     28 CB          1.7798  -25.0155  -42.1599 C.3       9 UNK        -0.1800 
     29 N           2.0780  -22.6771  -42.8393 N.am      9 UNK        -0.5000 
     30 C           1.8149  -21.4555  -43.3217 C.2       8 UNK         0.5000 
     31 O           0.7615  -21.1652  -43.8923 O.2       8 UNK        -0.5000 
     32 CA          2.9178  -20.3897  -43.1693 C.3       8 UNK         0.1400 
     33 CB          4.0180  -20.5989  -44.2207 C.3       8 UNK        -0.1800 
     34 N           2.3636  -19.0467  -43.3360 N.am      8 UNK        -0.5000 
     35 C           1.5473  -18.4346  -42.4714 C.2       7 UNK         0.5000 
     36 O           1.3636  -18.8333  -41.3192 O.2       7 UNK        -0.5000 
     37 CA          0.7928  -17.1933  -42.9997 C.3       7 UNK         0.1400 
     38 CB         -0.1388  -16.5721  -41.9435 C.3       7 UNK        -0.1800 
     39 N           1.6623  -16.1415  -43.5295 N.am      7 UNK        -0.5000 
     40 C           2.3410  -16.1760  -44.6829 C.2       6 UNK         0.5000 
     41 O           2.3913  -17.1674  -45.4084 O.2       6 UNK        -0.5000 
     42 CA          3.0907  -14.9021  -45.1061 C.3       6 UNK         0.1400 
     43 CB          2.1801  -14.0133  -45.9679 C.3       6 UNK        -0.1800 
     44 N           3.5577  -14.1259  -43.9572 N.am      6 UNK        -0.5000 
     45 C           4.8249  -14.0799  -43.5251 C.2       5 UNK         0.5000 
     46 O           5.7448  -14.7174  -44.0395 O.2       5 UNK        -0.5000 
     47 CA          5.1362  -13.1513  -42.3325 C.3       5 UNK         0.1400 
     48 CB          5.7164  -11.8190  -42.8325 C.3       5 UNK        -0.1800 
     49 N           3.9713  -12.8690  -41.4932 N.am      5 UNK        -0.5000 
     50 C           3.4418  -13.7291  -40.6136 C.2       4 UNK         0.5000 
     51 O           3.9190  -14.8378  -40.3710 O.2       4 UNK        -0.5000 
     52 CA          2.1466  -13.2881  -39.8994 C.3       4 UNK         0.1400 
     53 CB          2.4758  -12.6597  -38.5367 C.3       4 UNK        -0.1800 
     54 N           1.2937  -12.3623  -40.6587 N.am      4 UNK        -0.5000 
     55 C           0.7883  -12.6021  -41.8754 C.2       3 UNK         0.5000 
     56 O           1.1049  -13.5739  -42.5613 O.2       3 UNK        -0.5000 
     57 CA         -0.2038  -11.5722  -42.4423 C.3       3 UNK         0.1400 
     58 CB          0.5468  -10.5126  -43.2621 C.3       3 UNK        -0.1800 
     59 N          -1.2111  -12.2175  -43.2895 N.am      3 UNK        -0.5000 
     60 C          -2.1422  -13.0706  -42.8325 C.2       2 UNK         0.5000 
     61 O          -2.2971  -13.3185  -41.6355 O.2       2 UNK        -0.5000 
     62 CA         -3.0748  -13.7556  -43.8529 C.3       2 UNK         0.1400 
     63 CB         -4.5254  -13.2838  -43.6595 C.3       2 UNK        -0.1800 
     64 N          -2.6977  -13.5210  -45.2452 N.am      2 UNK        -0.5000 
     65 C          -1.7758  -14.2090  -45.9328 C.2       1 UNK         0.5000 
     66 O          -1.1418  -15.1554  -45.4682 O.2       1 UNK        -0.5000 
     67 C          -1.5424  -20.6910  -46.6428 C.2       11 UNK         0.5000 
     68 O          -2.5039  -20.3427  -47.3287 O.2       11 UNK        -0.5000 
     69 N          -1.6316  -21.0209  -45.3474 N.am      12 UNK        -0.5000 
     70 CA         -2.8698  -21.0834  -44.5752 C.3       12 UNK         0.1400 
     71 CB         -2.5302  -21.2585  -43.0875 C.3       12 UNK        -0.1800 
     72 C          -3.8141  -22.1988  -45.0602 C.2       12 UNK         0.5000 
     73 O          -5.0223  -21.9737  -45.1250 O.2       12 UNK        -0.5000 
     74 N          -3.2522  -23.3633  -45.4196 N.am      13 UNK        -0.5000 
     75 CA         -3.9845  -24.4938  -45.9951 C.3       13 UNK         0.1400 
     76 CB         -3.0874  -25.7403  -46.0234 C.3       13 UNK        -0.1800 
     77 C          -4.5402  -24.1900  -47.3983 C.2       13 UNK         0.5000 
     78 O          -5.6780  -24.5609  -47.6893 O.2       13 UNK        -0.5000 
     79 N          -3.7439  -23.5029  -48.2313 N.am      14 UNK        -0.5000 
     80 CA         -4.1563  -23.0153  -49.5491 C.3       14 UNK         0.1400 
     81 CB         -2.9216  -22.5425  -50.3330 C.3       14 UNK        -0.1800 
     82 C          -5.2027  -21.8875  -49.4674 C.2       14 UNK         0.5000 
     83 O          -6.0400  -21.7664  -50.3631 O.2       14 UNK        -0.5000 
     84 N          -5.1208  -21.0790  -48.3990 N.am      15 UNK        -0.5000 
     85 CA         -6.0045  -19.9618  -48.0500 C.3       15 UNK         0.1400 
     86 CB         -7.3928  -20.4903  -47.6355 C.3       15 UNK        -0.1800 
     87 C          -6.0778  -18.8933  -49.1596 C.2       15 UNK         0.5000 
     88 O          -7.1417  -18.3200  -49.4001 O.2       15 UNK        -0.5000 
     89 N          -4.9478  -18.6969  -49.8554 N.am      16 UNK        -0.5000 
     90 CA         -4.7263  -17.8816  -51.0565 C.3       16 UNK         0.1400 
     91 CB         -5.0701  -16.4029  -50.8003 C.3       16 UNK        -0.1800 
     92 C          -5.4428  -18.3965  -52.3243 C.2       16 UNK         0.5000 
     93 O          -4.8533  -18.3610  -53.4043 O.2       16 UNK        -0.5000 
     94 N          -6.6976  -18.8364  -52.1791 N.am      17 UNK        -0.5000 
     95 CA         -7.6115  -19.1975  -53.2592 C.3       17 UNK         0.1400 
     96 CB         -9.0336  -19.3050  -52.6877 C.3       17 UNK        -0.1800 
     97 C          -7.2412  -20.4856  -54.0142 C.2       17 UNK         0.5000 
     98 O          -7.4422  -20.5401  -55.2292 O.2       17 UNK        -0.5000 
     99 N          -6.7394  -21.5068  -53.3050 N.am      18 UNK        -0.5000 
    100 CA        -6.4070  -22.8053  -53.8909 C.3       18 UNK         0.1400 
    101 CB        -6.4927  -23.9029  -52.8189 C.3       18 UNK        -0.1800 
    102 C         -5.0260  -22.7594  -54.5637 C.2       18 UNK         0.5000 
    103 O         -4.0189  -23.0959  -53.9380 O.2       18 UNK        -0.5000 
    104 N         -5.0023  -22.3528  -55.8391 N.am      19 UNK        -0.5000 
    105 CA        -3.8015  -22.2481  -56.6742 C.3       19 UNK         0.1400 
    106 CB        -4.1916  -21.6975  -58.0533 C.3       19 UNK        -0.1800 
    107 C         -3.0255  -23.5727  -56.8210 C.2       19 UNK         0.5000 
    108 O         -1.7969  -23.5511  -56.8948 O.2       19 UNK        -0.5000 
    109 N         -3.7513  -24.6998  -56.8123 N.am      20 UNK        -0.5000 
    110 CA        -3.1958  -26.0542  -56.8447 C.3       20 UNK         0.1400 
    111 CB        -4.3338  -27.0558  -57.0935 C.3       20 UNK        -0.1800 
    112 C         -2.4182  -26.4281  -55.5667 C.2       20 UNK         0.5000 
    113 O         -1.4640  -27.2023  -55.6486 O.2       20 UNK        -0.5000 
    114 N         -2.8284  -25.8710  -54.4184 N.am      21 UNK        -0.5000 
    115 CA        -2.1288  -26.0115  -53.1408 C.3       21 UNK         0.1400 
    116 CB        -3.1340  -25.8688  -51.9883 C.3       21 UNK        -0.1800 
    117 C         -0.9936  -24.9805  -53.0128 C.2       21 UNK         0.5000 
    118 O          0.0615  -25.3068  -52.4683 O.2       21 UNK        -0.5000 
    119 N         -1.2295  -23.7661  -53.5284 N.am      22 UNK        -0.5000 
    120 CA        -0.2505  -22.6744  -53.6197 C.3       22 UNK         0.1400 
    121 C          0.9851  -23.0206  -54.5005 C.2       22 UNK         0.5000 
    122 N          0.7908  -23.5720  -55.6924 N.am      22 UNK        -0.7600 
    123 O          2.1237  -22.8005  -54.0970 O.2       22 UNK        -0.5000 
    124 C124       -0.9294  -21.3604  -54.0869 C.3       23 UNK        -0.0398 
    125 S125       -0.0341  -19.8728  -53.5345 S.3       23 UNK        -0.2404 
    126 C126       -1.0408  -19.4023  -52.0986 C.3       23 UNK        -0.0205 
    127 H127       -1.0915   -9.3449  -47.9815 H         1 UNK         0.0600 
    128 H128       -2.6882  -10.0281  -48.3022 H         1 UNK         0.0600 
    129 H129       -2.3086   -9.3845  -46.7014 H         1 UNK         0.0600 
    130 H130       -2.6470  -12.2611  -48.3652 H         1 UNK         0.3000 
    131 H131       -0.4539  -13.8162  -47.5628 H         1 UNK         0.0600 
    132 H132       -1.7335  -15.7520  -48.2871 H         1 UNK         0.0800 
    133 H133       -3.2483  -14.9207  -48.0851 H         1 UNK         0.0800 
    134 H134        0.1733  -13.9401  -50.0592 H         1 UNK         0.0800 
    135 H135       -0.3873  -14.2435  -51.6820 H         1 UNK         0.0800 
    136 H136       -1.5377  -16.7054  -52.0017 H         1 UNK         0.1150 
    137 H137        1.0163  -19.7396  -50.3790 H         1 UNK         0.1150 
    138 H138        1.4323  -15.6722  -49.0909 H         1 UNK         0.1150 
    139 H139        2.6492  -17.3516  -47.9485 H         1 UNK         0.0800 
    140 H140        3.4206  -18.1339  -49.3016 H         1 UNK         0.0800 
    141 H141        0.2229  -18.6822  -47.3312 H         1 UNK         0.0800 
    142 H142        0.9199  -19.4756  -45.9476 H         1 UNK         0.0800 
    143 H143       -0.3078  -20.9018  -48.3686 H         1 UNK         0.0600 
    144 H144        1.2801  -21.9625  -46.2252 H         1 UNK         0.3000 
    145 H145        0.3234  -25.3581  -46.6042 H         1 UNK         0.0600 
    146 H146        1.9089  -24.9507  -48.4890 H         1 UNK         0.0600 
    147 H147        2.7437  -25.5993  -47.0862 H         1 UNK         0.0600 
    148 H148        2.8678  -23.8822  -47.4719 H         1 UNK         0.0600 
    149 H149        2.3430  -24.0339  -45.0502 H         1 UNK         0.3000 
    150 H150        0.2909  -23.4768  -42.1640 H         1 UNK         0.0600 
    151 H151        2.6516  -25.3478  -42.7247 H         1 UNK         0.0600 
    152 H152        1.0828  -25.8531  -42.1086 H         1 UNK         0.0600 
    153 H153        2.1015  -24.8006  -41.1407 H         1 UNK         0.0600 
    154 H154        2.9724  -22.8461  -42.4020 H         1 UNK         0.3000 
    155 H155        3.3528  -20.4715  -42.1713 H         1 UNK         0.0600 
    156 H156        3.6215  -20.5404  -45.2347 H         1 UNK         0.0600 
    157 H157        4.4916  -21.5749  -44.1087 H         1 UNK         0.0600 
    158 H158        4.8011  -19.8464  -44.1257 H         1 UNK         0.0600 
    159 H159        2.4578  -18.6223  -44.2552 H         1 UNK         0.3000 
    160 H160        0.1611  -17.5431  -43.8193 H         1 UNK         0.0600 
    161 H161        0.4234  -16.1650  -41.1023 H         1 UNK         0.0600 
    162 H162       -0.8397  -17.3096  -41.5508 H         1 UNK         0.0600 
    163 H163       -0.7304  -15.7638  -42.3728 H         1 UNK         0.0600 
    164 H164        1.6202  -15.2535  -43.0369 H         1 UNK         0.3000 
    165 H165        3.9357  -15.2113  -45.7248 H         1 UNK         0.0600 
    166 H166        1.3194  -13.6513  -45.4038 H         1 UNK         0.0600 
    167 H167        2.7192  -13.1448  -46.3463 H         1 UNK         0.0600 
    168 H168        1.8014  -14.5636  -46.8297 H         1 UNK         0.0600 
    169 H169        2.8412  -13.6312  -43.4366 H         1 UNK         0.3000 
    170 H170        5.8953  -13.6438  -41.7209 H         1 UNK         0.0600 
    171 H171        6.0065  -11.1776  -42.0002 H         1 UNK         0.0600 
    172 H172        4.9984  -11.2721  -43.4451 H         1 UNK         0.0600 
    173 H173        6.6075  -11.9838  -43.4397 H         1 UNK         0.0600 
    174 H174        3.5158  -11.9783  -41.6269 H         1 UNK         0.3000 
    175 H175        1.5595  -14.1916  -39.7223 H         1 UNK         0.0600 
    176 H176        3.0870  -13.3316  -37.9325 H         1 UNK         0.0600 
    177 H177        3.0273  -11.7253  -38.6483 H         1 UNK         0.0600 
    178 H178        1.5693  -12.4502  -37.9683 H         1 UNK         0.0600 
    179 H179        1.0061  -11.5259  -40.1712 H         1 UNK         0.3000 
    180 H180       -0.7172  -11.0789  -41.6145 H         1 UNK         0.0600 
    181 H181        1.1115  -10.9635  -44.0795 H         1 UNK         0.0600 
    182 H182        1.2541   -9.9636  -42.6394 H         1 UNK         0.0600 
    183 H183       -0.1411   -9.7847  -43.6926 H         1 UNK         0.0600 
    184 H184       -1.1081  -12.0872  -44.2887 H         1 UNK         0.3000 
    185 H185       -3.0374  -14.8287  -43.6534 H         1 UNK         0.0600 
    186 H186       -4.8711  -13.4816  -42.6440 H         1 UNK         0.0600 
    187 H187       -4.6272  -12.2126  -43.8380 H         1 UNK         0.0600 
    188 H188       -5.2030  -13.8038  -44.3370 H         1 UNK         0.0600 
    189 H189       -3.1587  -12.7539  -45.7126 H         1 UNK         0.3000 
    190 H190       -0.7751  -21.2520  -44.8465 H         1 UNK         0.3000 
    191 H191       -3.3887  -20.1304  -44.6972 H         1 UNK         0.0600 
    192 H192       -1.9144  -20.4351  -42.7247 H         1 UNK         0.0600 
    193 H193       -3.4354  -21.2825  -42.4795 H         1 UNK         0.0600 
    194 H194       -1.9858  -22.1859  -42.9058 H         1 UNK         0.0600 
    195 H195       -2.2582  -23.4975  -45.2663 H         1 UNK         0.3000 
    196 H196       -4.8340  -24.7073  -45.3429 H         1 UNK         0.0600 
    197 H197       -3.6208  -26.5961  -46.4390 H         1 UNK         0.0600 
    198 H198       -2.7647  -26.0161  -45.0195 H         1 UNK         0.0600 
    199 H199       -2.1963  -25.5830  -46.6308 H         1 UNK         0.0600 
    200 H200       -2.7868  -23.3095  -47.9508 H         1 UNK         0.3000 
    201 H201       -4.6071  -23.8521  -50.0829 H         1 UNK         0.0600 
    202 H202       -3.1975  -22.2077  -51.3340 H         1 UNK         0.0600 
    203 H203       -2.1944  -23.3462  -50.4488 H         1 UNK         0.0600 
    204 H204       -2.4219  -21.7136  -49.8310 H         1 UNK         0.0600 
    205 H205       -4.3342  -21.2133  -47.7737 H         1 UNK         0.3000 
    206 H206       -5.5578  -19.4759  -47.1814 H         1 UNK         0.0600 
    207 H207       -7.3078  -21.2387  -46.8474 H         1 UNK         0.0600 
    208 H208       -8.0209  -19.6856  -47.2518 H         1 UNK         0.0600 
    209 H209       -7.9187  -20.9462  -48.4750 H         1 UNK         0.0600 
    210 H210       -4.1516  -19.2478  -49.5655 H         1 UNK         0.3000 
    211 H211       -3.6555  -17.9347  -51.2491 H         1 UNK         0.0600 
    212 H212       -4.7107  -15.7752  -51.6165 H         1 UNK         0.0600 
    213 H213       -4.6063  -16.0446  -49.8825 H         1 UNK         0.0600 
    214 H214       -6.1447  -16.2398  -50.7147 H         1 UNK         0.0600 
    215 H215       -7.0875  -18.8074  -51.2415 H         1 UNK         0.3000 
    216 H216       -7.6017  -18.3817  -53.9851 H         1 UNK         0.0600 
    217 H217       -9.3513  -18.3628  -52.2406 H         1 UNK         0.0600 
    218 H218       -9.1000  -20.0785  -51.9212 H         1 UNK         0.0600 
    219 H219       -9.7532  -19.5525  -53.4692 H         1 UNK         0.0600 
    220 H220       -6.5668  -21.3965  -52.3101 H         1 UNK         0.3000 
    221 H221       -7.1480  -23.0542  -54.6539 H         1 UNK         0.0600 
    222 H222       -5.7588  -23.7538  -52.0312 H         1 UNK         0.0600 
    223 H223       -7.4793  -23.9285  -52.3563 H         1 UNK         0.0600 
    224 H224       -6.3080  -24.8864  -53.2525 H         1 UNK         0.0600 
    225 H225       -5.8697  -22.0378  -56.2535 H         1 UNK         0.3000 
    226 H226       -3.1367  -21.5265  -56.1978 H         1 UNK         0.0600 
    227 H227       -4.6601  -20.7167  -57.9681 H         1 UNK         0.0600 
    228 H228       -3.3139  -21.5827  -58.6909 H         1 UNK         0.0600 
    229 H229       -4.8885  -22.3594  -58.5690 H         1 UNK         0.0600 
    230 H230       -4.7558  -24.6213  -56.7540 H         1 UNK         0.3000 
    231 H231       -2.4990  -26.1129  -57.6835 H         1 UNK         0.0600 
    232 H232       -5.0773  -27.0273  -56.2959 H         1 UNK         0.0600 
    233 H233       -3.9510  -28.0757  -57.1490 H         1 UNK         0.0600 
    234 H234       -4.8424  -26.8496  -58.0355 H         1 UNK         0.0600 
    235 H235       -3.5884  -25.2050  -54.4432 H         1 UNK         0.3000 
    236 H236       -1.6865  -27.0080  -53.0764 H         1 UNK         0.0600 
    237 H237       -3.9045  -26.6381  -52.0390 H         1 UNK         0.0600 
    238 H238       -2.6386  -25.9648  -51.0212 H         1 UNK         0.0600 
    239 H239       -3.6285  -24.8993  -52.0085 H         1 UNK         0.0600 
    240 H240       -2.1569  -23.5727  -53.8919 H         1 UNK         0.3000 
    241 H241        0.1139  -22.5206  -52.6017 H         1 UNK         0.0600 
    242 H242       -0.1488  -23.6965  -56.0633 H         1 UNK         0.3800 
    243 H243        1.5854  -23.8070  -56.2649 H         1 UNK         0.3800 
    244 H244       -1.9514  -21.3029  -53.7091 H         1 UNK         0.0800 
    245 H245       -1.0173  -21.3295  -55.1736 H         1 UNK         0.0800 
    246 H246       -2.0122  -19.0520  -52.4485 H         1 UNK         0.0800 
    247 H247       -1.2274  -20.2802  -51.4789 H         1 UNK         0.0800 
@<TRIPOS>BOND
     1    1    2 1    
     2    1  127 1    
     3    1  128 1    
     4    1  129 1    
     5    2    3 2    
     6    2    4 am   BACKBONE|DICT|INTERRES
     7    4    5 1    
     8    4  130 1    
     9    5    6 1    
    10    5   65 1    
    11    5  131 1    
    12    6    7 1    
    13    6  132 1    
    14    6  133 1    
    15    7    8 1    
    16    8    9 1    
    17    8  134 1    
    18    8  135 1    
    19    9   10 ar   
    20    9   14 ar   
    21   10   11 ar   
    22   10  136 1    
    23   11   12 ar   
    24   11  126 1    
    25   12   13 ar   
    26   12  137 1    
    27   13   14 ar   
    28   13   15 1    
    29   14  138 1    
    30   15   16 1    
    31   15  139 1    
    32   15  140 1    
    33   16   17 1    
    34   17   18 1    
    35   17  141 1    
    36   17  142 1    
    37   18   19 1    
    38   18   67 1    
    39   18  143 1    
    40   19   20 am   BACKBONE|DICT|INTERRES
    41   19  144 1    
    42   20   21 2    
    43   20   22 1    
    44   22   23 1    
    45   22   24 1    
    46   22  145 1    
    47   23  146 1    
    48   23  147 1    
    49   23  148 1    
    50   24   25 am   BACKBONE|DICT|INTERRES
    51   24  149 1    
    52   25   26 2    
    53   25   27 1    
    54   27   28 1    
    55   27   29 1    
    56   27  150 1    
    57   28  151 1    
    58   28  152 1    
    59   28  153 1    
    60   29   30 am   BACKBONE|DICT|INTERRES
    61   29  154 1    
    62   30   31 2    
    63   30   32 1    
    64   32   33 1    
    65   32   34 1    
    66   32  155 1    
    67   33  156 1    
    68   33  157 1    
    69   33  158 1    
    70   34   35 am   BACKBONE|DICT|INTERRES
    71   34  159 1    
    72   35   36 2    
    73   35   37 1    
    74   37   38 1    
    75   37   39 1    
    76   37  160 1    
    77   38  161 1    
    78   38  162 1    
    79   38  163 1    
    80   39   40 am   BACKBONE|DICT|INTERRES
    81   39  164 1    
    82   40   41 2    
    83   40   42 1    
    84   42   43 1    
    85   42   44 1    
    86   42  165 1    
    87   43  166 1    
    88   43  167 1    
    89   43  168 1    
    90   44   45 am   BACKBONE|DICT|INTERRES
    91   44  169 1    
    92   45   46 2    
    93   45   47 1    
    94   47   48 1    
    95   47   49 1    
    96   47  170 1    
    97   48  171 1    
    98   48  172 1    
    99   48  173 1    
   100   49   50 am   BACKBONE|DICT|INTERRES
   101   49  174 1    
   102   50   51 2    
   103   50   52 1    
   104   52   53 1    
   105   52   54 1    
   106   52  175 1    
   107   53  176 1    
   108   53  177 1    
   109   53  178 1    
   110   54   55 am   BACKBONE|DICT|INTERRES
   111   54  179 1    
   112   55   56 2    
   113   55   57 1    
   114   57   58 1    
   115   57   59 1    
   116   57  180 1    
   117   58  181 1    
   118   58  182 1    
   119   58  183 1    
   120   59   60 am   BACKBONE|DICT|INTERRES
   121   59  184 1    
   122   60   61 2    
   123   60   62 1    
   124   62   63 1    
   125   62   64 1    
   126   62  185 1    
   127   63  186 1    
   128   63  187 1    
   129   63  188 1    
   130   64   65 am   BACKBONE|DICT|INTERRES
   131   64  189 1    
   132   65   66 2    
   133   67   68 2    
   134   67   69 am   BACKBONE|DICT|INTERRES
   135   69   70 1    
   136   69  190 1    
   137   70   71 1    
   138   70   72 1    
   139   70  191 1    
   140   71  192 1    
   141   71  193 1    
   142   71  194 1    
   143   72   73 2    
   144   72   74 am   BACKBONE|DICT|INTERRES
   145   74   75 1    
   146   74  195 1    
   147   75   76 1    
   148   75   77 1    
   149   75  196 1    
   150   76  197 1    
   151   76  198 1    
   152   76  199 1    
   153   77   78 2    
   154   77   79 am   BACKBONE|DICT|INTERRES
   155   79   80 1    
   156   79  200 1    
   157   80   81 1    
   158   80   82 1    
   159   80  201 1    
   160   81  202 1    
   161   81  203 1    
   162   81  204 1    
   163   82   83 2    
   164   82   84 am   BACKBONE|DICT|INTERRES
   165   84   85 1    
   166   84  205 1    
   167   85   86 1    
   168   85   87 1    
   169   85  206 1    
   170   86  207 1    
   171   86  208 1    
   172   86  209 1    
   173   87   88 2    
   174   87   89 am   BACKBONE|DICT|INTERRES
   175   89   90 1    
   176   89  210 1    
   177   90   91 1    
   178   90   92 1    
   179   90  211 1    
   180   91  212 1    
   181   91  213 1    
   182   91  214 1    
   183   92   93 2    
   184   92   94 am   BACKBONE|DICT|INTERRES
   185   94   95 1    
   186   94  215 1    
   187   95   96 1    
   188   95   97 1    
   189   95  216 1    
   190   96  217 1    
   191   96  218 1    
   192   96  219 1    
   193   97   98 2    
   194   97   99 am   BACKBONE|DICT|INTERRES
   195   99  100 1    
   196   99  220 1    
   197  100  101 1    
   198  100  102 1    
   199  100  221 1    
   200  101  222 1    
   201  101  223 1    
   202  101  224 1    
   203  102  103 2    
   204  102  104 am   BACKBONE|DICT|INTERRES
   205  104  105 1    
   206  104  225 1    
   207  105  106 1    
   208  105  107 1    
   209  105  226 1    
   210  106  227 1    
   211  106  228 1    
   212  106  229 1    
   213  107  108 2    
   214  107  109 am   BACKBONE|DICT|INTERRES
   215  109  110 1    
   216  109  230 1    
   217  110  111 1    
   218  110  112 1    
   219  110  231 1    
   220  111  232 1    
   221  111  233 1    
   222  111  234 1    
   223  112  113 2    
   224  112  114 am   BACKBONE|DICT|INTERRES
   225  114  115 1    
   226  114  235 1    
   227  115  116 1    
   228  115  117 1    
   229  115  236 1    
   230  116  237 1    
   231  116  238 1    
   232  116  239 1    
   233  117  118 2    
   234  117  119 am   BACKBONE|DICT|INTERRES
   235  119  120 1    
   236  119  240 1    
   237  120  121 1    
   238  120  124 1    
   239  120  241 1    
   240  121  122 am   BACKBONE|DICT|INTERRES
   241  121  123 2    
   242  122  242 1    
   243  122  243 1    
   244  124  125 1    
   245  124  244 1    
   246  124  245 1    
   247  125  126 1    
   248  126  246 1    
   249  126  247 1    
@<TRIPOS>SUBSTRUCTURE
     1 UNK         1 GROUP             0       ****    0 ROOT    
