@<TRIPOS>MOLECULE
3R540
247   249    1
SMALL
USER_CHARGES


@<TRIPOS>ATOM
      1 CA         -4.7370  -17.5890  -44.5693 C.3       0 UNK        -0.1800 
      2 C          -4.3919  -17.3389  -46.0308 C.2       0 UNK         0.5000 
      3 O          -4.7469  -18.1429  -46.8912 O.2       0 UNK        -0.5000 
      4 N          -3.7164  -16.2184  -46.3063 N.am      1 UNK        -0.5000 
      5 CA         -3.2944  -15.7849  -47.6387 C.3       1 UNK         0.1400 
      6 C6         -1.8656  -16.2925  -47.9681 C.3       23 UNK        -0.0398 
      7 S7         -0.5476  -15.4397  -47.0305 S.3       23 UNK        -0.2404 
      8 C8          0.6212  -15.0331  -48.3695 C.3       23 UNK        -0.0205 
      9 C9          1.3393  -16.2275  -48.9938 C.ar      23 UNK        -0.0193 
     10 C10         1.8017  -16.1172  -50.3088 C.ar      23 UNK        -0.1150 
     11 C11         2.5076  -17.1632  -50.9089 C.ar      23 UNK        -0.0193 
     12 C12         2.7495  -18.3318  -50.1847 C.ar      23 UNK        -0.1150 
     13 C13         2.2935  -18.4602  -48.8711 C.ar      23 UNK        -0.0193 
     14 C14         1.5961  -17.4047  -48.2783 C.ar      23 UNK        -0.1150 
     15 C15         2.5924  -19.7261  -48.0862 C.3       23 UNK        -0.0205 
     16 S16         1.7043  -21.1675  -48.7420 S.3       23 UNK        -0.2404 
     17 C17         0.0092  -20.9244  -48.1119 C.3       23 UNK        -0.0398 
     18 CA         -0.4822  -22.2081  -47.4035 C.3       11 UNK         0.1400 
     19 N           0.1056  -22.3710  -46.0703 N.am      11 UNK        -0.5000 
     20 C           0.1432  -23.5375  -45.4130 C.2       10 UNK         0.5000 
     21 O          -0.2942  -24.5931  -45.8708 O.2       10 UNK        -0.5000 
     22 CA          0.7219  -23.5087  -43.9899 C.3       10 UNK         0.1400 
     23 CB          2.2579  -23.5399  -44.0184 C.3       10 UNK        -0.1800 
     24 N           0.2603  -22.3376  -43.2444 N.am      10 UNK        -0.5000 
     25 C          -0.9818  -22.1984  -42.7612 C.2       9 UNK         0.5000 
     26 O          -1.8590  -23.0508  -42.8895 O.2       9 UNK        -0.5000 
     27 CA         -1.3151  -20.8782  -42.0413 C.3       9 UNK         0.1400 
     28 CB         -0.9284  -20.9613  -40.5575 C.3       9 UNK        -0.1800 
     29 N          -0.6733  -19.7089  -42.6417 N.am      9 UNK        -0.5000 
     30 C          -0.9255  -19.2556  -43.8768 C.2       8 UNK         0.5000 
     31 O          -1.7204  -19.7822  -44.6526 O.2       8 UNK        -0.5000 
     32 CA         -0.1136  -18.0352  -44.3419 C.3       8 UNK         0.1400 
     33 CB         -0.7229  -16.7566  -43.7464 C.3       8 UNK        -0.1800 
     34 N           1.3180  -18.0851  -44.0193 N.am      8 UNK        -0.5000 
     35 C           2.1472  -19.1272  -44.1961 C.2       7 UNK         0.5000 
     36 O           1.7779  -20.2169  -44.6357 O.2       7 UNK        -0.5000 
     37 CA          3.6383  -18.9417  -43.8413 C.3       7 UNK         0.1400 
     38 CB          4.5371  -19.3136  -45.0323 C.3       7 UNK        -0.1800 
     39 N           3.9863  -17.5874  -43.4118 N.am      7 UNK        -0.5000 
     40 C           3.7570  -17.0592  -42.2024 C.2       6 UNK         0.5000 
     41 O           3.2229  -17.6741  -41.2796 O.2       6 UNK        -0.5000 
     42 CA          4.1759  -15.5872  -42.0028 C.3       6 UNK         0.1400 
     43 CB          5.5066  -15.5066  -41.2392 C.3       6 UNK        -0.1800 
     44 N           4.3018  -14.8401  -43.2610 N.am      6 UNK        -0.5000 
     45 C           3.2723  -14.5125  -44.0518 C.2       5 UNK         0.5000 
     46 O           2.0989  -14.7957  -43.7971 O.2       5 UNK        -0.5000 
     47 CA          3.6141  -13.7951  -45.3640 C.3       5 UNK         0.1400 
     48 CB          4.0059  -14.8095  -46.4522 C.3       5 UNK        -0.1800 
     49 N           2.4341  -13.0560  -45.7897 N.am      5 UNK        -0.5000 
     50 C           2.4215  -11.8672  -46.4020 C.2       4 UNK         0.5000 
     51 O           3.4388  -11.2847  -46.7797 O.2       4 UNK        -0.5000 
     52 CA          1.0439  -11.2038  -46.6195 C.3       4 UNK         0.1400 
     53 CB          0.6563  -11.1892  -48.1066 C.3       4 UNK        -0.1800 
     54 N          -0.0340  -11.8332  -45.8486 N.am      4 UNK        -0.5000 
     55 C          -0.2124  -11.6679  -44.5300 C.2       3 UNK         0.5000 
     56 O           0.4985  -10.9374  -43.8382 O.2       3 UNK        -0.5000 
     57 CA         -1.3793  -12.4399  -43.8917 C.3       3 UNK         0.1400 
     58 CB         -1.8350  -11.8400  -42.5458 C.3       3 UNK        -0.1800 
     59 N          -2.5125  -12.5278  -44.8145 N.am      3 UNK        -0.5000 
     60 C          -3.4360  -13.4934  -44.7783 C.2       2 UNK         0.5000 
     61 O          -3.3954  -14.4518  -44.0097 O.2       2 UNK        -0.5000 
     62 CA         -4.5716  -13.4175  -45.8113 C.3       2 UNK         0.1400 
     63 CB         -5.4578  -12.1882  -45.5523 C.3       2 UNK        -0.1800 
     64 N          -4.0583  -13.3582  -47.1796 N.am      2 UNK        -0.5000 
     65 C          -3.4890  -14.2773  -47.9849 C.2       1 UNK         0.5000 
     66 O          -3.1119  -13.9168  -49.0984 O.2       1 UNK        -0.5000 
     67 C          -2.0218  -22.3308  -47.3897 C.2       11 UNK         0.5000 
     68 O          -2.5925  -22.7931  -48.3794 O.2       11 UNK        -0.5000 
     69 N          -2.6623  -21.9735  -46.2672 N.am      12 UNK        -0.5000 
     70 CA         -4.0741  -22.2427  -45.9986 C.3       12 UNK         0.1400 
     71 CB         -4.5488  -21.4126  -44.7992 C.3       12 UNK        -0.1800 
     72 C          -4.3395  -23.7397  -45.7607 C.2       12 UNK         0.5000 
     73 O          -5.2885  -24.2800  -46.3282 O.2       12 UNK        -0.5000 
     74 N          -3.4864  -24.3927  -44.9552 N.am      13 UNK        -0.5000 
     75 CA         -3.5606  -25.8249  -44.6440 C.3       13 UNK         0.1400 
     76 CB         -2.5338  -26.1805  -43.5590 C.3       13 UNK        -0.1800 
     77 C          -3.3864  -26.7348  -45.8744 C.2       13 UNK         0.5000 
     78 O          -3.9846  -27.8105  -45.9198 O.2       13 UNK        -0.5000 
     79 N          -2.6317  -26.2683  -46.8785 N.am      14 UNK        -0.5000 
     80 CA         -2.4642  -26.8797  -48.2004 C.3       14 UNK         0.1400 
     81 CB         -1.2011  -26.2871  -48.8512 C.3       14 UNK        -0.1800 
     82 C          -3.7169  -26.7246  -49.0982 C.2       14 UNK         0.5000 
     83 O          -3.6037  -26.3053  -50.2520 O.2       14 UNK        -0.5000 
     84 N          -4.8986  -27.0299  -48.5387 N.am      15 UNK        -0.5000 
     85 CA         -6.2424  -26.9592  -49.1324 C.3       15 UNK         0.1400 
     86 CB         -6.4016  -28.0651  -50.1959 C.3       15 UNK        -0.1800 
     87 C          -6.6205  -25.5646  -49.6832 C.2       15 UNK         0.5000 
     88 O          -7.4598  -25.4670  -50.5795 O.2       15 UNK        -0.5000 
     89 N          -5.9514  -24.5198  -49.1732 N.am      16 UNK        -0.5000 
     90 CA         -5.9189  -23.1319  -49.6468 C.3       16 UNK         0.1400 
     91 CB         -7.2896  -22.4548  -49.4546 C.3       16 UNK        -0.1800 
     92 C          -5.3802  -22.9527  -51.0843 C.2       16 UNK         0.5000 
     93 O          -5.4127  -21.8353  -51.5988 O.2       16 UNK        -0.5000 
     94 N          -4.8777  -24.0247  -51.7129 N.am      17 UNK        -0.5000 
     95 CA         -4.4383  -24.0432  -53.1060 C.3       17 UNK         0.1400 
     96 CB         -4.2879  -25.4973  -53.5768 C.3       17 UNK        -0.1800 
     97 C          -3.1335  -23.2627  -53.3056 C.2       17 UNK         0.5000 
     98 O          -3.0144  -22.5137  -54.2744 O.2       17 UNK        -0.5000 
     99 N          -2.1992  -23.4160  -52.3579 N.am      18 UNK        -0.5000 
    100 CA        -0.9329  -22.6856  -52.3318 C.3       18 UNK         0.1400 
    101 CB        -0.0111  -23.3101  -51.2770 C.3       18 UNK        -0.1800 
    102 C         -1.1339  -21.1810  -52.0747 C.2       18 UNK         0.5000 
    103 O         -0.4355  -20.3660  -52.6747 O.2       18 UNK        -0.5000 
    104 N         -2.1149  -20.8418  -51.2250 N.am      19 UNK        -0.5000 
    105 CA        -2.5278  -19.4648  -50.9593 C.3       19 UNK         0.1400 
    106 CB        -3.4466  -19.4257  -49.7290 C.3       19 UNK        -0.1800 
    107 C         -3.2080  -18.8225  -52.1816 C.2       19 UNK         0.5000 
    108 O         -2.8752  -17.6907  -52.5314 O.2       19 UNK        -0.5000 
    109 N         -4.1200  -19.5666  -52.8257 N.am      20 UNK        -0.5000 
    110 CA        -4.8359  -19.1543  -54.0344 C.3       20 UNK         0.1400 
    111 CB        -5.9292  -20.1810  -54.3654 C.3       20 UNK        -0.1800 
    112 C         -3.9088  -18.9402  -55.2436 C.2       20 UNK         0.5000 
    113 O         -4.0881  -17.9649  -55.9744 O.2       20 UNK        -0.5000 
    114 N         -2.9091  -19.8193  -55.4098 N.am      21 UNK        -0.5000 
    115 CA        -1.8821  -19.7381  -56.4545 C.3       21 UNK         0.1400 
    116 CB        -0.9850  -20.9832  -56.3840 C.3       21 UNK        -0.1800 
    117 C         -1.0284  -18.4554  -56.3889 C.2       21 UNK         0.5000 
    118 O         -0.5717  -17.9777  -57.4283 O.2       21 UNK        -0.5000 
    119 N         -0.8583  -17.9113  -55.1792 N.am      22 UNK        -0.5000 
    120 CA        -0.2111  -16.6190  -54.9124 C.3       22 UNK         0.1400 
    121 C         -1.1640  -15.3929  -55.0503 C.2       22 UNK         0.5000 
    122 N         -2.4370  -15.5534  -55.3938 N.am      22 UNK        -0.7600 
    123 O         -0.7319  -14.2585  -54.8645 O.2       22 UNK        -0.5000 
    124 C124        0.5150  -16.6310  -53.5438 C.3       23 UNK        -0.0398 
    125 S125        1.9068  -17.8120  -53.5294 S.3       23 UNK        -0.2404 
    126 C126        3.0284  -17.0303  -52.3310 C.3       23 UNK        -0.0205 
    127 H127       -4.8793  -16.6549  -44.0269 H         1 UNK         0.0600 
    128 H128       -3.9394  -18.1500  -44.0833 H         1 UNK         0.0600 
    129 H129       -5.6593  -18.1644  -44.4887 H         1 UNK         0.0600 
    130 H130       -3.4401  -15.6187  -45.5356 H         1 UNK         0.3000 
    131 H131       -3.9584  -16.2726  -48.3547 H         1 UNK         0.0600 
    132 H132       -1.6754  -16.1970  -49.0385 H         1 UNK         0.0800 
    133 H133       -1.7916  -17.3609  -47.7598 H         1 UNK         0.0800 
    134 H134        1.3813  -14.3611  -47.9753 H         1 UNK         0.0800 
    135 H135        0.0824  -14.4771  -49.1385 H         1 UNK         0.0800 
    136 H136        1.6230  -15.2076  -50.8648 H         1 UNK         0.1150 
    137 H137        3.2942  -19.1449  -50.6441 H         1 UNK         0.1150 
    138 H138        1.2714  -17.4986  -47.2530 H         1 UNK         0.1150 
    139 H139        3.6641  -19.9247  -48.1273 H         1 UNK         0.0800 
    140 H140        2.3442  -19.5987  -47.0361 H         1 UNK         0.0800 
    141 H141       -0.6133  -20.6816  -48.9717 H         1 UNK         0.0800 
    142 H142       -0.0420  -20.0631  -47.4436 H         1 UNK         0.0800 
    143 H143       -0.1440  -23.0594  -47.9980 H         1 UNK         0.0600 
    144 H144        0.5117  -21.5507  -45.6328 H         1 UNK         0.3000 
    145 H145        0.3792  -24.4050  -43.4689 H         1 UNK         0.0600 
    146 H146        2.6712  -23.5390  -43.0098 H         1 UNK         0.0600 
    147 H147        2.6168  -24.4415  -44.5161 H         1 UNK         0.0600 
    148 H148        2.6750  -22.6862  -44.5528 H         1 UNK         0.0600 
    149 H149        0.8951  -21.5509  -43.2005 H         1 UNK         0.3000 
    150 H150       -2.3957  -20.7334  -42.1034 H         1 UNK         0.0600 
    151 H151       -1.4087  -21.8144  -40.0762 H         1 UNK         0.0600 
    152 H152       -1.2406  -20.0671  -40.0177 H         1 UNK         0.0600 
    153 H153        0.1487  -21.0740  -40.4274 H         1 UNK         0.0600 
    154 H154        0.0141  -19.2254  -42.0823 H         1 UNK         0.3000 
    155 H155       -0.1997  -17.9867  -45.4281 H         1 UNK         0.0600 
    156 H156       -0.6148  -16.7229  -42.6619 H         1 UNK         0.0600 
    157 H157       -1.7868  -16.6877  -43.9734 H         1 UNK         0.0600 
    158 H158       -0.2523  -15.8636  -44.1531 H         1 UNK         0.0600 
    159 H159        1.7161  -17.2235  -43.6714 H         1 UNK         0.3000 
    160 H160        3.8562  -19.6330  -43.0248 H         1 UNK         0.0600 
    161 H161        4.3839  -18.6402  -45.8765 H         1 UNK         0.0600 
    162 H162        4.3388  -20.3291  -45.3784 H         1 UNK         0.0600 
    163 H163        5.5911  -19.2699  -44.7576 H         1 UNK         0.0600 
    164 H164        4.4270  -17.0000  -44.1035 H         1 UNK         0.3000 
    165 H165        3.4039  -15.1076  -41.3972 H         1 UNK         0.0600 
    166 H166        5.7769  -14.4724  -41.0252 H         1 UNK         0.0600 
    167 H167        5.4409  -16.0278  -40.2830 H         1 UNK         0.0600 
    168 H168        6.3231  -15.9585  -41.8039 H         1 UNK         0.0600 
    169 H169        5.2378  -14.5765  -43.5350 H         1 UNK         0.3000 
    170 H170        4.4413  -13.1059  -45.1817 H         1 UNK         0.0600 
    171 H171        4.9186  -15.3420  -46.1832 H         1 UNK         0.0600 
    172 H172        3.2244  -15.5546  -46.6060 H         1 UNK         0.0600 
    173 H173        4.1878  -14.3156  -47.4069 H         1 UNK         0.0600 
    174 H174        1.5631  -13.4477  -45.4555 H         1 UNK         0.3000 
    175 H175        1.1393  -10.1655  -46.2943 H         1 UNK         0.0600 
    176 H176        0.4955  -12.1923  -48.4965 H         1 UNK         0.0600 
    177 H177       -0.2592  -10.6196  -48.2672 H         1 UNK         0.0600 
    178 H178        1.4359  -10.7235  -48.7108 H         1 UNK         0.0600 
    179 H179       -0.6352  -12.4736  -46.3468 H         1 UNK         0.3000 
    180 H180       -0.9972  -13.4457  -43.7035 H         1 UNK         0.0600 
    181 H181       -2.6224  -12.4396  -42.0893 H         1 UNK         0.0600 
    182 H182       -2.2155  -10.8258  -42.6700 H         1 UNK         0.0600 
    183 H183       -1.0112  -11.8002  -41.8322 H         1 UNK         0.0600 
    184 H184       -2.6011  -11.7775  -45.4858 H         1 UNK         0.3000 
    185 H185       -5.2199  -14.2871  -45.7023 H         1 UNK         0.0600 
    186 H186       -6.3148  -12.1740  -46.2260 H         1 UNK         0.0600 
    187 H187       -5.8490  -12.1970  -44.5339 H         1 UNK         0.0600 
    188 H188       -4.9143  -11.2523  -45.6864 H         1 UNK         0.0600 
    189 H189       -4.1282  -12.4363  -47.5830 H         1 UNK         0.3000 
    190 H190       -2.1464  -21.4942  -45.5361 H         1 UNK         0.3000 
    191 H191       -4.6534  -21.9271  -46.8674 H         1 UNK         0.0600 
    192 H192       -5.6053  -21.5886  -44.5938 H         1 UNK         0.0600 
    193 H193       -4.4295  -20.3498  -44.9984 H         1 UNK         0.0600 
    194 H194       -3.9915  -21.6484  -43.8929 H         1 UNK         0.0600 
    195 H195       -2.7619  -23.8680  -44.4758 H         1 UNK         0.3000 
    196 H196       -4.5561  -26.0183  -44.2394 H         1 UNK         0.0600 
    197 H197       -1.5149  -25.9715  -43.8839 H         1 UNK         0.0600 
    198 H198       -2.7173  -25.6195  -42.6428 H         1 UNK         0.0600 
    199 H199       -2.5853  -27.2398  -43.3040 H         1 UNK         0.0600 
    200 H200       -2.1364  -25.3985  -46.7231 H         1 UNK         0.3000 
    201 H201       -2.2999  -27.9505  -48.0657 H         1 UNK         0.0600 
    202 H202       -1.3077  -25.2161  -49.0242 H         1 UNK         0.0600 
    203 H203       -0.9934  -26.7580  -49.8128 H         1 UNK         0.0600 
    204 H204       -0.3243  -26.4371  -48.2208 H         1 UNK         0.0600 
    205 H205       -4.8648  -27.3555  -47.5768 H         1 UNK         0.3000 
    206 H206       -6.9454  -27.1667  -48.3246 H         1 UNK         0.0600 
    207 H207       -6.1437  -29.0430  -49.7895 H         1 UNK         0.0600 
    208 H208       -7.4309  -28.1259  -50.5512 H         1 UNK         0.0600 
    209 H209       -5.7655  -27.8839  -51.0631 H         1 UNK         0.0600 
    210 H210       -5.3442  -24.7081  -48.3835 H         1 UNK         0.3000 
    211 H211       -5.2067  -22.6154  -49.0053 H         1 UNK         0.0600 
    212 H212       -7.2322  -21.3868  -49.6687 H         1 UNK         0.0600 
    213 H213       -7.6388  -22.5597  -48.4274 H         1 UNK         0.0600 
    214 H214       -8.0476  -22.8787  -50.1136 H         1 UNK         0.0600 
    215 H215       -4.7920  -24.8948  -51.1993 H         1 UNK         0.3000 
    216 H216       -5.2110  -23.5676  -53.7135 H         1 UNK         0.0600 
    217 H217       -3.5274  -26.0312  -53.0057 H         1 UNK         0.0600 
    218 H218       -3.9992  -25.5386  -54.6278 H         1 UNK         0.0600 
    219 H219       -5.2263  -26.0428  -53.4745 H         1 UNK         0.0600 
    220 H220       -2.3884  -24.0462  -51.5910 H         1 UNK         0.3000 
    221 H221       -0.4565  -22.7954  -53.3084 H         1 UNK         0.0600 
    222 H222        0.1838  -24.3607  -51.4928 H         1 UNK         0.0600 
    223 H223       -0.4483  -23.2481  -50.2819 H         1 UNK         0.0600 
    224 H224        0.9519  -22.7990  -51.2493 H         1 UNK         0.0600 
    225 H225       -2.6509  -21.5758  -50.7849 H         1 UNK         0.3000 
    226 H226       -1.6343  -18.8788  -50.7312 H         1 UNK         0.0600 
    227 H227       -4.3252  -20.0584  -49.8542 H         1 UNK         0.0600 
    228 H228       -2.9259  -19.7532  -48.8297 H         1 UNK         0.0600 
    229 H229       -3.8016  -18.4122  -49.5424 H         1 UNK         0.0600 
    230 H230       -4.3814  -20.4692  -52.4379 H         1 UNK         0.3000 
    231 H231       -5.3222  -18.2004  -53.8197 H         1 UNK         0.0600 
    232 H232       -5.5096  -21.1708  -54.5471 H         1 UNK         0.0600 
    233 H233       -6.4833  -19.8891  -55.2583 H         1 UNK         0.0600 
    234 H234       -6.6485  -20.2669  -53.5508 H         1 UNK         0.0600 
    235 H235       -2.8661  -20.6296  -54.7982 H         1 UNK         0.3000 
    236 H236       -2.3935  -19.7402  -57.4191 H         1 UNK         0.0600 
    237 H237       -1.5618  -21.8945  -56.5419 H         1 UNK         0.0600 
    238 H238       -0.2107  -20.9530  -57.1516 H         1 UNK         0.0600 
    239 H239       -0.4872  -21.0638  -55.4171 H         1 UNK         0.0600 
    240 H240       -1.2679  -18.3732  -54.3786 H         1 UNK         0.3000 
    241 H241        0.5530  -16.4604  -55.6757 H         1 UNK         0.0600 
    242 H242       -3.0262  -14.7412  -55.4828 H         1 UNK         0.3800 
    243 H243       -2.8293  -16.4726  -55.5645 H         1 UNK         0.3800 
    244 H244       -0.1763  -16.8870  -52.7390 H         1 UNK         0.0800 
    245 H245        0.9064  -15.6398  -53.3105 H         1 UNK         0.0800 
    246 H246        3.1836  -15.9824  -52.5921 H         1 UNK         0.0800 
    247 H247        4.0068  -17.5072  -52.4051 H         1 UNK         0.0800 
@<TRIPOS>BOND
     1    1    2 1    
     2    1  127 1    
     3    1  128 1    
     4    1  129 1    
     5    2    3 2    
     6    2    4 am   BACKBONE|DICT|INTERRES
     7    4    5 1    
     8    4  130 1    
     9    5    6 1    
    10    5   65 1    
    11    5  131 1    
    12    6    7 1    
    13    6  132 1    
    14    6  133 1    
    15    7    8 1    
    16    8    9 1    
    17    8  134 1    
    18    8  135 1    
    19    9   10 ar   
    20    9   14 ar   
    21   10   11 ar   
    22   10  136 1    
    23   11   12 ar   
    24   11  126 1    
    25   12   13 ar   
    26   12  137 1    
    27   13   14 ar   
    28   13   15 1    
    29   14  138 1    
    30   15   16 1    
    31   15  139 1    
    32   15  140 1    
    33   16   17 1    
    34   17   18 1    
    35   17  141 1    
    36   17  142 1    
    37   18   19 1    
    38   18   67 1    
    39   18  143 1    
    40   19   20 am   BACKBONE|DICT|INTERRES
    41   19  144 1    
    42   20   21 2    
    43   20   22 1    
    44   22   23 1    
    45   22   24 1    
    46   22  145 1    
    47   23  146 1    
    48   23  147 1    
    49   23  148 1    
    50   24   25 am   BACKBONE|DICT|INTERRES
    51   24  149 1    
    52   25   26 2    
    53   25   27 1    
    54   27   28 1    
    55   27   29 1    
    56   27  150 1    
    57   28  151 1    
    58   28  152 1    
    59   28  153 1    
    60   29   30 am   BACKBONE|DICT|INTERRES
    61   29  154 1    
    62   30   31 2    
    63   30   32 1    
    64   32   33 1    
    65   32   34 1    
    66   32  155 1    
    67   33  156 1    
    68   33  157 1    
    69   33  158 1    
    70   34   35 am   BACKBONE|DICT|INTERRES
    71   34  159 1    
    72   35   36 2    
    73   35   37 1    
    74   37   38 1    
    75   37   39 1    
    76   37  160 1    
    77   38  161 1    
    78   38  162 1    
    79   38  163 1    
    80   39   40 am   BACKBONE|DICT|INTERRES
    81   39  164 1    
    82   40   41 2    
    83   40   42 1    
    84   42   43 1    
    85   42   44 1    
    86   42  165 1    
    87   43  166 1    
    88   43  167 1    
    89   43  168 1    
    90   44   45 am   BACKBONE|DICT|INTERRES
    91   44  169 1    
    92   45   46 2    
    93   45   47 1    
    94   47   48 1    
    95   47   49 1    
    96   47  170 1    
    97   48  171 1    
    98   48  172 1    
    99   48  173 1    
   100   49   50 am   BACKBONE|DICT|INTERRES
   101   49  174 1    
   102   50   51 2    
   103   50   52 1    
   104   52   53 1    
   105   52   54 1    
   106   52  175 1    
   107   53  176 1    
   108   53  177 1    
   109   53  178 1    
   110   54   55 am   BACKBONE|DICT|INTERRES
   111   54  179 1    
   112   55   56 2    
   113   55   57 1    
   114   57   58 1    
   115   57   59 1    
   116   57  180 1    
   117   58  181 1    
   118   58  182 1    
   119   58  183 1    
   120   59   60 am   BACKBONE|DICT|INTERRES
   121   59  184 1    
   122   60   61 2    
   123   60   62 1    
   124   62   63 1    
   125   62   64 1    
   126   62  185 1    
   127   63  186 1    
   128   63  187 1    
   129   63  188 1    
   130   64   65 am   BACKBONE|DICT|INTERRES
   131   64  189 1    
   132   65   66 2    
   133   67   68 2    
   134   67   69 am   BACKBONE|DICT|INTERRES
   135   69   70 1    
   136   69  190 1    
   137   70   71 1    
   138   70   72 1    
   139   70  191 1    
   140   71  192 1    
   141   71  193 1    
   142   71  194 1    
   143   72   73 2    
   144   72   74 am   BACKBONE|DICT|INTERRES
   145   74   75 1    
   146   74  195 1    
   147   75   76 1    
   148   75   77 1    
   149   75  196 1    
   150   76  197 1    
   151   76  198 1    
   152   76  199 1    
   153   77   78 2    
   154   77   79 am   BACKBONE|DICT|INTERRES
   155   79   80 1    
   156   79  200 1    
   157   80   81 1    
   158   80   82 1    
   159   80  201 1    
   160   81  202 1    
   161   81  203 1    
   162   81  204 1    
   163   82   83 2    
   164   82   84 am   BACKBONE|DICT|INTERRES
   165   84   85 1    
   166   84  205 1    
   167   85   86 1    
   168   85   87 1    
   169   85  206 1    
   170   86  207 1    
   171   86  208 1    
   172   86  209 1    
   173   87   88 2    
   174   87   89 am   BACKBONE|DICT|INTERRES
   175   89   90 1    
   176   89  210 1    
   177   90   91 1    
   178   90   92 1    
   179   90  211 1    
   180   91  212 1    
   181   91  213 1    
   182   91  214 1    
   183   92   93 2    
   184   92   94 am   BACKBONE|DICT|INTERRES
   185   94   95 1    
   186   94  215 1    
   187   95   96 1    
   188   95   97 1    
   189   95  216 1    
   190   96  217 1    
   191   96  218 1    
   192   96  219 1    
   193   97   98 2    
   194   97   99 am   BACKBONE|DICT|INTERRES
   195   99  100 1    
   196   99  220 1    
   197  100  101 1    
   198  100  102 1    
   199  100  221 1    
   200  101  222 1    
   201  101  223 1    
   202  101  224 1    
   203  102  103 2    
   204  102  104 am   BACKBONE|DICT|INTERRES
   205  104  105 1    
   206  104  225 1    
   207  105  106 1    
   208  105  107 1    
   209  105  226 1    
   210  106  227 1    
   211  106  228 1    
   212  106  229 1    
   213  107  108 2    
   214  107  109 am   BACKBONE|DICT|INTERRES
   215  109  110 1    
   216  109  230 1    
   217  110  111 1    
   218  110  112 1    
   219  110  231 1    
   220  111  232 1    
   221  111  233 1    
   222  111  234 1    
   223  112  113 2    
   224  112  114 am   BACKBONE|DICT|INTERRES
   225  114  115 1    
   226  114  235 1    
   227  115  116 1    
   228  115  117 1    
   229  115  236 1    
   230  116  237 1    
   231  116  238 1    
   232  116  239 1    
   233  117  118 2    
   234  117  119 am   BACKBONE|DICT|INTERRES
   235  119  120 1    
   236  119  240 1    
   237  120  121 1    
   238  120  124 1    
   239  120  241 1    
   240  121  122 am   BACKBONE|DICT|INTERRES
   241  121  123 2    
   242  122  242 1    
   243  122  243 1    
   244  124  125 1    
   245  124  244 1    
   246  124  245 1    
   247  125  126 1    
   248  126  246 1    
   249  126  247 1    
@<TRIPOS>SUBSTRUCTURE
     1 UNK         1 GROUP             0       ****    0 ROOT    
