@<TRIPOS>MOLECULE
3R540
247   249    1
SMALL
USER_CHARGES


@<TRIPOS>ATOM
      1 CA          3.4694  -16.6573  -46.7863 C.3       0 UNK        -0.1800 
      2 C           2.4108  -15.5933  -47.0317 C.2       0 UNK         0.5000 
      3 O           2.0410  -14.8734  -46.1071 O.2       0 UNK        -0.5000 
      4 N           1.9392  -15.4729  -48.2793 N.am      1 UNK        -0.5000 
      5 CA          0.8857  -14.5446  -48.7117 C.3       1 UNK         0.1400 
      6 C6          0.4673  -14.8111  -50.1813 C.3       23 UNK        -0.0398 
      7 S7          1.6576  -14.2755  -51.4741 S.3       23 UNK        -0.2404 
      8 C8          2.9294  -15.5877  -51.5021 C.3       23 UNK        -0.0205 
      9 C9          2.3471  -16.9914  -51.5854 C.ar      23 UNK        -0.0193 
     10 C10         1.4457  -17.3234  -52.5985 C.ar      23 UNK        -0.1150 
     11 C11         0.8546  -18.5882  -52.6412 C.ar      23 UNK        -0.0193 
     12 C12         1.1976  -19.5416  -51.6760 C.ar      23 UNK        -0.1150 
     13 C13         2.1293  -19.2332  -50.6780 C.ar      23 UNK        -0.0193 
     14 C14         2.7009  -17.9584  -50.6415 C.ar      23 UNK        -0.1150 
     15 C15         2.5410  -20.2683  -49.6409 C.3       23 UNK        -0.0205 
     16 S16         1.8002  -19.9302  -48.0123 S.3       23 UNK        -0.2404 
     17 C17         0.1093  -20.5710  -48.2351 C.3       23 UNK        -0.0398 
     18 CA         -0.1407  -21.8545  -47.4057 C.3       11 UNK         0.1400 
     19 N          -0.1004  -21.6233  -45.9546 N.am      11 UNK        -0.5000 
     20 C          -0.1558  -22.5943  -45.0293 C.2       10 UNK         0.5000 
     21 O          -0.1652  -23.7938  -45.3022 O.2       10 UNK        -0.5000 
     22 CA         -0.2966  -22.1649  -43.5569 C.3       10 UNK         0.1400 
     23 CB          1.0713  -21.8589  -42.9295 C.3       10 UNK        -0.1800 
     24 N          -1.2054  -21.0287  -43.3911 N.am      10 UNK        -0.5000 
     25 C          -2.5202  -21.0799  -43.6519 C.2       9 UNK         0.5000 
     26 O          -3.1021  -22.1088  -43.9892 O.2       9 UNK        -0.5000 
     27 CA         -3.3181  -19.7659  -43.5733 C.3       9 UNK         0.1400 
     28 CB         -3.8270  -19.5252  -42.1452 C.3       9 UNK        -0.1800 
     29 N          -2.5552  -18.6063  -44.0347 N.am      9 UNK        -0.5000 
     30 C          -2.1075  -18.4397  -45.2876 C.2       8 UNK         0.5000 
     31 O          -2.3510  -19.2254  -46.2042 O.2       8 UNK        -0.5000 
     32 CA         -1.1765  -17.2350  -45.5373 C.3       8 UNK         0.1400 
     33 CB         -1.9762  -15.9388  -45.7285 C.3       8 UNK        -0.1800 
     34 N          -0.2060  -17.0568  -44.4554 N.am      8 UNK        -0.5000 
     35 C           0.7426  -17.9522  -44.1474 C.2       7 UNK         0.5000 
     36 O           0.9411  -18.9795  -44.7940 O.2       7 UNK        -0.5000 
     37 CA          1.5526  -17.6969  -42.8655 C.3       7 UNK         0.1400 
     38 CB          2.7227  -16.7372  -43.1209 C.3       7 UNK        -0.1800 
     39 N           0.7034  -17.1691  -41.7977 N.am      7 UNK        -0.5000 
     40 C          -0.1467  -17.9168  -41.0798 C.2       6 UNK         0.5000 
     41 O          -0.2684  -19.1323  -41.2252 O.2       6 UNK        -0.5000 
     42 CA         -1.0276  -17.1890  -40.0451 C.3       6 UNK         0.1400 
     43 CB         -0.3067  -17.1056  -38.6915 C.3       6 UNK        -0.1800 
     44 N          -1.4164  -15.8423  -40.4641 N.am      6 UNK        -0.5000 
     45 C          -2.2118  -15.5657  -41.5072 C.2       5 UNK         0.5000 
     46 O          -2.7522  -16.4263  -42.1988 O.2       5 UNK        -0.5000 
     47 CA         -2.3824  -14.0791  -41.8777 C.3       5 UNK         0.1400 
     48 CB         -3.6003  -13.4814  -41.1584 C.3       5 UNK        -0.1800 
     49 N          -1.1977  -13.2638  -41.5880 N.am      5 UNK        -0.5000 
     50 C           0.0196  -13.4788  -42.1045 C.2       4 UNK         0.5000 
     51 O           0.2747  -14.4044  -42.8786 O.2       4 UNK        -0.5000 
     52 CA          1.1445  -12.5591  -41.5951 C.3       4 UNK         0.1400 
     53 CB          1.6354  -13.0422  -40.2205 C.3       4 UNK        -0.1800 
     54 N           2.2893  -12.5157  -42.5036 N.am      4 UNK        -0.5000 
     55 C           2.2857  -11.9656  -43.7239 C.2       3 UNK         0.5000 
     56 O           1.3133  -11.3693  -44.1945 O.2       3 UNK        -0.5000 
     57 CA          3.5985  -12.0582  -44.5293 C.3       3 UNK         0.1400 
     58 CB          4.4769  -13.2687  -44.1526 C.3       3 UNK        -0.1800 
     59 N           3.3090  -12.1215  -45.9588 N.am      3 UNK        -0.5000 
     60 C           3.3696  -11.0872  -46.8078 C.2       2 UNK         0.5000 
     61 O           3.7102   -9.9510  -46.4734 O.2       2 UNK        -0.5000 
     62 CA          3.0218  -11.3563  -48.2859 C.3       2 UNK         0.1400 
     63 CB          4.2606  -11.1651  -49.1765 C.3       2 UNK        -0.1800 
     64 N           2.5008  -12.7037  -48.5126 N.am      2 UNK        -0.5000 
     65 C           1.2087  -13.0526  -48.4581 C.2       1 UNK         0.5000 
     66 O           0.2944  -12.2635  -48.2172 O.2       1 UNK        -0.5000 
     67 C          -1.4594  -22.5284  -47.8367 C.2       11 UNK         0.5000 
     68 O          -1.4234  -23.4807  -48.6171 O.2       11 UNK        -0.5000 
     69 N          -2.5906  -22.0579  -47.2909 N.am      12 UNK        -0.5000 
     70 CA         -3.9125  -22.6432  -47.5171 C.3       12 UNK         0.1400 
     71 CB         -4.9990  -21.7244  -46.9406 C.3       12 UNK        -0.1800 
     72 C          -4.0393  -24.0705  -46.9524 C.2       12 UNK         0.5000 
     73 O          -4.5547  -24.9461  -47.6454 O.2       12 UNK        -0.5000 
     74 N          -3.5330  -24.2933  -45.7313 N.am      13 UNK        -0.5000 
     75 CA         -3.5015  -25.5958  -45.0588 C.3       13 UNK         0.1400 
     76 CB         -3.0410  -25.4135  -43.6050 C.3       13 UNK        -0.1800 
     77 C          -2.6169  -26.6281  -45.7829 C.2       13 UNK         0.5000 
     78 O          -2.9864  -27.8003  -45.8579 O.2       13 UNK        -0.5000 
     79 N          -1.4882  -26.1669  -46.3386 N.am      14 UNK        -0.5000 
     80 CA         -0.5943  -26.9460  -47.1986 C.3       14 UNK         0.1400 
     81 CB          0.7581  -26.2208  -47.2899 C.3       14 UNK        -0.1800 
     82 C          -1.1628  -27.1911  -48.6124 C.2       14 UNK         0.5000 
     83 O          -0.6062  -28.0076  -49.3475 O.2       14 UNK        -0.5000 
     84 N          -2.2377  -26.4722  -48.9702 N.am      15 UNK        -0.5000 
     85 CA         -2.9114  -26.4415  -50.2697 C.3       15 UNK         0.1400 
     86 CB         -3.5652  -27.8016  -50.5890 C.3       15 UNK        -0.1800 
     87 C          -2.0025  -25.9223  -51.4018 C.2       15 UNK         0.5000 
     88 O          -2.1385  -26.3561  -52.5482 O.2       15 UNK        -0.5000 
     89 N          -1.1066  -24.9816  -51.0698 N.am      16 UNK        -0.5000 
     90 CA         -0.2080  -24.3023  -52.0001 C.3       16 UNK         0.1400 
     91 CB          0.8534  -23.5299  -51.2006 C.3       16 UNK        -0.1800 
     92 C          -1.0227  -23.3804  -52.9229 C.2       16 UNK         0.5000 
     93 O          -1.4221  -22.2954  -52.5010 O.2       16 UNK        -0.5000 
     94 N          -1.3150  -23.8823  -54.1313 N.am      17 UNK        -0.5000 
     95 CA         -2.2861  -23.3513  -55.0945 C.3       17 UNK         0.1400 
     96 CB         -1.8400  -21.9862  -55.6510 C.3       17 UNK        -0.1800 
     97 C          -3.7267  -23.3584  -54.5330 C.2       17 UNK         0.5000 
     98 O          -4.4930  -22.4217  -54.7588 O.2       17 UNK        -0.5000 
     99 N          -4.0557  -24.4376  -53.8070 N.am      18 UNK        -0.5000 
    100 CA        -5.3434  -24.8105  -53.2088 C.3       18 UNK         0.1400 
    101 CB        -6.4506  -24.9078  -54.2757 C.3       18 UNK        -0.1800 
    102 C         -5.8062  -23.9570  -52.0114 C.2       18 UNK         0.5000 
    103 O         -6.4104  -24.5124  -51.0937 O.2       18 UNK        -0.5000 
    104 N         -5.5348  -22.6493  -52.0186 N.am      19 UNK        -0.5000 
    105 CA        -5.9699  -21.6945  -51.0022 C.3       19 UNK         0.1400 
    106 CB        -7.4313  -21.2871  -51.2720 C.3       19 UNK        -0.1800 
    107 C         -5.0524  -20.4650  -51.0134 C.2       19 UNK         0.5000 
    108 O         -4.2913  -20.2777  -51.9625 O.2       19 UNK        -0.5000 
    109 N         -5.1867  -19.6128  -49.9869 N.am      20 UNK        -0.5000 
    110 CA        -4.4345  -18.3614  -49.8153 C.3       20 UNK         0.1400 
    111 CB        -4.7583  -17.7693  -48.4344 C.3       20 UNK        -0.1800 
    112 C         -4.6887  -17.3063  -50.9135 C.2       20 UNK         0.5000 
    113 O         -3.8668  -16.4072  -51.0900 O.2       20 UNK        -0.5000 
    114 N         -5.8142  -17.4340  -51.6312 N.am      21 UNK        -0.5000 
    115 CA        -6.1402  -16.6492  -52.8237 C.3       21 UNK         0.1400 
    116 CB        -7.6419  -16.7966  -53.1151 C.3       21 UNK        -0.1800 
    117 C         -5.3087  -17.0572  -54.0590 C.2       21 UNK         0.5000 
    118 O         -5.1935  -16.2643  -54.9941 O.2       21 UNK        -0.5000 
    119 N         -4.7517  -18.2763  -54.0382 N.am      22 UNK        -0.5000 
    120 CA        -3.8565  -18.8638  -55.0483 C.3       22 UNK         0.1400 
    121 C         -4.5127  -19.1325  -56.4379 C.2       22 UNK         0.5000 
    122 N         -5.8348  -19.1933  -56.5428 N.am      22 UNK        -0.7600 
    123 O         -3.8198  -19.3083  -57.4367 O.2       22 UNK        -0.5000 
    124 C124       -2.4922  -18.1247  -55.1586 C.3       23 UNK        -0.0398 
    125 S125       -1.6589  -17.9015  -53.5461 S.3       23 UNK        -0.2404 
    126 C126       -0.1521  -18.9057  -53.7353 C.3       23 UNK        -0.0205 
    127 H127        4.2499  -16.2684  -46.1323 H         1 UNK         0.0600 
    128 H128        3.9396  -16.9827  -47.7133 H         1 UNK         0.0600 
    129 H129        3.0206  -17.5268  -46.3066 H         1 UNK         0.0600 
    130 H130        2.2698  -16.1054  -48.9923 H         1 UNK         0.3000 
    131 H131        0.0180  -14.7732  -48.0892 H         1 UNK         0.0600 
    132 H132        0.2251  -15.8656  -50.3173 H         1 UNK         0.0800 
    133 H133       -0.4689  -14.2872  -50.3814 H         1 UNK         0.0800 
    134 H134        3.5694  -15.4794  -50.6258 H         1 UNK         0.0800 
    135 H135        3.5747  -15.4268  -52.3667 H         1 UNK         0.0800 
    136 H136        1.1745  -16.5826  -53.3378 H         1 UNK         0.1150 
    137 H137        0.7429  -20.5217  -51.7073 H         1 UNK         0.1150 
    138 H138        3.4214  -17.7259  -49.8713 H         1 UNK         0.1150 
    139 H139        2.2834  -21.2766  -49.9655 H         1 UNK         0.0800 
    140 H140        3.6269  -20.2547  -49.5377 H         1 UNK         0.0800 
    141 H141       -0.0629  -20.7559  -49.2964 H         1 UNK         0.0800 
    142 H142       -0.5908  -19.7837  -47.9587 H         1 UNK         0.0800 
    143 H143        0.6588  -22.5612  -47.6392 H         1 UNK         0.0600 
    144 H144       -0.0379  -20.6587  -45.6473 H         1 UNK         0.3000 
    145 H145       -0.7253  -23.0064  -43.0091 H         1 UNK         0.0600 
    146 H146        0.9711  -21.5743  -41.8820 H         1 UNK         0.0600 
    147 H147        1.7170  -22.7370  -42.9669 H         1 UNK         0.0600 
    148 H148        1.5905  -21.0549  -43.4481 H         1 UNK         0.0600 
    149 H149       -0.8010  -20.1606  -43.0628 H         1 UNK         0.3000 
    150 H150       -4.1866  -19.8688  -44.2269 H         1 UNK         0.0600 
    151 H151       -4.4262  -20.3677  -41.7976 H         1 UNK         0.0600 
    152 H152       -4.4563  -18.6366  -42.0949 H         1 UNK         0.0600 
    153 H153       -3.0052  -19.3953  -41.4417 H         1 UNK         0.0600 
    154 H154       -2.3796  -17.8770  -43.3485 H         1 UNK         0.3000 
    155 H155       -0.6186  -17.4285  -46.4562 H         1 UNK         0.0600 
    156 H156       -2.5830  -15.7053  -44.8536 H         1 UNK         0.0600 
    157 H157       -2.6486  -16.0192  -46.5826 H         1 UNK         0.0600 
    158 H158       -1.3144  -15.0917  -45.9120 H         1 UNK         0.0600 
    159 H159       -0.2722  -16.2106  -43.9012 H         1 UNK         0.3000 
    160 H160        1.9712  -18.6506  -42.5368 H         1 UNK         0.0600 
    161 H161        3.2793  -16.5367  -42.2055 H         1 UNK         0.0600 
    162 H162        2.3804  -15.7841  -43.5218 H         1 UNK         0.0600 
    163 H163        3.4226  -17.1628  -43.8399 H         1 UNK         0.0600 
    164 H164        0.6862  -16.1631  -41.6943 H         1 UNK         0.3000 
    165 H165       -1.9379  -17.7766  -39.9112 H         1 UNK         0.0600 
    166 H166       -0.9489  -16.6647  -37.9289 H         1 UNK         0.0600 
    167 H167       -0.0210  -18.0980  -38.3400 H         1 UNK         0.0600 
    168 H168        0.6019  -16.5053  -38.7548 H         1 UNK         0.0600 
    169 H169       -1.0169  -15.0719  -39.9496 H         1 UNK         0.3000 
    170 H170       -2.5617  -14.0290  -42.9535 H         1 UNK         0.0600 
    171 H171       -4.5018  -14.0567  -41.3738 H         1 UNK         0.0600 
    172 H172       -3.4660  -13.4746  -40.0760 H         1 UNK         0.0600 
    173 H173       -3.7861  -12.4568  -41.4812 H         1 UNK         0.0600 
    174 H174       -1.3288  -12.4954  -40.9458 H         1 UNK         0.3000 
    175 H175        0.7476  -11.5467  -41.4949 H         1 UNK         0.0600 
    176 H176        2.0400  -14.0543  -40.2701 H         1 UNK         0.0600 
    177 H177        2.4151  -12.3888  -39.8282 H         1 UNK         0.0600 
    178 H178        0.8252  -13.0483  -39.4904 H         1 UNK         0.0600 
    179 H179        3.1169  -13.0075  -42.2024 H         1 UNK         0.3000 
    180 H180        4.1698  -11.1561  -44.3023 H         1 UNK         0.0600 
    181 H181        3.9410  -14.2096  -44.2717 H         1 UNK         0.0600 
    182 H182        4.8269  -13.2084  -43.1218 H         1 UNK         0.0600 
    183 H183        5.3648  -13.3158  -44.7833 H         1 UNK         0.0600 
    184 H184        2.9195  -12.9996  -46.2837 H         1 UNK         0.3000 
    185 H185        2.2726  -10.6201  -48.5847 H         1 UNK         0.0600 
    186 H186        4.6615  -10.1553  -49.0804 H         1 UNK         0.0600 
    187 H187        5.0575  -11.8615  -48.9128 H         1 UNK         0.0600 
    188 H188        4.0164  -11.3167  -50.2283 H         1 UNK         0.0600 
    189 H189        3.1800  -13.4220  -48.7157 H         1 UNK         0.3000 
    190 H190       -2.5392  -21.2488  -46.6809 H         1 UNK         0.3000 
    191 H191       -4.0583  -22.7035  -48.5972 H         1 UNK         0.0600 
    192 H192       -4.9405  -21.6575  -45.8547 H         1 UNK         0.0600 
    193 H193       -5.9938  -22.0945  -47.1913 H         1 UNK         0.0600 
    194 H194       -4.9146  -20.7155  -47.3390 H         1 UNK         0.0600 
    195 H195       -3.1828  -23.5006  -45.1974 H         1 UNK         0.3000 
    196 H196       -4.5213  -25.9858  -45.0452 H         1 UNK         0.0600 
    197 H197       -3.0446  -26.3649  -43.0716 H         1 UNK         0.0600 
    198 H198       -3.7005  -24.7346  -43.0641 H         1 UNK         0.0600 
    199 H199       -2.0293  -25.0112  -43.5521 H         1 UNK         0.0600 
    200 H200       -1.2154  -25.2039  -46.1617 H         1 UNK         0.3000 
    201 H201       -0.4305  -27.9213  -46.7361 H         1 UNK         0.0600 
    202 H202        1.2029  -26.0900  -46.3033 H         1 UNK         0.0600 
    203 H203        0.6540  -25.2344  -47.7436 H         1 UNK         0.0600 
    204 H204        1.4687  -26.7867  -47.8936 H         1 UNK         0.0600 
    205 H205       -2.6119  -25.8273  -48.2858 H         1 UNK         0.3000 
    206 H206       -3.7138  -25.7089  -50.1744 H         1 UNK         0.0600 
    207 H207       -4.2048  -28.1312  -49.7702 H         1 UNK         0.0600 
    208 H208       -4.1898  -27.7368  -51.4803 H         1 UNK         0.0600 
    209 H209       -2.8214  -28.5781  -50.7686 H         1 UNK         0.0600 
    210 H210       -1.1292  -24.6113  -50.1227 H         1 UNK         0.3000 
    211 H211        0.3047  -25.0544  -52.6033 H         1 UNK         0.0600 
    212 H212        0.4006  -22.7787  -50.5545 H         1 UNK         0.0600 
    213 H213        1.5471  -23.0172  -51.8679 H         1 UNK         0.0600 
    214 H214        1.4387  -24.2006  -50.5713 H         1 UNK         0.0600 
    215 H215       -0.9577  -24.8026  -54.3505 H         1 UNK         0.3000 
    216 H216       -2.2932  -24.0507  -55.9316 H         1 UNK         0.0600 
    217 H217       -2.4964  -21.6599  -56.4581 H         1 UNK         0.0600 
    218 H218       -0.8282  -22.0335  -56.0531 H         1 UNK         0.0600 
    219 H219       -1.8594  -21.2182  -54.8822 H         1 UNK         0.0600 
    220 H220       -3.3158  -25.1117  -53.6367 H         1 UNK         0.3000 
    221 H221       -5.1890  -25.8173  -52.8181 H         1 UNK         0.0600 
    222 H222       -6.6899  -23.9347  -54.7054 H         1 UNK         0.0600 
    223 H223       -6.1587  -25.5725  -55.0888 H         1 UNK         0.0600 
    224 H224       -7.3703  -25.3058  -53.8452 H         1 UNK         0.0600 
    225 H225       -5.0084  -22.2538  -52.7936 H         1 UNK         0.3000 
    226 H226       -5.8986  -22.1580  -50.0168 H         1 UNK         0.0600 
    227 H227       -7.7938  -20.5805  -50.5247 H         1 UNK         0.0600 
    228 H228       -7.5413  -20.8181  -52.2508 H         1 UNK         0.0600 
    229 H229       -8.0959  -22.1507  -51.2412 H         1 UNK         0.0600 
    230 H230       -5.8606  -19.8222  -49.2652 H         1 UNK         0.3000 
    231 H231       -3.3704  -18.6065  -49.8438 H         1 UNK         0.0600 
    232 H232       -4.4721  -18.4472  -47.6322 H         1 UNK         0.0600 
    233 H233       -5.8218  -17.5519  -48.3288 H         1 UNK         0.0600 
    234 H234       -4.2165  -16.8368  -48.2728 H         1 UNK         0.0600 
    235 H235       -6.4470  -18.1830  -51.3949 H         1 UNK         0.3000 
    236 H236       -5.9314  -15.5975  -52.6167 H         1 UNK         0.0600 
    237 H237       -8.2427  -16.4489  -52.2745 H         1 UNK         0.0600 
    238 H238       -7.9308  -16.2057  -53.9854 H         1 UNK         0.0600 
    239 H239       -7.9136  -17.8334  -53.3170 H         1 UNK         0.0600 
    240 H240       -4.8533  -18.8448  -53.2046 H         1 UNK         0.3000 
    241 H241       -3.6435  -19.8578  -54.6605 H         1 UNK         0.0600 
    242 H242       -6.2543  -19.3751  -57.4408 H         1 UNK         0.3800 
    243 H243       -6.4170  -19.0650  -55.7315 H         1 UNK         0.3800 
    244 H244       -2.6327  -17.1396  -55.6053 H         1 UNK         0.0800 
    245 H245       -1.8234  -18.6654  -55.8296 H         1 UNK         0.0800 
    246 H246       -0.4164  -19.9624  -53.7126 H         1 UNK         0.0800 
    247 H247        0.3060  -18.7115  -54.7060 H         1 UNK         0.0800 
@<TRIPOS>BOND
     1    1    2 1    
     2    1  127 1    
     3    1  128 1    
     4    1  129 1    
     5    2    3 2    
     6    2    4 am   BACKBONE|DICT|INTERRES
     7    4    5 1    
     8    4  130 1    
     9    5    6 1    
    10    5   65 1    
    11    5  131 1    
    12    6    7 1    
    13    6  132 1    
    14    6  133 1    
    15    7    8 1    
    16    8    9 1    
    17    8  134 1    
    18    8  135 1    
    19    9   10 ar   
    20    9   14 ar   
    21   10   11 ar   
    22   10  136 1    
    23   11   12 ar   
    24   11  126 1    
    25   12   13 ar   
    26   12  137 1    
    27   13   14 ar   
    28   13   15 1    
    29   14  138 1    
    30   15   16 1    
    31   15  139 1    
    32   15  140 1    
    33   16   17 1    
    34   17   18 1    
    35   17  141 1    
    36   17  142 1    
    37   18   19 1    
    38   18   67 1    
    39   18  143 1    
    40   19   20 am   BACKBONE|DICT|INTERRES
    41   19  144 1    
    42   20   21 2    
    43   20   22 1    
    44   22   23 1    
    45   22   24 1    
    46   22  145 1    
    47   23  146 1    
    48   23  147 1    
    49   23  148 1    
    50   24   25 am   BACKBONE|DICT|INTERRES
    51   24  149 1    
    52   25   26 2    
    53   25   27 1    
    54   27   28 1    
    55   27   29 1    
    56   27  150 1    
    57   28  151 1    
    58   28  152 1    
    59   28  153 1    
    60   29   30 am   BACKBONE|DICT|INTERRES
    61   29  154 1    
    62   30   31 2    
    63   30   32 1    
    64   32   33 1    
    65   32   34 1    
    66   32  155 1    
    67   33  156 1    
    68   33  157 1    
    69   33  158 1    
    70   34   35 am   BACKBONE|DICT|INTERRES
    71   34  159 1    
    72   35   36 2    
    73   35   37 1    
    74   37   38 1    
    75   37   39 1    
    76   37  160 1    
    77   38  161 1    
    78   38  162 1    
    79   38  163 1    
    80   39   40 am   BACKBONE|DICT|INTERRES
    81   39  164 1    
    82   40   41 2    
    83   40   42 1    
    84   42   43 1    
    85   42   44 1    
    86   42  165 1    
    87   43  166 1    
    88   43  167 1    
    89   43  168 1    
    90   44   45 am   BACKBONE|DICT|INTERRES
    91   44  169 1    
    92   45   46 2    
    93   45   47 1    
    94   47   48 1    
    95   47   49 1    
    96   47  170 1    
    97   48  171 1    
    98   48  172 1    
    99   48  173 1    
   100   49   50 am   BACKBONE|DICT|INTERRES
   101   49  174 1    
   102   50   51 2    
   103   50   52 1    
   104   52   53 1    
   105   52   54 1    
   106   52  175 1    
   107   53  176 1    
   108   53  177 1    
   109   53  178 1    
   110   54   55 am   BACKBONE|DICT|INTERRES
   111   54  179 1    
   112   55   56 2    
   113   55   57 1    
   114   57   58 1    
   115   57   59 1    
   116   57  180 1    
   117   58  181 1    
   118   58  182 1    
   119   58  183 1    
   120   59   60 am   BACKBONE|DICT|INTERRES
   121   59  184 1    
   122   60   61 2    
   123   60   62 1    
   124   62   63 1    
   125   62   64 1    
   126   62  185 1    
   127   63  186 1    
   128   63  187 1    
   129   63  188 1    
   130   64   65 am   BACKBONE|DICT|INTERRES
   131   64  189 1    
   132   65   66 2    
   133   67   68 2    
   134   67   69 am   BACKBONE|DICT|INTERRES
   135   69   70 1    
   136   69  190 1    
   137   70   71 1    
   138   70   72 1    
   139   70  191 1    
   140   71  192 1    
   141   71  193 1    
   142   71  194 1    
   143   72   73 2    
   144   72   74 am   BACKBONE|DICT|INTERRES
   145   74   75 1    
   146   74  195 1    
   147   75   76 1    
   148   75   77 1    
   149   75  196 1    
   150   76  197 1    
   151   76  198 1    
   152   76  199 1    
   153   77   78 2    
   154   77   79 am   BACKBONE|DICT|INTERRES
   155   79   80 1    
   156   79  200 1    
   157   80   81 1    
   158   80   82 1    
   159   80  201 1    
   160   81  202 1    
   161   81  203 1    
   162   81  204 1    
   163   82   83 2    
   164   82   84 am   BACKBONE|DICT|INTERRES
   165   84   85 1    
   166   84  205 1    
   167   85   86 1    
   168   85   87 1    
   169   85  206 1    
   170   86  207 1    
   171   86  208 1    
   172   86  209 1    
   173   87   88 2    
   174   87   89 am   BACKBONE|DICT|INTERRES
   175   89   90 1    
   176   89  210 1    
   177   90   91 1    
   178   90   92 1    
   179   90  211 1    
   180   91  212 1    
   181   91  213 1    
   182   91  214 1    
   183   92   93 2    
   184   92   94 am   BACKBONE|DICT|INTERRES
   185   94   95 1    
   186   94  215 1    
   187   95   96 1    
   188   95   97 1    
   189   95  216 1    
   190   96  217 1    
   191   96  218 1    
   192   96  219 1    
   193   97   98 2    
   194   97   99 am   BACKBONE|DICT|INTERRES
   195   99  100 1    
   196   99  220 1    
   197  100  101 1    
   198  100  102 1    
   199  100  221 1    
   200  101  222 1    
   201  101  223 1    
   202  101  224 1    
   203  102  103 2    
   204  102  104 am   BACKBONE|DICT|INTERRES
   205  104  105 1    
   206  104  225 1    
   207  105  106 1    
   208  105  107 1    
   209  105  226 1    
   210  106  227 1    
   211  106  228 1    
   212  106  229 1    
   213  107  108 2    
   214  107  109 am   BACKBONE|DICT|INTERRES
   215  109  110 1    
   216  109  230 1    
   217  110  111 1    
   218  110  112 1    
   219  110  231 1    
   220  111  232 1    
   221  111  233 1    
   222  111  234 1    
   223  112  113 2    
   224  112  114 am   BACKBONE|DICT|INTERRES
   225  114  115 1    
   226  114  235 1    
   227  115  116 1    
   228  115  117 1    
   229  115  236 1    
   230  116  237 1    
   231  116  238 1    
   232  116  239 1    
   233  117  118 2    
   234  117  119 am   BACKBONE|DICT|INTERRES
   235  119  120 1    
   236  119  240 1    
   237  120  121 1    
   238  120  124 1    
   239  120  241 1    
   240  121  122 am   BACKBONE|DICT|INTERRES
   241  121  123 2    
   242  122  242 1    
   243  122  243 1    
   244  124  125 1    
   245  124  244 1    
   246  124  245 1    
   247  125  126 1    
   248  126  246 1    
   249  126  247 1    
@<TRIPOS>SUBSTRUCTURE
     1 UNK         1 GROUP             0       ****    0 ROOT    
