@<TRIPOS>MOLECULE
3R540
247   249    1
SMALL
USER_CHARGES


@<TRIPOS>ATOM
      1 CA          8.2363  -15.2052  -47.9729 C.3       0 UNK        -0.1800 
      2 C           6.7291  -15.4045  -48.0293 C.2       0 UNK         0.5000 
      3 O           6.1299  -15.8269  -47.0400 O.2       0 UNK        -0.5000 
      4 N           6.1073  -15.0890  -49.1746 N.am      1 UNK        -0.5000 
      5 CA          4.6619  -15.2229  -49.4002 C.3       1 UNK         0.1400 
      6 C6          4.2742  -14.9865  -50.8840 C.3       23 UNK        -0.0398 
      7 S7          2.8306  -15.9805  -51.3884 S.3       23 UNK        -0.2404 
      8 C8          1.4545  -14.8156  -51.0853 C.3       23 UNK        -0.0205 
      9 C9          0.1415  -15.4782  -50.6703 C.ar      23 UNK        -0.0193 
     10 C10        -1.0599  -14.8111  -50.9298 C.ar      23 UNK        -0.1150 
     11 C11        -2.2849  -15.3656  -50.5483 C.ar      23 UNK        -0.0193 
     12 C12        -2.3067  -16.6020  -49.8996 C.ar      23 UNK        -0.1150 
     13 C13        -1.1169  -17.2812  -49.6307 C.ar      23 UNK        -0.0193 
     14 C14         0.1024  -16.7105  -50.0026 C.ar      23 UNK        -0.1150 
     15 C15        -1.1593  -18.6387  -48.9533 C.3       23 UNK        -0.0205 
     16 S16        -1.2028  -18.4705  -47.1436 S.3       23 UNK        -0.2404 
     17 C17        -2.2445  -19.8930  -46.6949 C.3       23 UNK        -0.0398 
     18 CA         -1.4236  -21.1880  -46.5050 C.3       11 UNK         0.1400 
     19 N          -0.4778  -21.1133  -45.3876 N.am      11 UNK        -0.5000 
     20 C           0.4910  -22.0099  -45.1530 C.2       10 UNK         0.5000 
     21 O           0.7184  -22.9757  -45.8805 O.2       10 UNK        -0.5000 
     22 CA          1.3053  -21.8274  -43.8593 C.3       10 UNK         0.1400 
     23 CB          2.3883  -20.7572  -44.0463 C.3       10 UNK        -0.1800 
     24 N           0.4623  -21.4624  -42.7215 N.am      10 UNK        -0.5000 
     25 C          -0.4795  -22.2513  -42.1850 C.2       9 UNK         0.5000 
     26 O          -0.6915  -23.4065  -42.5497 O.2       9 UNK        -0.5000 
     27 CA         -1.3705  -21.6220  -41.0978 C.3       9 UNK         0.1400 
     28 CB         -0.7507  -21.8247  -39.7079 C.3       9 UNK        -0.1800 
     29 N          -1.6072  -20.1939  -41.3151 N.am      9 UNK        -0.5000 
     30 C          -2.2145  -19.6557  -42.3797 C.2       8 UNK         0.5000 
     31 O          -2.6997  -20.3308  -43.2880 O.2       8 UNK        -0.5000 
     32 CA         -2.2356  -18.1180  -42.4871 C.3       8 UNK         0.1400 
     33 CB         -3.4970  -17.5288  -41.8309 C.3       8 UNK        -0.1800 
     34 N          -1.0159  -17.4541  -42.0047 N.am      8 UNK        -0.5000 
     35 C          -0.5324  -17.3566  -40.7570 C.2       7 UNK         0.5000 
     36 O          -1.0571  -17.8754  -39.7712 O.2       7 UNK        -0.5000 
     37 CA          0.7779  -16.5687  -40.5856 C.3       7 UNK         0.1400 
     38 CB          1.9864  -17.4833  -40.8406 C.3       7 UNK        -0.1800 
     39 N           0.8549  -15.3983  -41.4606 N.am      7 UNK        -0.5000 
     40 C           0.0875  -14.3055  -41.3374 C.2       6 UNK         0.5000 
     41 O          -0.7337  -14.1439  -40.4335 O.2       6 UNK        -0.5000 
     42 CA          0.2547  -13.2124  -42.4090 C.3       6 UNK         0.1400 
     43 CB          1.4499  -12.3056  -42.0791 C.3       6 UNK        -0.1800 
     44 N           0.4073  -13.7618  -43.7570 N.am      6 UNK        -0.5000 
     45 C          -0.5637  -14.3975  -44.4295 C.2       5 UNK         0.5000 
     46 O          -1.7123  -14.5329  -44.0070 O.2       5 UNK        -0.5000 
     47 CA         -0.1853  -15.0108  -45.7901 C.3       5 UNK         0.1400 
     48 CB         -0.2607  -13.9603  -46.9079 C.3       5 UNK        -0.1800 
     49 N           1.1406  -15.6279  -45.7891 N.am      5 UNK        -0.5000 
     50 C           1.4924  -16.6866  -45.0469 C.2       4 UNK         0.5000 
     51 O           0.7263  -17.2806  -44.2872 O.2       4 UNK        -0.5000 
     52 CA          2.9679  -17.1195  -45.1238 C.3       4 UNK         0.1400 
     53 CB          3.2400  -17.9234  -46.4050 C.3       4 UNK        -0.1800 
     54 N           3.8910  -15.9866  -45.0357 N.am      4 UNK        -0.5000 
     55 C           3.9943  -15.1784  -43.9701 C.2       3 UNK         0.5000 
     56 O           3.3542  -15.3322  -42.9309 O.2       3 UNK        -0.5000 
     57 CA          4.9268  -13.9631  -44.1035 C.3       3 UNK         0.1400 
     58 CB          6.3903  -14.3535  -43.8478 C.3       3 UNK        -0.1800 
     59 N           4.8018  -13.3238  -45.4123 N.am      3 UNK        -0.5000 
     60 C           3.7180  -12.6462  -45.8175 C.2       2 UNK         0.5000 
     61 O           2.7305  -12.4481  -45.1108 O.2       2 UNK        -0.5000 
     62 CA          3.7206  -12.1463  -47.2735 C.3       2 UNK         0.1400 
     63 CB          4.4450  -10.7966  -47.3836 C.3       2 UNK        -0.1800 
     64 N           4.3308  -13.1033  -48.1982 N.am      2 UNK        -0.5000 
     65 C           3.8393  -14.3250  -48.4520 C.2       1 UNK         0.5000 
     66 O           2.8087  -14.7608  -47.9415 O.2       1 UNK        -0.5000 
     67 C          -2.3663  -22.3954  -46.3647 C.2       11 UNK         0.5000 
     68 O          -2.6190  -23.0747  -47.3582 O.2       11 UNK        -0.5000 
     69 N          -2.8406  -22.6608  -45.1393 N.am      12 UNK        -0.5000 
     70 CA         -3.6743  -23.8187  -44.8124 C.3       12 UNK         0.1400 
     71 CB         -4.2006  -23.6850  -43.3757 C.3       12 UNK        -0.1800 
     72 C          -2.9367  -25.1575  -45.0088 C.2       12 UNK         0.5000 
     73 O          -3.5321  -26.1058  -45.5205 O.2       12 UNK        -0.5000 
     74 N          -1.6525  -25.2003  -44.6256 N.am      13 UNK        -0.5000 
     75 CA         -0.7623  -26.3444  -44.8203 C.3       13 UNK         0.1400 
     76 CB          0.5188  -26.1467  -43.9957 C.3       13 UNK        -0.1800 
     77 C          -0.4259  -26.5902  -46.3025 C.2       13 UNK         0.5000 
     78 O          -0.4277  -27.7427  -46.7374 O.2       13 UNK        -0.5000 
     79 N          -0.1529  -25.5110  -47.0511 N.am      14 UNK        -0.5000 
     80 CA          0.1122  -25.5482  -48.4908 C.3       14 UNK         0.1400 
     81 CB          0.6498  -24.1844  -48.9521 C.3       14 UNK        -0.1800 
     82 C          -1.1304  -25.9394  -49.3098 C.2       14 UNK         0.5000 
     83 O          -1.0151  -26.7245  -50.2520 O.2       14 UNK        -0.5000 
     84 N          -2.2869  -25.3763  -48.9321 N.am      15 UNK        -0.5000 
     85 CA         -3.6401  -25.5490  -49.4706 C.3       15 UNK         0.1400 
     86 CB         -4.1136  -27.0083  -49.3443 C.3       15 UNK        -0.1800 
     87 C          -3.8334  -25.0213  -50.9039 C.2       15 UNK         0.5000 
     88 O          -4.8002  -24.3020  -51.1547 O.2       15 UNK        -0.5000 
     89 N          -2.9159  -25.3710  -51.8133 N.am      16 UNK        -0.5000 
     90 CA         -2.9582  -25.0725  -53.2452 C.3       16 UNK         0.1400 
     91 CB         -1.7440  -25.7154  -53.9312 C.3       16 UNK        -0.1800 
     92 C          -3.0324  -23.5716  -53.5719 C.2       16 UNK         0.5000 
     93 O          -3.7798  -23.1910  -54.4700 O.2       16 UNK        -0.5000 
     94 N          -2.2913  -22.7463  -52.8192 N.am      17 UNK        -0.5000 
     95 CA         -2.2725  -21.2877  -52.9659 C.3       17 UNK         0.1400 
     96 CB         -1.1581  -20.7052  -52.0823 C.3       17 UNK        -0.1800 
     97 C          -3.6240  -20.6323  -52.6276 C.2       17 UNK         0.5000 
     98 O          -4.0253  -19.6736  -53.2891 O.2       17 UNK        -0.5000 
     99 N          -4.3086  -21.1756  -51.6132 N.am      18 UNK        -0.5000 
    100 CA        -5.6399  -20.7427  -51.2041 C.3       18 UNK         0.1400 
    101 CB        -5.9074  -21.1950  -49.7603 C.3       18 UNK        -0.1800 
    102 C         -6.7187  -21.2685  -52.1662 C.2       18 UNK         0.5000 
    103 O         -7.5816  -20.4969  -52.5874 O.2       18 UNK        -0.5000 
    104 N         -6.6351  -22.5624  -52.5066 N.am      19 UNK        -0.5000 
    105 CA        -7.5746  -23.2664  -53.3805 C.3       19 UNK         0.1400 
    106 CB        -7.2769  -24.7727  -53.3326 C.3       19 UNK        -0.1800 
    107 C         -7.5635  -22.7618  -54.8345 C.2       19 UNK         0.5000 
    108 O         -8.6243  -22.6915  -55.4564 O.2       19 UNK        -0.5000 
    109 N         -6.3781  -22.4070  -55.3416 N.am      20 UNK        -0.5000 
    110 CA        -6.1568  -21.8730  -56.6789 C.3       20 UNK         0.1400 
    111 CB        -5.5605  -22.9829  -57.5648 C.3       20 UNK        -0.1800 
    112 C         -5.2374  -20.6396  -56.5685 C.2       20 UNK         0.5000 
    113 O         -4.0350  -20.7595  -56.8014 O.2       20 UNK        -0.5000 
    114 N         -5.7484  -19.4582  -56.1975 N.am      21 UNK        -0.5000 
    115 CA        -7.1419  -19.1209  -55.8935 C.3       21 UNK         0.1400 
    116 CB        -7.9018  -18.8108  -57.2014 C.3       21 UNK        -0.1800 
    117 C         -7.2017  -17.9438  -54.9002 C.2       21 UNK         0.5000 
    118 O         -8.1364  -17.1429  -54.9599 O.2       21 UNK        -0.5000 
    119 N         -6.1878  -17.8227  -54.0323 N.am      22 UNK        -0.5000 
    120 CA        -6.0212  -16.6935  -53.1029 C.3       22 UNK         0.1400 
    121 C         -6.9423  -16.7235  -51.8445 C.2       22 UNK         0.5000 
    122 N         -7.7036  -17.7804  -51.5895 N.am      22 UNK        -0.7600 
    123 O         -6.9854  -15.7581  -51.0878 O.2       22 UNK        -0.5000 
    124 C124       -4.5247  -16.4975  -52.7407 C.3       23 UNK        -0.0398 
    125 S125       -4.0516  -14.7399  -52.5892 S.3       23 UNK        -0.2404 
    126 C126       -3.5826  -14.6257  -50.8347 C.3       23 UNK        -0.0205 
    127 H127        8.4923  -14.5124  -47.1712 H         1 UNK         0.0600 
    128 H128        8.6281  -14.8048  -48.9081 H         1 UNK         0.0600 
    129 H129        8.7317  -16.1555  -47.7744 H         1 UNK         0.0600 
    130 H130        6.6513  -14.7450  -49.9533 H         1 UNK         0.3000 
    131 H131        4.4195  -16.2573  -49.1457 H         1 UNK         0.0600 
    132 H132        4.1108  -13.9304  -51.1079 H         1 UNK         0.0800 
    133 H133        5.0924  -15.2985  -51.5344 H         1 UNK         0.0800 
    134 H134        1.7214  -14.1009  -50.3084 H         1 UNK         0.0800 
    135 H135        1.3042  -14.2326  -51.9953 H         1 UNK         0.0800 
    136 H136       -1.0454  -13.8536  -51.4316 H         1 UNK         0.1150 
    137 H137       -3.2497  -17.0388  -49.6023 H         1 UNK         0.1150 
    138 H138        1.0173  -17.2340  -49.7668 H         1 UNK         0.1150 
    139 H139       -2.0320  -19.1846  -49.3138 H         1 UNK         0.0800 
    140 H140       -0.2898  -19.2345  -49.2352 H         1 UNK         0.0800 
    141 H141       -3.0134  -20.0235  -47.4585 H         1 UNK         0.0800 
    142 H142       -2.7831  -19.6391  -45.7818 H         1 UNK         0.0800 
    143 H143       -0.8407  -21.3483  -47.4147 H         1 UNK         0.0600 
    144 H144       -0.6182  -20.3589  -44.7324 H         1 UNK         0.3000 
    145 H145        1.7936  -22.7774  -43.6324 H         1 UNK         0.0600 
    146 H146        3.0341  -20.9942  -44.8928 H         1 UNK         0.0600 
    147 H147        3.0230  -20.6765  -43.1637 H         1 UNK         0.0600 
    148 H148        1.9447  -19.7799  -44.2314 H         1 UNK         0.0600 
    149 H149        0.5614  -20.5254  -42.3612 H         1 UNK         0.3000 
    150 H150       -2.3368  -22.1286  -41.1223 H         1 UNK         0.0600 
    151 H151        0.2073  -21.3114  -39.6152 H         1 UNK         0.0600 
    152 H152       -0.5786  -22.8831  -39.5074 H         1 UNK         0.0600 
    153 H153       -1.4091  -21.4488  -38.9245 H         1 UNK         0.0600 
    154 H154       -1.2818  -19.5532  -40.5965 H         1 UNK         0.3000 
    155 H155       -2.2839  -17.8856  -43.5524 H         1 UNK         0.0600 
    156 H156       -3.5397  -17.7399  -40.7622 H         1 UNK         0.0600 
    157 H157       -4.3987  -17.9459  -42.2810 H         1 UNK         0.0600 
    158 H158       -3.5377  -16.4472  -41.9623 H         1 UNK         0.0600 
    159 H159       -0.4344  -17.0747  -42.7478 H         1 UNK         0.3000 
    160 H160        0.8253  -16.2226  -39.5510 H         1 UNK         0.0600 
    161 H161        2.0158  -17.8364  -41.8719 H         1 UNK         0.0600 
    162 H162        1.9583  -18.3605  -40.1928 H         1 UNK         0.0600 
    163 H163        2.9227  -16.9621  -40.6404 H         1 UNK         0.0600 
    164 H164        1.5599  -15.4234  -42.1920 H         1 UNK         0.3000 
    165 H165       -0.6471  -12.5967  -42.3974 H         1 UNK         0.0600 
    166 H166        1.5198  -11.4754  -42.7821 H         1 UNK         0.0600 
    167 H167        1.3525  -11.8781  -41.0805 H         1 UNK         0.0600 
    168 H168        2.3925  -12.8524  -42.1123 H         1 UNK         0.0600 
    169 H169        1.3116  -13.6377  -44.1994 H         1 UNK         0.3000 
    170 H170       -0.9160  -15.7899  -46.0111 H         1 UNK         0.0600 
    171 H171       -0.0756  -14.4123  -47.8824 H         1 UNK         0.0600 
    172 H172        0.4717  -13.1655  -46.7634 H         1 UNK         0.0600 
    173 H173       -1.2481  -13.4990  -46.9463 H         1 UNK         0.0600 
    174 H174        1.8239  -15.2338  -46.4319 H         1 UNK         0.3000 
    175 H175        3.1693  -17.7661  -44.2680 H         1 UNK         0.0600 
    176 H176        2.5794  -18.7887  -46.4711 H         1 UNK         0.0600 
    177 H177        3.0780  -17.3253  -47.3012 H         1 UNK         0.0600 
    178 H178        4.2658  -18.2915  -46.4292 H         1 UNK         0.0600 
    179 H179        4.4826  -15.8104  -45.8412 H         1 UNK         0.3000 
    180 H180        4.6365  -13.2358  -43.3423 H         1 UNK         0.0600 
    181 H181        6.7506  -15.0844  -44.5716 H         1 UNK         0.0600 
    182 H182        6.5062  -14.7924  -42.8561 H         1 UNK         0.0600 
    183 H183        7.0447  -13.4830  -43.8959 H         1 UNK         0.0600 
    184 H184        5.5476  -13.4876  -46.0720 H         1 UNK         0.3000 
    185 H185        2.6811  -12.0021  -47.5761 H         1 UNK         0.0600 
    186 H186        3.9981  -10.0590  -46.7156 H         1 UNK         0.0600 
    187 H187        5.5001  -10.8815  -47.1203 H         1 UNK         0.0600 
    188 H188        4.3820  -10.3967  -48.3958 H         1 UNK         0.0600 
    189 H189        5.1926  -12.8238  -48.6435 H         1 UNK         0.3000 
    190 H190       -2.6270  -22.0170  -44.3841 H         1 UNK         0.3000 
    191 H191       -4.5318  -23.8101  -45.4886 H         1 UNK         0.0600 
    192 H192       -4.7379  -22.7467  -43.2366 H         1 UNK         0.0600 
    193 H193       -4.8911  -24.4952  -43.1385 H         1 UNK         0.0600 
    194 H194       -3.3931  -23.7206  -42.6451 H         1 UNK         0.0600 
    195 H195       -1.2611  -24.3996  -44.1389 H         1 UNK         0.3000 
    196 H196       -1.2714  -27.2340  -44.4433 H         1 UNK         0.0600 
    197 H197        1.1952  -26.9940  -44.1145 H         1 UNK         0.0600 
    198 H198        0.2927  -26.0576  -42.9330 H         1 UNK         0.0600 
    199 H199        1.0591  -25.2492  -44.2981 H         1 UNK         0.0600 
    200 H200       -0.0998  -24.6016  -46.6015 H         1 UNK         0.3000 
    201 H201        0.8841  -26.2984  -48.6748 H         1 UNK         0.0600 
    202 H202        0.8664  -24.1896  -50.0211 H         1 UNK         0.0600 
    203 H203        1.5751  -23.9312  -48.4344 H         1 UNK         0.0600 
    204 H204       -0.0664  -23.3836  -48.7650 H         1 UNK         0.0600 
    205 H205       -2.2400  -24.6803  -48.1910 H         1 UNK         0.3000 
    206 H206       -4.2833  -24.9438  -48.8296 H         1 UNK         0.0600 
    207 H207       -4.0475  -27.3525  -48.3118 H         1 UNK         0.0600 
    208 H208       -5.1545  -27.1070  -49.6547 H         1 UNK         0.0600 
    209 H209       -3.5238  -27.6859  -49.9620 H         1 UNK         0.0600 
    210 H210       -2.1503  -25.9564  -51.4873 H         1 UNK         0.3000 
    211 H211       -3.8597  -25.5389  -53.6467 H         1 UNK         0.0600 
    212 H212       -0.8052  -25.3245  -53.5368 H         1 UNK         0.0600 
    213 H213       -1.7551  -25.5257  -55.0054 H         1 UNK         0.0600 
    214 H214       -1.7404  -26.7968  -53.7928 H         1 UNK         0.0600 
    215 H215       -1.7101  -23.1450  -52.0972 H         1 UNK         0.3000 
    216 H216       -2.0452  -21.0534  -54.0082 H         1 UNK         0.0600 
    217 H217       -1.1302  -19.6166  -52.1522 H         1 UNK         0.0600 
    218 H218       -0.1793  -21.0744  -52.3885 H         1 UNK         0.0600 
    219 H219       -1.3003  -20.9642  -51.0326 H         1 UNK         0.0600 
    220 H220       -3.9384  -21.9999  -51.1624 H         1 UNK         0.3000 
    221 H221       -5.6688  -19.6518  -51.2216 H         1 UNK         0.0600 
    222 H222       -5.8794  -22.2805  -49.6607 H         1 UNK         0.0600 
    223 H223       -5.1695  -20.7781  -49.0746 H         1 UNK         0.0600 
    224 H224       -6.8894  -20.8597  -49.4244 H         1 UNK         0.0600 
    225 H225       -5.9016  -23.1295  -52.0874 H         1 UNK         0.3000 
    226 H226       -8.5791  -23.1057  -52.9836 H         1 UNK         0.0600 
    227 H227       -7.9817  -25.3313  -53.9497 H         1 UNK         0.0600 
    228 H228       -6.2732  -24.9938  -53.6965 H         1 UNK         0.0600 
    229 H229       -7.3566  -25.1587  -52.3161 H         1 UNK         0.0600 
    230 H230       -5.5365  -22.5274  -54.7825 H         1 UNK         0.3000 
    231 H231       -7.0976  -21.5692  -57.1358 H         1 UNK         0.0600 
    232 H232       -4.6283  -23.3729  -57.1538 H         1 UNK         0.0600 
    233 H233       -5.3498  -22.6105  -58.5678 H         1 UNK         0.0600 
    234 H234       -6.2536  -23.8181  -57.6661 H         1 UNK         0.0600 
    235 H235       -5.1087  -18.6816  -56.1096 H         1 UNK         0.3000 
    236 H236       -7.6299  -19.9544  -55.3907 H         1 UNK         0.0600 
    237 H237       -7.8411  -19.6234  -57.9231 H         1 UNK         0.0600 
    238 H238       -8.9610  -18.6386  -57.0062 H         1 UNK         0.0600 
    239 H239       -7.5082  -17.9157  -57.6846 H         1 UNK         0.0600 
    240 H240       -5.4786  -18.5491  -53.9784 H         1 UNK         0.3000 
    241 H241       -6.3366  -15.8067  -53.6563 H         1 UNK         0.0600 
    242 H242       -8.3047  -17.7643  -50.7816 H         1 UNK         0.3800 
    243 H243       -7.6920  -18.6016  -52.1859 H         1 UNK         0.3800 
    244 H244       -3.8883  -16.9039  -53.5281 H         1 UNK         0.0800 
    245 H245       -4.2619  -17.0605  -51.8451 H         1 UNK         0.0800 
    246 H246       -4.3952  -15.0062  -50.2137 H         1 UNK         0.0800 
    247 H247       -3.4632  -13.5744  -50.5690 H         1 UNK         0.0800 
@<TRIPOS>BOND
     1    1    2 1    
     2    1  127 1    
     3    1  128 1    
     4    1  129 1    
     5    2    3 2    
     6    2    4 am   BACKBONE|DICT|INTERRES
     7    4    5 1    
     8    4  130 1    
     9    5    6 1    
    10    5   65 1    
    11    5  131 1    
    12    6    7 1    
    13    6  132 1    
    14    6  133 1    
    15    7    8 1    
    16    8    9 1    
    17    8  134 1    
    18    8  135 1    
    19    9   10 ar   
    20    9   14 ar   
    21   10   11 ar   
    22   10  136 1    
    23   11   12 ar   
    24   11  126 1    
    25   12   13 ar   
    26   12  137 1    
    27   13   14 ar   
    28   13   15 1    
    29   14  138 1    
    30   15   16 1    
    31   15  139 1    
    32   15  140 1    
    33   16   17 1    
    34   17   18 1    
    35   17  141 1    
    36   17  142 1    
    37   18   19 1    
    38   18   67 1    
    39   18  143 1    
    40   19   20 am   BACKBONE|DICT|INTERRES
    41   19  144 1    
    42   20   21 2    
    43   20   22 1    
    44   22   23 1    
    45   22   24 1    
    46   22  145 1    
    47   23  146 1    
    48   23  147 1    
    49   23  148 1    
    50   24   25 am   BACKBONE|DICT|INTERRES
    51   24  149 1    
    52   25   26 2    
    53   25   27 1    
    54   27   28 1    
    55   27   29 1    
    56   27  150 1    
    57   28  151 1    
    58   28  152 1    
    59   28  153 1    
    60   29   30 am   BACKBONE|DICT|INTERRES
    61   29  154 1    
    62   30   31 2    
    63   30   32 1    
    64   32   33 1    
    65   32   34 1    
    66   32  155 1    
    67   33  156 1    
    68   33  157 1    
    69   33  158 1    
    70   34   35 am   BACKBONE|DICT|INTERRES
    71   34  159 1    
    72   35   36 2    
    73   35   37 1    
    74   37   38 1    
    75   37   39 1    
    76   37  160 1    
    77   38  161 1    
    78   38  162 1    
    79   38  163 1    
    80   39   40 am   BACKBONE|DICT|INTERRES
    81   39  164 1    
    82   40   41 2    
    83   40   42 1    
    84   42   43 1    
    85   42   44 1    
    86   42  165 1    
    87   43  166 1    
    88   43  167 1    
    89   43  168 1    
    90   44   45 am   BACKBONE|DICT|INTERRES
    91   44  169 1    
    92   45   46 2    
    93   45   47 1    
    94   47   48 1    
    95   47   49 1    
    96   47  170 1    
    97   48  171 1    
    98   48  172 1    
    99   48  173 1    
   100   49   50 am   BACKBONE|DICT|INTERRES
   101   49  174 1    
   102   50   51 2    
   103   50   52 1    
   104   52   53 1    
   105   52   54 1    
   106   52  175 1    
   107   53  176 1    
   108   53  177 1    
   109   53  178 1    
   110   54   55 am   BACKBONE|DICT|INTERRES
   111   54  179 1    
   112   55   56 2    
   113   55   57 1    
   114   57   58 1    
   115   57   59 1    
   116   57  180 1    
   117   58  181 1    
   118   58  182 1    
   119   58  183 1    
   120   59   60 am   BACKBONE|DICT|INTERRES
   121   59  184 1    
   122   60   61 2    
   123   60   62 1    
   124   62   63 1    
   125   62   64 1    
   126   62  185 1    
   127   63  186 1    
   128   63  187 1    
   129   63  188 1    
   130   64   65 am   BACKBONE|DICT|INTERRES
   131   64  189 1    
   132   65   66 2    
   133   67   68 2    
   134   67   69 am   BACKBONE|DICT|INTERRES
   135   69   70 1    
   136   69  190 1    
   137   70   71 1    
   138   70   72 1    
   139   70  191 1    
   140   71  192 1    
   141   71  193 1    
   142   71  194 1    
   143   72   73 2    
   144   72   74 am   BACKBONE|DICT|INTERRES
   145   74   75 1    
   146   74  195 1    
   147   75   76 1    
   148   75   77 1    
   149   75  196 1    
   150   76  197 1    
   151   76  198 1    
   152   76  199 1    
   153   77   78 2    
   154   77   79 am   BACKBONE|DICT|INTERRES
   155   79   80 1    
   156   79  200 1    
   157   80   81 1    
   158   80   82 1    
   159   80  201 1    
   160   81  202 1    
   161   81  203 1    
   162   81  204 1    
   163   82   83 2    
   164   82   84 am   BACKBONE|DICT|INTERRES
   165   84   85 1    
   166   84  205 1    
   167   85   86 1    
   168   85   87 1    
   169   85  206 1    
   170   86  207 1    
   171   86  208 1    
   172   86  209 1    
   173   87   88 2    
   174   87   89 am   BACKBONE|DICT|INTERRES
   175   89   90 1    
   176   89  210 1    
   177   90   91 1    
   178   90   92 1    
   179   90  211 1    
   180   91  212 1    
   181   91  213 1    
   182   91  214 1    
   183   92   93 2    
   184   92   94 am   BACKBONE|DICT|INTERRES
   185   94   95 1    
   186   94  215 1    
   187   95   96 1    
   188   95   97 1    
   189   95  216 1    
   190   96  217 1    
   191   96  218 1    
   192   96  219 1    
   193   97   98 2    
   194   97   99 am   BACKBONE|DICT|INTERRES
   195   99  100 1    
   196   99  220 1    
   197  100  101 1    
   198  100  102 1    
   199  100  221 1    
   200  101  222 1    
   201  101  223 1    
   202  101  224 1    
   203  102  103 2    
   204  102  104 am   BACKBONE|DICT|INTERRES
   205  104  105 1    
   206  104  225 1    
   207  105  106 1    
   208  105  107 1    
   209  105  226 1    
   210  106  227 1    
   211  106  228 1    
   212  106  229 1    
   213  107  108 2    
   214  107  109 am   BACKBONE|DICT|INTERRES
   215  109  110 1    
   216  109  230 1    
   217  110  111 1    
   218  110  112 1    
   219  110  231 1    
   220  111  232 1    
   221  111  233 1    
   222  111  234 1    
   223  112  113 2    
   224  112  114 am   BACKBONE|DICT|INTERRES
   225  114  115 1    
   226  114  235 1    
   227  115  116 1    
   228  115  117 1    
   229  115  236 1    
   230  116  237 1    
   231  116  238 1    
   232  116  239 1    
   233  117  118 2    
   234  117  119 am   BACKBONE|DICT|INTERRES
   235  119  120 1    
   236  119  240 1    
   237  120  121 1    
   238  120  124 1    
   239  120  241 1    
   240  121  122 am   BACKBONE|DICT|INTERRES
   241  121  123 2    
   242  122  242 1    
   243  122  243 1    
   244  124  125 1    
   245  124  244 1    
   246  124  245 1    
   247  125  126 1    
   248  126  246 1    
   249  126  247 1    
@<TRIPOS>SUBSTRUCTURE
     1 UNK         1 GROUP             0       ****    0 ROOT    
