@<TRIPOS>MOLECULE
3R540
247   249    1
SMALL
USER_CHARGES


@<TRIPOS>ATOM
      1 CA         -2.6946  -14.8930  -43.2920 C.3       0 UNK        -0.1800 
      2 C          -2.4448  -13.5115  -43.8768 C.2       0 UNK         0.5000 
      3 O          -2.7146  -12.5069  -43.2180 O.2       0 UNK        -0.5000 
      4 N          -1.9432  -13.4627  -45.1160 N.am      1 UNK        -0.5000 
      5 CA         -1.5521  -12.2401  -45.8221 C.3       1 UNK         0.1400 
      6 C6         -1.6105  -12.4254  -47.3626 C.3       23 UNK        -0.0398 
      7 S7         -0.5664  -13.7603  -48.0506 S.3       23 UNK        -0.2404 
      8 C8         -1.7394  -15.1560  -48.1194 C.3       23 UNK        -0.0205 
      9 C9         -1.2501  -16.2764  -49.0282 C.ar      23 UNK        -0.0193 
     10 C10        -1.9716  -16.6210  -50.1755 C.ar      23 UNK        -0.1150 
     11 C11        -1.5277  -17.6503  -51.0111 C.ar      23 UNK        -0.0193 
     12 C12        -0.3577  -18.3457  -50.6879 C.ar      23 UNK        -0.1150 
     13 C13         0.3763  -18.0074  -49.5476 C.ar      23 UNK        -0.0193 
     14 C14        -0.0803  -16.9770  -48.7213 C.ar      23 UNK        -0.1150 
     15 C15         1.7004  -18.6943  -49.2438 C.3       23 UNK        -0.0205 
     16 S16         1.6599  -19.6682  -47.7064 S.3       23 UNK        -0.2404 
     17 C17         1.0563  -21.2926  -48.2676 C.3       23 UNK        -0.0398 
     18 CA         -0.2004  -21.8155  -47.5303 C.3       11 UNK         0.1400 
     19 N          -0.1300  -21.7198  -46.0679 N.am      11 UNK        -0.5000 
     20 C          -0.8947  -22.4514  -45.2442 C.2       10 UNK         0.5000 
     21 O          -1.7183  -23.2796  -45.6353 O.2       10 UNK        -0.5000 
     22 CA         -0.7482  -22.1888  -43.7373 C.3       10 UNK         0.1400 
     23 CB          0.5669  -22.7681  -43.1941 C.3       10 UNK        -0.1800 
     24 N          -0.8409  -20.7660  -43.4158 N.am      10 UNK        -0.5000 
     25 C          -1.9720  -20.0517  -43.5067 C.2       9 UNK         0.5000 
     26 O          -3.0423  -20.5166  -43.8962 O.2       9 UNK        -0.5000 
     27 CA         -1.9009  -18.5629  -43.1216 C.3       9 UNK         0.1400 
     28 CB         -2.1329  -18.3882  -41.6135 C.3       9 UNK        -0.1800 
     29 N          -0.6420  -17.9192  -43.4927 N.am      9 UNK        -0.5000 
     30 C          -0.1643  -17.8331  -44.7417 C.2       8 UNK         0.5000 
     31 O          -0.7599  -18.2590  -45.7287 O.2       8 UNK        -0.5000 
     32 CA          1.2277  -17.1992  -44.9062 C.3       8 UNK         0.1400 
     33 CB          1.1062  -15.6738  -45.0029 C.3       8 UNK        -0.1800 
     34 N           2.1529  -17.5535  -43.8287 N.am      8 UNK        -0.5000 
     35 C           2.5243  -18.8010  -43.5025 C.2       7 UNK         0.5000 
     36 O           2.1144  -19.8128  -44.0715 O.2       7 UNK        -0.5000 
     37 CA          3.4837  -18.9410  -42.3102 C.3       7 UNK         0.1400 
     38 CB          4.9375  -18.6942  -42.7427 C.3       7 UNK        -0.1800 
     39 N           3.1238  -18.0115  -41.2406 N.am      7 UNK        -0.5000 
     40 C           2.1791  -18.2516  -40.3210 C.2       6 UNK         0.5000 
     41 O           1.5737  -19.3196  -40.2256 O.2       6 UNK        -0.5000 
     42 CA          1.8367  -17.0997  -39.3547 C.3       6 UNK         0.1400 
     43 CB          2.7347  -17.1558  -38.1097 C.3       6 UNK        -0.1800 
     44 N           1.9468  -15.7735  -39.9668 N.am      6 UNK        -0.5000 
     45 C           1.1640  -15.3302  -40.9601 C.2       5 UNK         0.5000 
     46 O           0.2511  -15.9912  -41.4536 O.2       5 UNK        -0.5000 
     47 CA          1.4826  -13.9339  -41.5302 C.3       5 UNK         0.1400 
     48 CB          0.7238  -12.8483  -40.7536 C.3       5 UNK        -0.1800 
     49 N           2.9087  -13.5902  -41.5830 N.am      5 UNK        -0.5000 
     50 C           3.8739  -14.3240  -42.1564 C.2       4 UNK         0.5000 
     51 O           3.6916  -15.4465  -42.6298 O.2       4 UNK        -0.5000 
     52 CA          5.2702  -13.6751  -42.2021 C.3       4 UNK         0.1400 
     53 CB          6.3659  -14.6332  -42.7171 C.3       4 UNK        -0.1800 
     54 N           5.2634  -12.4164  -42.9591 N.am      4 UNK        -0.5000 
     55 C           4.9863  -12.2482  -44.2621 C.2       3 UNK         0.5000 
     56 O           4.7103  -13.1635  -45.0385 O.2       3 UNK        -0.5000 
     57 CA          5.0299  -10.7921  -44.7650 C.3       3 UNK         0.1400 
     58 CB          5.7728  -10.6458  -46.1097 C.3       3 UNK        -0.1800 
     59 N           3.6888  -10.1985  -44.8000 N.am      3 UNK        -0.5000 
     60 C           2.6732  -10.4721  -45.6334 C.2       2 UNK         0.5000 
     61 O           2.7459  -11.2053  -46.6219 O.2       2 UNK        -0.5000 
     62 CA          1.3515   -9.7396  -45.3189 C.3       2 UNK         0.1400 
     63 CB          1.3368   -8.3531  -45.9826 C.3       2 UNK        -0.1800 
     64 N           0.1509  -10.4707  -45.7350 N.am      2 UNK        -0.5000 
     65 C          -0.1996  -11.6912  -45.3056 C.2       1 UNK         0.5000 
     66 O           0.4758  -12.3475  -44.5095 O.2       1 UNK        -0.5000 
     67 C          -1.5140  -21.2470  -48.0982 C.2       11 UNK         0.5000 
     68 O          -2.0074  -21.7963  -49.0829 O.2       11 UNK        -0.5000 
     69 N          -2.0955  -20.2284  -47.4466 N.am      12 UNK        -0.5000 
     70 CA         -3.4283  -19.7153  -47.7618 C.3       12 UNK         0.1400 
     71 CB         -3.7027  -18.4258  -46.9763 C.3       12 UNK        -0.1800 
     72 C          -4.5331  -20.7535  -47.4946 C.2       12 UNK         0.5000 
     73 O          -5.3773  -20.9690  -48.3632 O.2       12 UNK        -0.5000 
     74 N          -4.4926  -21.4026  -46.3203 N.am      13 UNK        -0.5000 
     75 CA         -5.4392  -22.4473  -45.9175 C.3       13 UNK         0.1400 
     76 CB         -5.2305  -22.7979  -44.4367 C.3       13 UNK        -0.1800 
     77 C          -5.3476  -23.7119  -46.7897 C.2       13 UNK         0.5000 
     78 O          -6.3796  -24.2883  -47.1351 O.2       13 UNK        -0.5000 
     79 N          -4.1190  -24.1013  -47.1557 N.am      14 UNK        -0.5000 
     80 CA         -3.8410  -25.2049  -48.0770 C.3       14 UNK         0.1400 
     81 CB         -2.3758  -25.6355  -47.9050 C.3       14 UNK        -0.1800 
     82 C          -4.1149  -24.8531  -49.5528 C.2       14 UNK         0.5000 
     83 O          -4.1260  -25.7551  -50.3905 O.2       14 UNK        -0.5000 
     84 N          -4.2710  -23.5568  -49.8581 N.am      15 UNK        -0.5000 
     85 CA         -4.4074  -22.9617  -51.1904 C.3       15 UNK         0.1400 
     86 CB         -5.7761  -23.3195  -51.7999 C.3       15 UNK        -0.1800 
     87 C          -3.2091  -23.2735  -52.1163 C.2       15 UNK         0.5000 
     88 O          -3.3893  -23.4977  -53.3162 O.2       15 UNK        -0.5000 
     89 N          -2.0125  -23.3180  -51.5104 N.am      16 UNK        -0.5000 
     90 CA         -0.7356  -23.7879  -52.0579 C.3       16 UNK         0.1400 
     91 CB         -0.2009  -22.8076  -53.1178 C.3       16 UNK        -0.1800 
     92 C          -0.8294  -25.2391  -52.5765 C.2       16 UNK         0.5000 
     93 O          -0.4381  -25.5201  -53.7089 O.2       16 UNK        -0.5000 
     94 N          -1.4047  -26.1234  -51.7473 N.am      17 UNK        -0.5000 
     95 CA         -1.7692  -27.5138  -52.0547 C.3       17 UNK         0.1400 
     96 CB         -0.5137  -28.3804  -52.2861 C.3       17 UNK        -0.1800 
     97 C          -2.7931  -27.5957  -53.2082 C.2       17 UNK         0.5000 
     98 O          -2.6504  -28.4137  -54.1182 O.2       17 UNK        -0.5000 
     99 N          -3.7888  -26.6998  -53.1487 N.am      18 UNK        -0.5000 
    100 CA        -4.8664  -26.4575  -54.1147 C.3       18 UNK         0.1400 
    101 CB        -5.7816  -27.6936  -54.2294 C.3       18 UNK        -0.1800 
    102 C         -4.4126  -25.9399  -55.4987 C.2       18 UNK         0.5000 
    103 O         -5.2501  -25.8341  -56.3963 O.2       18 UNK        -0.5000 
    104 N         -3.1237  -25.6141  -55.6674 N.am      19 UNK        -0.5000 
    105 CA        -2.5544  -25.1754  -56.9409 C.3       19 UNK         0.1400 
    106 CB        -1.0486  -25.4771  -56.9582 C.3       19 UNK        -0.1800 
    107 C         -2.7997  -23.6856  -57.2345 C.2       19 UNK         0.5000 
    108 O         -2.9237  -23.3237  -58.4056 O.2       19 UNK        -0.5000 
    109 N         -2.8417  -22.8471  -56.1896 N.am      20 UNK        -0.5000 
    110 CA        -2.9499  -21.3913  -56.3241 C.3       20 UNK         0.1400 
    111 CB        -2.0182  -20.7182  -55.3084 C.3       20 UNK        -0.1800 
    112 C         -4.3884  -20.8762  -56.1586 C.2       20 UNK         0.5000 
    113 O         -4.6793  -19.7790  -56.6365 O.2       20 UNK        -0.5000 
    114 N         -5.2550  -21.6637  -55.5002 N.am      21 UNK        -0.5000 
    115 CA        -6.6685  -21.3681  -55.2238 C.3       21 UNK         0.1400 
    116 CB        -7.4905  -21.3786  -56.5300 C.3       21 UNK        -0.1800 
    117 C         -6.8504  -20.0724  -54.3995 C.2       21 UNK         0.5000 
    118 O         -7.6371  -19.2003  -54.7721 O.2       21 UNK        -0.5000 
    119 N         -6.0835  -19.9676  -53.3053 N.am      22 UNK        -0.5000 
    120 CA        -5.9735  -18.7808  -52.4338 C.3       22 UNK         0.1400 
    121 C         -7.2772  -18.3524  -51.6952 C.2       22 UNK         0.5000 
    122 N         -8.2953  -19.1976  -51.5916 N.am      22 UNK        -0.7600 
    123 O         -7.3627  -17.2297  -51.2056 O.2       22 UNK        -0.5000 
    124 C124       -4.8163  -18.9147  -51.4062 C.3       23 UNK        -0.0398 
    125 S125       -3.2503  -19.5074  -52.1315 S.3       23 UNK        -0.2404 
    126 C126       -2.2791  -17.9822  -52.2910 C.3       23 UNK        -0.0205 
    127 H127       -2.0865  -15.0363  -42.3996 H         1 UNK         0.0600 
    128 H128       -2.4472  -15.6789  -44.0047 H         1 UNK         0.0600 
    129 H129       -3.7426  -15.0032  -43.0141 H         1 UNK         0.0600 
    130 H130       -1.6963  -14.3202  -45.5841 H         1 UNK         0.3000 
    131 H131       -2.2925  -11.4753  -45.5769 H         1 UNK         0.0600 
    132 H132       -1.3331  -11.4984  -47.8662 H         1 UNK         0.0800 
    133 H133       -2.6449  -12.6011  -47.6600 H         1 UNK         0.0800 
    134 H134       -2.7135  -14.7993  -48.4571 H         1 UNK         0.0800 
    135 H135       -1.8849  -15.5546  -47.1155 H         1 UNK         0.0800 
    136 H136       -2.8730  -16.0799  -50.4263 H         1 UNK         0.1150 
    137 H137       -0.0085  -19.1333  -51.3408 H         1 UNK         0.1150 
    138 H138        0.4873  -16.7102  -47.8429 H         1 UNK         0.1150 
    139 H139        2.0212  -19.3226  -50.0760 H         1 UNK         0.0800 
    140 H140        2.4673  -17.9257  -49.1388 H         1 UNK         0.0800 
    141 H141        1.8728  -21.9983  -48.1102 H         1 UNK         0.0800 
    142 H142        0.8919  -21.2814  -49.3467 H         1 UNK         0.0800 
    143 H143       -0.2380  -22.8828  -47.7597 H         1 UNK         0.0600 
    144 H144        0.5028  -21.0284  -45.6853 H         1 UNK         0.3000 
    145 H145       -1.5695  -22.7007  -43.2309 H         1 UNK         0.0600 
    146 H146        0.6579  -22.6018  -42.1205 H         1 UNK         0.0600 
    147 H147        0.6138  -23.8448  -43.3618 H         1 UNK         0.0600 
    148 H148        1.4386  -22.3261  -43.6763 H         1 UNK         0.0600 
    149 H149        0.0174  -20.2962  -43.1604 H         1 UNK         0.3000 
    150 H150       -2.7053  -18.0515  -43.6526 H         1 UNK         0.0600 
    151 H151       -3.0626  -18.8658  -41.3015 H         1 UNK         0.0600 
    152 H152       -2.2044  -17.3347  -41.3442 H         1 UNK         0.0600 
    153 H153       -1.3230  -18.8277  -41.0296 H         1 UNK         0.0600 
    154 H154       -0.1203  -17.4758  -42.7429 H         1 UNK         0.3000 
    155 H155        1.6658  -17.5603  -45.8354 H         1 UNK         0.0600 
    156 H156        0.5289  -15.2679  -44.1746 H         1 UNK         0.0600 
    157 H157        0.5920  -15.3846  -45.9170 H         1 UNK         0.0600 
    158 H158        2.0816  -15.1861  -45.0118 H         1 UNK         0.0600 
    159 H159        2.5828  -16.7791  -43.3292 H         1 UNK         0.3000 
    160 H160        3.4140  -19.9657  -41.9383 H         1 UNK         0.0600 
    161 H161        5.6239  -18.8182  -41.9051 H         1 UNK         0.0600 
    162 H162        5.0787  -17.6909  -43.1456 H         1 UNK         0.0600 
    163 H163        5.2369  -19.4018  -43.5168 H         1 UNK         0.0600 
    164 H164        3.5170  -17.0808  -41.3057 H         1 UNK         0.3000 
    165 H165        0.8013  -17.2364  -39.0352 H         1 UNK         0.0600 
    166 H166        2.4468  -16.3981  -37.3808 H         1 UNK         0.0600 
    167 H167        2.6574  -18.1256  -37.6162 H         1 UNK         0.0600 
    168 H168        3.7841  -16.9987  -38.3625 H         1 UNK         0.0600 
    169 H169        2.6798  -15.1699  -39.6249 H         1 UNK         0.3000 
    170 H170        1.1195  -13.9155  -42.5552 H         1 UNK         0.0600 
    171 H171       -0.3448  -13.0663  -40.7230 H         1 UNK         0.0600 
    172 H172        1.0748  -12.7680  -39.7242 H         1 UNK         0.0600 
    173 H173        0.8380  -11.8734  -41.2282 H         1 UNK         0.0600 
    174 H174        3.1552  -12.6798  -41.2237 H         1 UNK         0.3000 
    175 H175        5.5254  -13.4178  -41.1731 H         1 UNK         0.0600 
    176 H176        6.1683  -14.9752  -43.7333 H         1 UNK         0.0600 
    177 H177        7.3446  -14.1537  -42.7092 H         1 UNK         0.0600 
    178 H178        6.4334  -15.5199  -42.0856 H         1 UNK         0.0600 
    179 H179        5.4680  -11.5912  -42.4126 H         1 UNK         0.3000 
    180 H180        5.5932  -10.2060  -44.0369 H         1 UNK         0.0600 
    181 H181        5.3226  -11.2453  -46.9010 H         1 UNK         0.0600 
    182 H182        6.8090  -10.9713  -46.0123 H         1 UNK         0.0600 
    183 H183        5.7872   -9.6078  -46.4417 H         1 UNK         0.0600 
    184 H184        3.4984   -9.5625  -44.0381 H         1 UNK         0.3000 
    185 H185        1.2857   -9.6053  -44.2371 H         1 UNK         0.0600 
    186 H186        2.1983   -7.7597  -45.6735 H         1 UNK         0.0600 
    187 H187        1.3658   -8.4295  -47.0704 H         1 UNK         0.0600 
    188 H188        0.4436   -7.7915  -45.7080 H         1 UNK         0.0600 
    189 H189       -0.4442   -9.9951  -46.3965 H         1 UNK         0.3000 
    190 H190       -1.5943  -19.7661  -46.6933 H         1 UNK         0.3000 
    191 H191       -3.4411  -19.4701  -48.8253 H         1 UNK         0.0600 
    192 H192       -3.6785  -18.5942  -45.8997 H         1 UNK         0.0600 
    193 H193       -4.6821  -18.0160  -47.2259 H         1 UNK         0.0600 
    194 H194       -2.9631  -17.6637  -47.2107 H         1 UNK         0.0600 
    195 H195       -3.7869  -21.1483  -45.6354 H         1 UNK         0.3000 
    196 H196       -6.4474  -22.0431  -46.0294 H         1 UNK         0.0600 
    197 H197       -5.9188  -23.5816  -44.1180 H         1 UNK         0.0600 
    198 H198       -5.4085  -21.9320  -43.7990 H         1 UNK         0.0600 
    199 H199       -4.2166  -23.1518  -44.2460 H         1 UNK         0.0600 
    200 H200       -3.3151  -23.6163  -46.7669 H         1 UNK         0.3000 
    201 H201       -4.4802  -26.0505  -47.8153 H         1 UNK         0.0600 
    202 H202       -2.1665  -25.9164  -46.8726 H         1 UNK         0.0600 
    203 H203       -1.6878  -24.8350  -48.1788 H         1 UNK         0.0600 
    204 H204       -2.1432  -26.4997  -48.5284 H         1 UNK         0.0600 
    205 H205       -4.2156  -22.8897  -49.0995 H         1 UNK         0.3000 
    206 H206       -4.3909  -21.8854  -51.0344 H         1 UNK         0.0600 
    207 H207       -6.5854  -22.8939  -51.2066 H         1 UNK         0.0600 
    208 H208       -5.8763  -22.9302  -52.8100 H         1 UNK         0.0600 
    209 H209       -5.9342  -24.3957  -51.8453 H         1 UNK         0.0600 
    210 H210       -1.9881  -23.0026  -50.5434 H         1 UNK         0.3000 
    211 H211       -0.0293  -23.7952  -51.2266 H         1 UNK         0.0600 
    212 H212        0.8372  -23.0320  -53.3639 H         1 UNK         0.0600 
    213 H213       -0.2397  -21.7768  -52.7650 H         1 UNK         0.0600 
    214 H214       -0.7715  -22.8746  -54.0426 H         1 UNK         0.0600 
    215 H215       -1.7511  -25.7780  -50.8642 H         1 UNK         0.3000 
    216 H216       -2.2767  -27.9011  -51.1700 H         1 UNK         0.0600 
    217 H217       -0.7811  -29.4330  -52.3853 H         1 UNK         0.0600 
    218 H218        0.1802  -28.2998  -51.4495 H         1 UNK         0.0600 
    219 H219        0.0191  -28.0937  -53.1931 H         1 UNK         0.0600 
    220 H220       -3.8187  -26.1113  -52.3215 H         1 UNK         0.3000 
    221 H221       -5.4650  -25.6518  -53.6926 H         1 UNK         0.0600 
    222 H222       -5.2748  -28.5302  -54.7109 H         1 UNK         0.0600 
    223 H223       -6.1203  -28.0253  -53.2478 H         1 UNK         0.0600 
    224 H224       -6.6719  -27.4705  -54.8183 H         1 UNK         0.0600 
    225 H225       -2.4883  -25.6974  -54.8844 H         1 UNK         0.3000 
    226 H226       -3.0148  -25.7537  -57.7450 H         1 UNK         0.0600 
    227 H227       -0.8494  -26.5219  -56.7187 H         1 UNK         0.0600 
    228 H228       -0.6251  -25.2812  -57.9440 H         1 UNK         0.0600 
    229 H229       -0.5054  -24.8581  -56.2437 H         1 UNK         0.0600 
    230 H230       -2.7862  -23.2208  -55.2471 H         1 UNK         0.3000 
    231 H231       -2.6168  -21.0815  -57.3170 H         1 UNK         0.0600 
    232 H232       -0.9743  -20.9497  -55.5190 H         1 UNK         0.0600 
    233 H233       -2.2389  -21.0462  -54.2944 H         1 UNK         0.0600 
    234 H234       -2.1202  -19.6325  -55.3336 H         1 UNK         0.0600 
    235 H235       -4.9029  -22.5407  -55.1418 H         1 UNK         0.3000 
    236 H236       -7.0483  -22.1825  -54.6072 H         1 UNK         0.0600 
    237 H237       -7.2075  -20.5644  -57.1977 H         1 UNK         0.0600 
    238 H238       -7.3577  -22.3160  -57.0702 H         1 UNK         0.0600 
    239 H239       -8.5557  -21.2734  -56.3209 H         1 UNK         0.0600 
    240 H240       -5.4280  -20.7076  -53.1093 H         1 UNK         0.3000 
    241 H241       -5.7216  -17.9488  -53.0939 H         1 UNK         0.0600 
    242 H242       -8.2428  -20.1174  -51.9973 H         1 UNK         0.3800 
    243 H243       -9.1340  -18.9072  -51.1141 H         1 UNK         0.3800 
    244 H244       -5.0990  -19.6209  -50.6257 H         1 UNK         0.0800 
    245 H245       -4.6400  -17.9651  -50.8984 H         1 UNK         0.0800 
    246 H246       -1.5598  -18.1139  -53.1005 H         1 UNK         0.0800 
    247 H247       -2.9267  -17.1582  -52.5943 H         1 UNK         0.0800 
@<TRIPOS>BOND
     1    1    2 1    
     2    1  127 1    
     3    1  128 1    
     4    1  129 1    
     5    2    3 2    
     6    2    4 am   BACKBONE|DICT|INTERRES
     7    4    5 1    
     8    4  130 1    
     9    5    6 1    
    10    5   65 1    
    11    5  131 1    
    12    6    7 1    
    13    6  132 1    
    14    6  133 1    
    15    7    8 1    
    16    8    9 1    
    17    8  134 1    
    18    8  135 1    
    19    9   10 ar   
    20    9   14 ar   
    21   10   11 ar   
    22   10  136 1    
    23   11   12 ar   
    24   11  126 1    
    25   12   13 ar   
    26   12  137 1    
    27   13   14 ar   
    28   13   15 1    
    29   14  138 1    
    30   15   16 1    
    31   15  139 1    
    32   15  140 1    
    33   16   17 1    
    34   17   18 1    
    35   17  141 1    
    36   17  142 1    
    37   18   19 1    
    38   18   67 1    
    39   18  143 1    
    40   19   20 am   BACKBONE|DICT|INTERRES
    41   19  144 1    
    42   20   21 2    
    43   20   22 1    
    44   22   23 1    
    45   22   24 1    
    46   22  145 1    
    47   23  146 1    
    48   23  147 1    
    49   23  148 1    
    50   24   25 am   BACKBONE|DICT|INTERRES
    51   24  149 1    
    52   25   26 2    
    53   25   27 1    
    54   27   28 1    
    55   27   29 1    
    56   27  150 1    
    57   28  151 1    
    58   28  152 1    
    59   28  153 1    
    60   29   30 am   BACKBONE|DICT|INTERRES
    61   29  154 1    
    62   30   31 2    
    63   30   32 1    
    64   32   33 1    
    65   32   34 1    
    66   32  155 1    
    67   33  156 1    
    68   33  157 1    
    69   33  158 1    
    70   34   35 am   BACKBONE|DICT|INTERRES
    71   34  159 1    
    72   35   36 2    
    73   35   37 1    
    74   37   38 1    
    75   37   39 1    
    76   37  160 1    
    77   38  161 1    
    78   38  162 1    
    79   38  163 1    
    80   39   40 am   BACKBONE|DICT|INTERRES
    81   39  164 1    
    82   40   41 2    
    83   40   42 1    
    84   42   43 1    
    85   42   44 1    
    86   42  165 1    
    87   43  166 1    
    88   43  167 1    
    89   43  168 1    
    90   44   45 am   BACKBONE|DICT|INTERRES
    91   44  169 1    
    92   45   46 2    
    93   45   47 1    
    94   47   48 1    
    95   47   49 1    
    96   47  170 1    
    97   48  171 1    
    98   48  172 1    
    99   48  173 1    
   100   49   50 am   BACKBONE|DICT|INTERRES
   101   49  174 1    
   102   50   51 2    
   103   50   52 1    
   104   52   53 1    
   105   52   54 1    
   106   52  175 1    
   107   53  176 1    
   108   53  177 1    
   109   53  178 1    
   110   54   55 am   BACKBONE|DICT|INTERRES
   111   54  179 1    
   112   55   56 2    
   113   55   57 1    
   114   57   58 1    
   115   57   59 1    
   116   57  180 1    
   117   58  181 1    
   118   58  182 1    
   119   58  183 1    
   120   59   60 am   BACKBONE|DICT|INTERRES
   121   59  184 1    
   122   60   61 2    
   123   60   62 1    
   124   62   63 1    
   125   62   64 1    
   126   62  185 1    
   127   63  186 1    
   128   63  187 1    
   129   63  188 1    
   130   64   65 am   BACKBONE|DICT|INTERRES
   131   64  189 1    
   132   65   66 2    
   133   67   68 2    
   134   67   69 am   BACKBONE|DICT|INTERRES
   135   69   70 1    
   136   69  190 1    
   137   70   71 1    
   138   70   72 1    
   139   70  191 1    
   140   71  192 1    
   141   71  193 1    
   142   71  194 1    
   143   72   73 2    
   144   72   74 am   BACKBONE|DICT|INTERRES
   145   74   75 1    
   146   74  195 1    
   147   75   76 1    
   148   75   77 1    
   149   75  196 1    
   150   76  197 1    
   151   76  198 1    
   152   76  199 1    
   153   77   78 2    
   154   77   79 am   BACKBONE|DICT|INTERRES
   155   79   80 1    
   156   79  200 1    
   157   80   81 1    
   158   80   82 1    
   159   80  201 1    
   160   81  202 1    
   161   81  203 1    
   162   81  204 1    
   163   82   83 2    
   164   82   84 am   BACKBONE|DICT|INTERRES
   165   84   85 1    
   166   84  205 1    
   167   85   86 1    
   168   85   87 1    
   169   85  206 1    
   170   86  207 1    
   171   86  208 1    
   172   86  209 1    
   173   87   88 2    
   174   87   89 am   BACKBONE|DICT|INTERRES
   175   89   90 1    
   176   89  210 1    
   177   90   91 1    
   178   90   92 1    
   179   90  211 1    
   180   91  212 1    
   181   91  213 1    
   182   91  214 1    
   183   92   93 2    
   184   92   94 am   BACKBONE|DICT|INTERRES
   185   94   95 1    
   186   94  215 1    
   187   95   96 1    
   188   95   97 1    
   189   95  216 1    
   190   96  217 1    
   191   96  218 1    
   192   96  219 1    
   193   97   98 2    
   194   97   99 am   BACKBONE|DICT|INTERRES
   195   99  100 1    
   196   99  220 1    
   197  100  101 1    
   198  100  102 1    
   199  100  221 1    
   200  101  222 1    
   201  101  223 1    
   202  101  224 1    
   203  102  103 2    
   204  102  104 am   BACKBONE|DICT|INTERRES
   205  104  105 1    
   206  104  225 1    
   207  105  106 1    
   208  105  107 1    
   209  105  226 1    
   210  106  227 1    
   211  106  228 1    
   212  106  229 1    
   213  107  108 2    
   214  107  109 am   BACKBONE|DICT|INTERRES
   215  109  110 1    
   216  109  230 1    
   217  110  111 1    
   218  110  112 1    
   219  110  231 1    
   220  111  232 1    
   221  111  233 1    
   222  111  234 1    
   223  112  113 2    
   224  112  114 am   BACKBONE|DICT|INTERRES
   225  114  115 1    
   226  114  235 1    
   227  115  116 1    
   228  115  117 1    
   229  115  236 1    
   230  116  237 1    
   231  116  238 1    
   232  116  239 1    
   233  117  118 2    
   234  117  119 am   BACKBONE|DICT|INTERRES
   235  119  120 1    
   236  119  240 1    
   237  120  121 1    
   238  120  124 1    
   239  120  241 1    
   240  121  122 am   BACKBONE|DICT|INTERRES
   241  121  123 2    
   242  122  242 1    
   243  122  243 1    
   244  124  125 1    
   245  124  244 1    
   246  124  245 1    
   247  125  126 1    
   248  126  246 1    
   249  126  247 1    
@<TRIPOS>SUBSTRUCTURE
     1 UNK         1 GROUP             0       ****    0 ROOT    
