@<TRIPOS>MOLECULE
3R540
247   249    1
SMALL
USER_CHARGES


@<TRIPOS>ATOM
      1 CA          7.1273   -9.6210  -49.7874 C.3       0 UNK        -0.1800 
      2 C           6.8795  -10.4906  -48.5625 C.2       0 UNK         0.5000 
      3 O           7.3938  -10.1911  -47.4841 O.2       0 UNK        -0.5000 
      4 N           6.1038  -11.5684  -48.7269 N.am      1 UNK        -0.5000 
      5 CA          5.6885  -12.4796  -47.6560 C.3       1 UNK         0.1400 
      6 C6          5.3245  -13.8788  -48.2163 C.3       23 UNK        -0.0398 
      7 S7          3.9265  -13.8961  -49.3949 S.3       23 UNK        -0.2404 
      8 C8          2.8791  -15.1726  -48.6336 C.3       23 UNK        -0.0205 
      9 C9          1.5897  -15.3894  -49.4106 C.ar      23 UNK        -0.0193 
     10 C10         1.6164  -16.0219  -50.6566 C.ar      23 UNK        -0.1150 
     11 C11         0.4363  -16.2155  -51.3806 C.ar      23 UNK        -0.0193 
     12 C12        -0.7806  -15.7921  -50.8379 C.ar      23 UNK        -0.1150 
     13 C13        -0.8242  -15.1846  -49.5795 C.ar      23 UNK        -0.0193 
     14 C14         0.3664  -14.9727  -48.8783 C.ar      23 UNK        -0.1150 
     15 C15        -2.1525  -14.7442  -48.9781 C.3       23 UNK        -0.0205 
     16 S16        -3.3067  -16.1310  -48.7061 S.3       23 UNK        -0.2404 
     17 C17        -2.3689  -17.2144  -47.5761 C.3       23 UNK        -0.0398 
     18 CA         -2.2642  -18.6682  -48.1169 C.3       11 UNK         0.1400 
     19 N          -0.8869  -19.1715  -48.1402 N.am      11 UNK        -0.5000 
     20 C          -0.5052  -20.2764  -48.7991 C.2       10 UNK         0.5000 
     21 O          -1.2727  -20.9907  -49.4420 O.2       10 UNK        -0.5000 
     22 CA          0.9727  -20.6820  -48.6715 C.3       10 UNK         0.1400 
     23 CB          1.8446  -19.8481  -49.6228 C.3       10 UNK        -0.1800 
     24 N           1.4828  -20.5483  -47.3072 N.am      10 UNK        -0.5000 
     25 C           1.0115  -21.1797  -46.2242 C.2       9 UNK         0.5000 
     26 O           0.0766  -21.9789  -46.2576 O.2       9 UNK        -0.5000 
     27 CA          1.6511  -20.8234  -44.8686 C.3       9 UNK         0.1400 
     28 CB          2.9732  -21.5804  -44.6461 C.3       9 UNK        -0.1800 
     29 N           1.8015  -19.3786  -44.6600 N.am      9 UNK        -0.5000 
     30 C           2.6040  -18.5086  -45.2908 C.2       8 UNK         0.5000 
     31 O           3.4263  -18.8188  -46.1531 O.2       8 UNK        -0.5000 
     32 CA          2.3949  -17.0270  -44.9449 C.3       8 UNK         0.1400 
     33 CB          1.1826  -16.5019  -45.7258 C.3       8 UNK        -0.1800 
     34 N           2.1737  -16.7951  -43.5201 N.am      8 UNK        -0.5000 
     35 C           3.0615  -17.0315  -42.5445 C.2       7 UNK         0.5000 
     36 O           4.2110  -17.4275  -42.7390 O.2       7 UNK        -0.5000 
     37 CA          2.5687  -16.8001  -41.1061 C.3       7 UNK         0.1400 
     38 CB          2.6826  -15.3181  -40.7193 C.3       7 UNK        -0.1800 
     39 N           1.1834  -17.2406  -40.9409 N.am      7 UNK        -0.5000 
     40 C           0.8144  -18.5166  -40.7619 C.2       6 UNK         0.5000 
     41 O           1.6093  -19.4495  -40.6453 O.2       6 UNK        -0.5000 
     42 CA         -0.6986  -18.8034  -40.7154 C.3       6 UNK         0.1400 
     43 CB         -1.2193  -18.7171  -39.2728 C.3       6 UNK        -0.1800 
     44 N          -1.4814  -17.9018  -41.5622 N.am      6 UNK        -0.5000 
     45 C          -1.4635  -17.9170  -42.9012 C.2       5 UNK         0.5000 
     46 O          -0.7852  -18.6950  -43.5726 O.2       5 UNK        -0.5000 
     47 CA         -2.3224  -16.8588  -43.6139 C.3       5 UNK         0.1400 
     48 CB         -3.7639  -17.3584  -43.7908 C.3       5 UNK        -0.1800 
     49 N          -2.3354  -15.5473  -42.9611 N.am      5 UNK        -0.5000 
     50 C          -1.2505  -14.7927  -42.7453 C.2       4 UNK         0.5000 
     51 O          -0.0964  -15.1745  -42.9472 O.2       4 UNK        -0.5000 
     52 CA         -1.4866  -13.3759  -42.2016 C.3       4 UNK         0.1400 
     53 CB         -0.9566  -13.2481  -40.7652 C.3       4 UNK        -0.1800 
     54 N          -0.8214  -12.3917  -43.0528 N.am      4 UNK        -0.5000 
     55 C          -1.2442  -12.0296  -44.2727 C.2       3 UNK         0.5000 
     56 O          -2.2870  -12.4402  -44.7835 O.2       3 UNK        -0.5000 
     57 CA         -0.3634  -11.0332  -45.0503 C.3       3 UNK         0.1400 
     58 CB         -0.8353   -9.5923  -44.8007 C.3       3 UNK        -0.1800 
     59 N           1.0546  -11.1395  -44.6995 N.am      3 UNK        -0.5000 
     60 C           1.8764  -12.0790  -45.1832 C.2       2 UNK         0.5000 
     61 O           1.5327  -12.9400  -45.9941 O.2       2 UNK        -0.5000 
     62 CA          3.3170  -12.0677  -44.6355 C.3       2 UNK         0.1400 
     63 CB          3.4165  -12.9868  -43.4084 C.3       2 UNK        -0.1800 
     64 N           4.3169  -12.4883  -45.6202 N.am      2 UNK        -0.5000 
     65 C           4.5714  -11.8633  -46.7785 C.2       1 UNK         0.5000 
     66 O           3.9818  -10.8417  -47.1449 O.2       1 UNK        -0.5000 
     67 C          -3.2075  -19.6249  -47.3563 C.2       11 UNK         0.5000 
     68 O          -4.3286  -19.8575  -47.8075 O.2       11 UNK        -0.5000 
     69 N          -2.7262  -20.1919  -46.2382 N.am      12 UNK        -0.5000 
     70 CA         -3.4506  -21.1932  -45.4535 C.3       12 UNK         0.1400 
     71 CB         -2.7483  -21.4264  -44.1073 C.3       12 UNK        -0.1800 
     72 C          -3.6256  -22.5139  -46.2200 C.2       12 UNK         0.5000 
     73 O          -4.7253  -23.0649  -46.2270 O.2       12 UNK        -0.5000 
     74 N          -2.5583  -22.9728  -46.8886 N.am      13 UNK        -0.5000 
     75 CA         -2.5706  -24.1577  -47.7461 C.3       13 UNK         0.1400 
     76 CB         -1.1414  -24.4910  -48.1950 C.3       13 UNK        -0.1800 
     77 C          -3.5076  -24.0030  -48.9568 C.2       13 UNK         0.5000 
     78 O          -4.2226  -24.9491  -49.2863 O.2       13 UNK        -0.5000 
     79 N          -3.5188  -22.8115  -49.5702 N.am      14 UNK        -0.5000 
     80 CA         -4.4396  -22.4379  -50.6429 C.3       14 UNK         0.1400 
     81 CB         -4.0378  -21.0749  -51.2252 C.3       14 UNK        -0.1800 
     82 C          -5.9074  -22.4241  -50.1800 C.2       14 UNK         0.5000 
     83 O          -6.7613  -22.9887  -50.8633 O.2       14 UNK        -0.5000 
     84 N          -6.1710  -21.8156  -49.0137 N.am      15 UNK        -0.5000 
     85 CA         -7.4952  -21.7493  -48.3883 C.3       15 UNK         0.1400 
     86 CB         -7.4464  -20.8019  -47.1800 C.3       15 UNK        -0.1800 
     87 C          -8.0412  -23.1299  -47.9765 C.2       15 UNK         0.5000 
     88 O          -9.2339  -23.3874  -48.1429 O.2       15 UNK        -0.5000 
     89 N          -7.1547  -24.0015  -47.4780 N.am      16 UNK        -0.5000 
     90 CA         -7.4485  -25.3922  -47.1258 C.3       16 UNK         0.1400 
     91 CB         -6.3299  -25.9118  -46.2081 C.3       16 UNK        -0.1800 
     92 C          -7.6023  -26.3216  -48.3475 C.2       16 UNK         0.5000 
     93 O          -8.0676  -27.4499  -48.1827 O.2       16 UNK        -0.5000 
     94 N          -7.1812  -25.8515  -49.5318 N.am      17 UNK        -0.5000 
     95 CA         -7.0809  -26.5784  -50.8027 C.3       17 UNK         0.1400 
     96 CB         -8.4695  -27.0232  -51.3065 C.3       17 UNK        -0.1800 
     97 C          -6.0511  -27.7297  -50.7615 C.2       17 UNK         0.5000 
     98 O          -6.1649  -28.6924  -51.5223 O.2       17 UNK        -0.5000 
     99 N          -5.0482  -27.5966  -49.8837 N.am      18 UNK        -0.5000 
    100 CA        -3.8773  -28.4677  -49.7968 C.3       18 UNK         0.1400 
    101 CB        -3.2868  -28.3650  -48.3820 C.3       18 UNK        -0.1800 
    102 C         -2.8230  -28.0887  -50.8535 C.2       18 UNK         0.5000 
    103 O         -2.0666  -28.9522  -51.2993 O.2       18 UNK        -0.5000 
    104 N         -2.8156  -26.8101  -51.2444 N.am      19 UNK        -0.5000 
    105 CA        -2.0598  -26.2493  -52.3561 C.3       19 UNK         0.1400 
    106 CB        -1.0288  -25.2510  -51.8024 C.3       19 UNK        -0.1800 
    107 C         -3.0376  -25.5451  -53.3099 C.2       19 UNK         0.5000 
    108 O         -4.2019  -25.3278  -52.9607 O.2       19 UNK        -0.5000 
    109 N         -2.5392  -25.1846  -54.4971 N.am      20 UNK        -0.5000 
    110 CA        -3.2437  -24.3445  -55.4650 C.3       20 UNK         0.1400 
    111 CB        -2.5195  -24.4404  -56.8175 C.3       20 UNK        -0.1800 
    112 C         -3.3133  -22.8786  -54.9939 C.2       20 UNK         0.5000 
    113 O         -2.5009  -22.4552  -54.1676 O.2       20 UNK        -0.5000 
    114 N         -4.2665  -22.1230  -55.5524 N.am      21 UNK        -0.5000 
    115 CA        -4.4324  -20.6886  -55.3237 C.3       21 UNK         0.1400 
    116 CB        -5.7982  -20.2447  -55.8735 C.3       21 UNK        -0.1800 
    117 C         -3.2742  -19.8957  -55.9574 C.2       21 UNK         0.5000 
    118 O         -3.2637  -19.6943  -57.1735 O.2       21 UNK        -0.5000 
    119 N         -2.3058  -19.4985  -55.1254 N.am      22 UNK        -0.5000 
    120 CA        -1.0933  -18.7698  -55.5282 C.3       22 UNK         0.1400 
    121 C         -1.3004  -17.2647  -55.8732 C.2       22 UNK         0.5000 
    122 N         -2.4586  -16.6716  -55.6106 N.am      22 UNK        -0.7600 
    123 O         -0.3936  -16.6256  -56.3996 O.2       22 UNK        -0.5000 
    124 C124        0.0651  -18.9912  -54.5195 C.3       23 UNK        -0.0398 
    125 S125       -0.3061  -18.4858  -52.8005 S.3       23 UNK        -0.2404 
    126 C126        0.4809  -16.8448  -52.7637 C.3       23 UNK        -0.0205 
    127 H127        6.6220  -10.0119  -50.6710 H         1 UNK         0.0600 
    128 H128        6.7641   -8.6090  -49.6082 H         1 UNK         0.0600 
    129 H129        8.1948   -9.5688  -50.0015 H         1 UNK         0.0600 
    130 H130        5.6782  -11.7431  -49.6262 H         1 UNK         0.3000 
    131 H131        6.5496  -12.6204  -46.9988 H         1 UNK         0.0600 
    132 H132        5.1267  -14.5706  -47.3962 H         1 UNK         0.0800 
    133 H133        6.1913  -14.2941  -48.7321 H         1 UNK         0.0800 
    134 H134        3.4288  -16.1135  -48.5761 H         1 UNK         0.0800 
    135 H135        2.6614  -14.8726  -47.6079 H         1 UNK         0.0800 
    136 H136        2.5624  -16.3440  -51.0689 H         1 UNK         0.1150 
    137 H137       -1.6961  -15.9445  -51.3923 H         1 UNK         0.1150 
    138 H138        0.3421  -14.4871  -47.9124 H         1 UNK         0.1150 
    139 H139       -1.9976  -14.2252  -48.0304 H         1 UNK         0.0800 
    140 H140       -2.6211  -14.0226  -49.6485 H         1 UNK         0.0800 
    141 H141       -2.8638  -17.1707  -46.6063 H         1 UNK         0.0800 
    142 H142       -1.3804  -16.7873  -47.4098 H         1 UNK         0.0800 
    143 H143       -2.5957  -18.6768  -49.1580 H         1 UNK         0.0600 
    144 H144       -0.1909  -18.6482  -47.6327 H         1 UNK         0.3000 
    145 H145        1.0565  -21.7325  -48.9570 H         1 UNK         0.0600 
    146 H146        2.8830  -20.1788  -49.5987 H         1 UNK         0.0600 
    147 H147        1.4979  -19.9409  -50.6528 H         1 UNK         0.0600 
    148 H148        1.8246  -18.7883  -49.3648 H         1 UNK         0.0600 
    149 H149        2.2646  -19.9144  -47.1658 H         1 UNK         0.3000 
    150 H150        0.9530  -21.1543  -44.0978 H         1 UNK         0.0600 
    151 H151        2.8119  -22.6583  -44.6852 H         1 UNK         0.0600 
    152 H152        3.3976  -21.3496  -43.6689 H         1 UNK         0.0600 
    153 H153        3.7197  -21.3373  -45.4024 H         1 UNK         0.0600 
    154 H154        1.0999  -18.9839  -44.0399 H         1 UNK         0.3000 
    155 H155        3.2830  -16.4713  -45.2525 H         1 UNK         0.0600 
    156 H156        1.0505  -15.4313  -45.5813 H         1 UNK         0.0600 
    157 H157        0.2624  -16.9920  -45.4141 H         1 UNK         0.0600 
    158 H158        1.2959  -16.6864  -46.7929 H         1 UNK         0.0600 
    159 H159        1.2777  -16.3856  -43.2673 H         1 UNK         0.3000 
    160 H160        3.2091  -17.3744  -40.4331 H         1 UNK         0.0600 
    161 H161        2.0570  -14.6890  -41.3514 H         1 UNK         0.0600 
    162 H162        3.7100  -14.9661  -40.8203 H         1 UNK         0.0600 
    163 H163        2.3826  -15.1563  -39.6839 H         1 UNK         0.0600 
    164 H164        0.4666  -16.5427  -41.0794 H         1 UNK         0.3000 
    165 H165       -0.8521  -19.8240  -41.0732 H         1 UNK         0.0600 
    166 H166       -1.1127  -17.7111  -38.8651 H         1 UNK         0.0600 
    167 H167       -2.2724  -18.9933  -39.2165 H         1 UNK         0.0600 
    168 H168       -0.6710  -19.3964  -38.6186 H         1 UNK         0.0600 
    169 H169       -2.0645  -17.2236  -41.0943 H         1 UNK         0.3000 
    170 H170       -1.8898  -16.7115  -44.6029 H         1 UNK         0.0600 
    171 H171       -3.7870  -18.3228  -44.2984 H         1 UNK         0.0600 
    172 H172       -4.2682  -17.4814  -42.8316 H         1 UNK         0.0600 
    173 H173       -4.3512  -16.6645  -44.3925 H         1 UNK         0.0600 
    174 H174       -3.2454  -15.1586  -42.7588 H         1 UNK         0.3000 
    175 H175       -2.5581  -13.1652  -42.1924 H         1 UNK         0.0600 
    176 H176       -1.1671  -12.2601  -40.3556 H         1 UNK         0.0600 
    177 H177       -1.4284  -13.9792  -40.1075 H         1 UNK         0.0600 
    178 H178        0.1207  -13.4073  -40.7141 H         1 UNK         0.0600 
    179 H179        0.0648  -12.0383  -42.7270 H         1 UNK         0.3000 
    180 H180       -0.4816  -11.2473  -46.1150 H         1 UNK         0.0600 
    181 H181       -0.7368   -9.3107  -43.7516 H         1 UNK         0.0600 
    182 H182       -1.8841   -9.4722  -45.0756 H         1 UNK         0.0600 
    183 H183       -0.2617   -8.8811  -45.3954 H         1 UNK         0.0600 
    184 H184        1.4110  -10.4586  -44.0442 H         1 UNK         0.3000 
    185 H185        3.5655  -11.0495  -44.3295 H         1 UNK         0.0600 
    186 H186        4.4160  -12.9656  -42.9738 H         1 UNK         0.0600 
    187 H187        2.7190  -12.6758  -42.6299 H         1 UNK         0.0600 
    188 H188        3.1815  -14.0208  -43.6641 H         1 UNK         0.0600 
    189 H189        4.8343  -13.3233  -45.3905 H         1 UNK         0.3000 
    190 H190       -1.7828  -19.9844  -45.9453 H         1 UNK         0.3000 
    191 H191       -4.4487  -20.8019  -45.2453 H         1 UNK         0.0600 
    192 H192       -2.7868  -20.5344  -43.4842 H         1 UNK         0.0600 
    193 H193       -3.2333  -22.2267  -43.5471 H         1 UNK         0.0600 
    194 H194       -1.7019  -21.7033  -44.2348 H         1 UNK         0.0600 
    195 H195       -1.6701  -22.4871  -46.7927 H         1 UNK         0.3000 
    196 H196       -2.9396  -24.9927  -47.1474 H         1 UNK         0.0600 
    197 H197       -1.1235  -25.4118  -48.7786 H         1 UNK         0.0600 
    198 H198       -0.4833  -24.6374  -47.3384 H         1 UNK         0.0600 
    199 H199       -0.7162  -23.6980  -48.8111 H         1 UNK         0.0600 
    200 H200       -2.8425  -22.1072  -49.2886 H         1 UNK         0.3000 
    201 H201       -4.3490  -23.1809  -51.4365 H         1 UNK         0.0600 
    202 H202       -3.0537  -21.1218  -51.6924 H         1 UNK         0.0600 
    203 H203       -4.0075  -20.2999  -50.4599 H         1 UNK         0.0600 
    204 H204       -4.7488  -20.7529  -51.9853 H         1 UNK         0.0600 
    205 H205       -5.4183  -21.3348  -48.5295 H         1 UNK         0.3000 
    206 H206       -8.1862  -21.3274  -49.1209 H         1 UNK         0.0600 
    207 H207       -7.1460  -19.7975  -47.4790 H         1 UNK         0.0600 
    208 H208       -8.4254  -20.7210  -46.7061 H         1 UNK         0.0600 
    209 H209       -6.7424  -21.1499  -46.4238 H         1 UNK         0.0600 
    210 H210       -6.2069  -23.6810  -47.2970 H         1 UNK         0.3000 
    211 H211       -8.3885  -25.4192  -46.5709 H         1 UNK         0.0600 
    212 H212       -5.3622  -25.9018  -46.7114 H         1 UNK         0.0600 
    213 H213       -6.5244  -26.9370  -45.8906 H         1 UNK         0.0600 
    214 H214       -6.2446  -25.3042  -45.3071 H         1 UNK         0.0600 
    215 H215       -6.8105  -24.9099  -49.5521 H         1 UNK         0.3000 
    216 H216       -6.6887  -25.8581  -51.5224 H         1 UNK         0.0600 
    217 H217       -9.1700  -26.1881  -51.3177 H         1 UNK         0.0600 
    218 H218       -8.8950  -27.8118  -50.6857 H         1 UNK         0.0600 
    219 H219       -8.4093  -27.4082  -52.3250 H         1 UNK         0.0600 
    220 H220       -4.9977  -26.7265  -49.3627 H         1 UNK         0.3000 
    221 H221       -4.1821  -29.5015  -49.9721 H         1 UNK         0.0600 
    222 H222       -2.9549  -27.3512  -48.1562 H         1 UNK         0.0600 
    223 H223       -4.0193  -28.6531  -47.6277 H         1 UNK         0.0600 
    224 H224       -2.4260  -29.0254  -48.2700 H         1 UNK         0.0600 
    225 H225       -3.5132  -26.1882  -50.8503 H         1 UNK         0.3000 
    226 H226       -1.5450  -27.0363  -52.9109 H         1 UNK         0.0600 
    227 H227       -0.3510  -25.7346  -51.0993 H         1 UNK         0.0600 
    228 H228       -0.4176  -24.8306  -52.6016 H         1 UNK         0.0600 
    229 H229       -1.5104  -24.4173  -51.2898 H         1 UNK         0.0600 
    230 H230       -1.5662  -25.3675  -54.6935 H         1 UNK         0.3000 
    231 H231       -4.2616  -24.7228  -55.5824 H         1 UNK         0.0600 
    232 H232       -3.0335  -23.8558  -57.5816 H         1 UNK         0.0600 
    233 H233       -2.4800  -25.4706  -57.1719 H         1 UNK         0.0600 
    234 H234       -1.4964  -24.0674  -56.7534 H         1 UNK         0.0600 
    235 H235       -4.8728  -22.5350  -56.2467 H         1 UNK         0.3000 
    236 H236       -4.4325  -20.5047  -54.2488 H         1 UNK         0.0600 
    237 H237       -5.9481  -19.1745  -55.7262 H         1 UNK         0.0600 
    238 H238       -5.8911  -20.4453  -56.9416 H         1 UNK         0.0600 
    239 H239       -6.6133  -20.7593  -55.3642 H         1 UNK         0.0600 
    240 H240       -2.3619  -19.7445  -54.1471 H         1 UNK         0.3000 
    241 H241       -0.7617  -19.2196  -56.4662 H         1 UNK         0.0600 
    242 H242       -3.2089  -17.1831  -55.1758 H         1 UNK         0.3800 
    243 H243       -2.5834  -15.6994  -55.8453 H         1 UNK         0.3800 
    244 H244        0.3103  -20.0538  -54.4938 H         1 UNK         0.0800 
    245 H245        0.9760  -18.4987  -54.8640 H         1 UNK         0.0800 
    246 H246        1.5130  -16.9333  -53.1062 H         1 UNK         0.0800 
    247 H247       -0.0223  -16.1818  -53.4681 H         1 UNK         0.0800 
@<TRIPOS>BOND
     1    1    2 1    
     2    1  127 1    
     3    1  128 1    
     4    1  129 1    
     5    2    3 2    
     6    2    4 am   BACKBONE|DICT|INTERRES
     7    4    5 1    
     8    4  130 1    
     9    5    6 1    
    10    5   65 1    
    11    5  131 1    
    12    6    7 1    
    13    6  132 1    
    14    6  133 1    
    15    7    8 1    
    16    8    9 1    
    17    8  134 1    
    18    8  135 1    
    19    9   10 ar   
    20    9   14 ar   
    21   10   11 ar   
    22   10  136 1    
    23   11   12 ar   
    24   11  126 1    
    25   12   13 ar   
    26   12  137 1    
    27   13   14 ar   
    28   13   15 1    
    29   14  138 1    
    30   15   16 1    
    31   15  139 1    
    32   15  140 1    
    33   16   17 1    
    34   17   18 1    
    35   17  141 1    
    36   17  142 1    
    37   18   19 1    
    38   18   67 1    
    39   18  143 1    
    40   19   20 am   BACKBONE|DICT|INTERRES
    41   19  144 1    
    42   20   21 2    
    43   20   22 1    
    44   22   23 1    
    45   22   24 1    
    46   22  145 1    
    47   23  146 1    
    48   23  147 1    
    49   23  148 1    
    50   24   25 am   BACKBONE|DICT|INTERRES
    51   24  149 1    
    52   25   26 2    
    53   25   27 1    
    54   27   28 1    
    55   27   29 1    
    56   27  150 1    
    57   28  151 1    
    58   28  152 1    
    59   28  153 1    
    60   29   30 am   BACKBONE|DICT|INTERRES
    61   29  154 1    
    62   30   31 2    
    63   30   32 1    
    64   32   33 1    
    65   32   34 1    
    66   32  155 1    
    67   33  156 1    
    68   33  157 1    
    69   33  158 1    
    70   34   35 am   BACKBONE|DICT|INTERRES
    71   34  159 1    
    72   35   36 2    
    73   35   37 1    
    74   37   38 1    
    75   37   39 1    
    76   37  160 1    
    77   38  161 1    
    78   38  162 1    
    79   38  163 1    
    80   39   40 am   BACKBONE|DICT|INTERRES
    81   39  164 1    
    82   40   41 2    
    83   40   42 1    
    84   42   43 1    
    85   42   44 1    
    86   42  165 1    
    87   43  166 1    
    88   43  167 1    
    89   43  168 1    
    90   44   45 am   BACKBONE|DICT|INTERRES
    91   44  169 1    
    92   45   46 2    
    93   45   47 1    
    94   47   48 1    
    95   47   49 1    
    96   47  170 1    
    97   48  171 1    
    98   48  172 1    
    99   48  173 1    
   100   49   50 am   BACKBONE|DICT|INTERRES
   101   49  174 1    
   102   50   51 2    
   103   50   52 1    
   104   52   53 1    
   105   52   54 1    
   106   52  175 1    
   107   53  176 1    
   108   53  177 1    
   109   53  178 1    
   110   54   55 am   BACKBONE|DICT|INTERRES
   111   54  179 1    
   112   55   56 2    
   113   55   57 1    
   114   57   58 1    
   115   57   59 1    
   116   57  180 1    
   117   58  181 1    
   118   58  182 1    
   119   58  183 1    
   120   59   60 am   BACKBONE|DICT|INTERRES
   121   59  184 1    
   122   60   61 2    
   123   60   62 1    
   124   62   63 1    
   125   62   64 1    
   126   62  185 1    
   127   63  186 1    
   128   63  187 1    
   129   63  188 1    
   130   64   65 am   BACKBONE|DICT|INTERRES
   131   64  189 1    
   132   65   66 2    
   133   67   68 2    
   134   67   69 am   BACKBONE|DICT|INTERRES
   135   69   70 1    
   136   69  190 1    
   137   70   71 1    
   138   70   72 1    
   139   70  191 1    
   140   71  192 1    
   141   71  193 1    
   142   71  194 1    
   143   72   73 2    
   144   72   74 am   BACKBONE|DICT|INTERRES
   145   74   75 1    
   146   74  195 1    
   147   75   76 1    
   148   75   77 1    
   149   75  196 1    
   150   76  197 1    
   151   76  198 1    
   152   76  199 1    
   153   77   78 2    
   154   77   79 am   BACKBONE|DICT|INTERRES
   155   79   80 1    
   156   79  200 1    
   157   80   81 1    
   158   80   82 1    
   159   80  201 1    
   160   81  202 1    
   161   81  203 1    
   162   81  204 1    
   163   82   83 2    
   164   82   84 am   BACKBONE|DICT|INTERRES
   165   84   85 1    
   166   84  205 1    
   167   85   86 1    
   168   85   87 1    
   169   85  206 1    
   170   86  207 1    
   171   86  208 1    
   172   86  209 1    
   173   87   88 2    
   174   87   89 am   BACKBONE|DICT|INTERRES
   175   89   90 1    
   176   89  210 1    
   177   90   91 1    
   178   90   92 1    
   179   90  211 1    
   180   91  212 1    
   181   91  213 1    
   182   91  214 1    
   183   92   93 2    
   184   92   94 am   BACKBONE|DICT|INTERRES
   185   94   95 1    
   186   94  215 1    
   187   95   96 1    
   188   95   97 1    
   189   95  216 1    
   190   96  217 1    
   191   96  218 1    
   192   96  219 1    
   193   97   98 2    
   194   97   99 am   BACKBONE|DICT|INTERRES
   195   99  100 1    
   196   99  220 1    
   197  100  101 1    
   198  100  102 1    
   199  100  221 1    
   200  101  222 1    
   201  101  223 1    
   202  101  224 1    
   203  102  103 2    
   204  102  104 am   BACKBONE|DICT|INTERRES
   205  104  105 1    
   206  104  225 1    
   207  105  106 1    
   208  105  107 1    
   209  105  226 1    
   210  106  227 1    
   211  106  228 1    
   212  106  229 1    
   213  107  108 2    
   214  107  109 am   BACKBONE|DICT|INTERRES
   215  109  110 1    
   216  109  230 1    
   217  110  111 1    
   218  110  112 1    
   219  110  231 1    
   220  111  232 1    
   221  111  233 1    
   222  111  234 1    
   223  112  113 2    
   224  112  114 am   BACKBONE|DICT|INTERRES
   225  114  115 1    
   226  114  235 1    
   227  115  116 1    
   228  115  117 1    
   229  115  236 1    
   230  116  237 1    
   231  116  238 1    
   232  116  239 1    
   233  117  118 2    
   234  117  119 am   BACKBONE|DICT|INTERRES
   235  119  120 1    
   236  119  240 1    
   237  120  121 1    
   238  120  124 1    
   239  120  241 1    
   240  121  122 am   BACKBONE|DICT|INTERRES
   241  121  123 2    
   242  122  242 1    
   243  122  243 1    
   244  124  125 1    
   245  124  244 1    
   246  124  245 1    
   247  125  126 1    
   248  126  246 1    
   249  126  247 1    
@<TRIPOS>SUBSTRUCTURE
     1 UNK         1 GROUP             0       ****    0 ROOT    
