@<TRIPOS>MOLECULE
3R540
247   249    1
SMALL
USER_CHARGES


@<TRIPOS>ATOM
      1 CA          8.2260  -16.5975  -49.3664 C.3       0 UNK        -0.1800 
      2 C           6.8392  -16.0122  -49.1399 C.2       0 UNK         0.5000 
      3 O           6.6868  -14.7905  -49.1070 O.2       0 UNK        -0.5000 
      4 N           5.8288  -16.8758  -48.9800 N.am      1 UNK        -0.5000 
      5 CA          4.4249  -16.5012  -48.8062 C.3       1 UNK         0.1400 
      6 C6          3.6279  -17.6175  -48.0860 C.3       23 UNK        -0.0398 
      7 S7          1.9910  -17.0472  -47.5158 S.3       23 UNK        -0.2404 
      8 C8          0.8746  -18.1517  -48.4282 C.3       23 UNK        -0.0205 
      9 C9         -0.5801  -17.7513  -48.2357 C.ar      23 UNK        -0.0193 
     10 C10        -1.2761  -17.1043  -49.2615 C.ar      23 UNK        -0.1150 
     11 C11        -2.6209  -16.7577  -49.0977 C.ar      23 UNK        -0.0193 
     12 C12        -3.2720  -17.0800  -47.9053 C.ar      23 UNK        -0.1150 
     13 C13        -2.5912  -17.7318  -46.8739 C.ar      23 UNK        -0.0193 
     14 C14        -1.2386  -18.0467  -47.0382 C.ar      23 UNK        -0.1150 
     15 C15        -3.3184  -18.0637  -45.5786 C.3       23 UNK        -0.0205 
     16 S16        -3.7702  -19.8242  -45.4738 S.3       23 UNK        -0.2404 
     17 C17        -2.2584  -20.5341  -44.7444 C.3       23 UNK        -0.0398 
     18 CA         -1.4114  -21.3153  -45.7752 C.3       11 UNK         0.1400 
     19 N           0.0156  -21.2812  -45.4648 N.am      11 UNK        -0.5000 
     20 C           0.9844  -21.8009  -46.2291 C.2       10 UNK         0.5000 
     21 O           0.7882  -22.3051  -47.3349 O.2       10 UNK        -0.5000 
     22 CA          2.4019  -21.7999  -45.6345 C.3       10 UNK         0.1400 
     23 CB          3.1333  -20.4980  -45.9860 C.3       10 UNK        -0.1800 
     24 N           2.3877  -21.9831  -44.1816 N.am      10 UNK        -0.5000 
     25 C           2.0467  -23.1260  -43.5687 C.2       9 UNK         0.5000 
     26 O           1.7476  -24.1598  -44.1658 O.2       9 UNK        -0.5000 
     27 CA          1.9713  -23.0869  -42.0319 C.3       9 UNK         0.1400 
     28 CB          3.3768  -23.1124  -41.4127 C.3       9 UNK        -0.1800 
     29 N           1.2399  -21.9180  -41.5399 N.am      9 UNK        -0.5000 
     30 C          -0.0641  -21.6951  -41.7567 C.2       8 UNK         0.5000 
     31 O          -0.7976  -22.4740  -42.3667 O.2       8 UNK        -0.5000 
     32 CA         -0.6378  -20.3582  -41.2452 C.3       8 UNK         0.1400 
     33 CB         -1.1178  -20.5007  -39.7937 C.3       8 UNK        -0.1800 
     34 N           0.2832  -19.2198  -41.3374 N.am      8 UNK        -0.5000 
     35 C           0.8996  -18.7949  -42.4483 C.2       7 UNK         0.5000 
     36 O           0.8065  -19.3638  -43.5359 O.2       7 UNK        -0.5000 
     37 CA          1.7432  -17.5145  -42.3129 C.3       7 UNK         0.1400 
     38 CB          2.7202  -17.3299  -43.4884 C.3       7 UNK        -0.1800 
     39 N           0.8798  -16.3377  -42.2120 N.am      7 UNK        -0.5000 
     40 C           0.2656  -15.9326  -41.0900 C.2       6 UNK         0.5000 
     41 O           0.3767  -16.5232  -40.0139 O.2       6 UNK        -0.5000 
     42 CA         -0.6074  -14.6608  -41.1551 C.3       6 UNK         0.1400 
     43 CB          0.1549  -13.4611  -40.5715 C.3       6 UNK        -0.1800 
     44 N          -1.0558  -14.3179  -42.5045 N.am      6 UNK        -0.5000 
     45 C          -1.9913  -14.9822  -43.1958 C.2       5 UNK         0.5000 
     46 O          -2.6428  -15.9172  -42.7301 O.2       5 UNK        -0.5000 
     47 CA         -2.2349  -14.5431  -44.6573 C.3       5 UNK         0.1400 
     48 CB         -3.5071  -13.6891  -44.7600 C.3       5 UNK        -0.1800 
     49 N          -1.1286  -13.8272  -45.3041 N.am      5 UNK        -0.5000 
     50 C           0.1262  -14.2766  -45.4314 C.2       4 UNK         0.5000 
     51 O           0.5274  -15.3237  -44.9266 O.2       4 UNK        -0.5000 
     52 CA          1.0804  -13.4068  -46.2664 C.3       4 UNK         0.1400 
     53 CB          2.5574  -13.6280  -45.8913 C.3       4 UNK        -0.1800 
     54 N           0.9011  -13.6822  -47.6905 N.am      4 UNK        -0.5000 
     55 C          -0.0548  -13.1421  -48.4600 C.2       3 UNK         0.5000 
     56 O          -0.8994  -12.3554  -48.0278 O.2       3 UNK        -0.5000 
     57 CA         -0.0240  -13.5030  -49.9590 C.3       3 UNK         0.1400 
     58 CB         -0.8042  -12.4937  -50.8288 C.3       3 UNK        -0.1800 
     59 N           1.3649  -13.6220  -50.4057 N.am      3 UNK        -0.5000 
     60 C           1.7903  -14.1519  -51.5594 C.2       2 UNK         0.5000 
     61 O           1.0495  -14.5822  -52.4425 O.2       2 UNK        -0.5000 
     62 CA          3.3166  -14.2567  -51.7284 C.3       2 UNK         0.1400 
     63 CB          3.9378  -12.8830  -52.0259 C.3       2 UNK        -0.1800 
     64 N           3.9445  -14.8337  -50.5387 N.am      2 UNK        -0.5000 
     65 C           3.8171  -16.1155  -50.1706 C.2       1 UNK         0.5000 
     66 O           3.2711  -16.9742  -50.8655 O.2       1 UNK        -0.5000 
     67 C          -1.9217  -22.7562  -45.9516 C.2       11 UNK         0.5000 
     68 O          -2.5809  -23.0497  -46.9466 O.2       11 UNK        -0.5000 
     69 N          -1.5697  -23.6374  -45.0082 N.am      12 UNK        -0.5000 
     70 CA         -1.8828  -25.0609  -45.0685 C.3       12 UNK         0.1400 
     71 CB         -1.6212  -25.6959  -43.6940 C.3       12 UNK        -0.1800 
     72 C          -1.0973  -25.7913  -46.1734 C.2       12 UNK         0.5000 
     73 O          -1.6991  -26.5236  -46.9596 O.2       12 UNK        -0.5000 
     74 N           0.2282  -25.5953  -46.1993 N.am      13 UNK        -0.5000 
     75 CA          1.1492  -26.3545  -47.0441 C.3       13 UNK         0.1400 
     76 CB          2.5796  -26.2084  -46.5019 C.3       13 UNK        -0.1800 
     77 C           1.1040  -25.9772  -48.5341 C.2       13 UNK         0.5000 
     78 O           1.0866  -26.8757  -49.3769 O.2       13 UNK        -0.5000 
     79 N           1.1314  -24.6733  -48.8362 N.am      14 UNK        -0.5000 
     80 CA          1.3042  -24.1534  -50.1926 C.3       14 UNK         0.1400 
     81 CB          2.4131  -23.0873  -50.1947 C.3       14 UNK        -0.1800 
     82 C           0.0003  -23.5765  -50.7570 C.2       14 UNK         0.5000 
     83 O          -0.3314  -23.8626  -51.9081 O.2       14 UNK        -0.5000 
     84 N          -0.7157  -22.7743  -49.9559 N.am      15 UNK        -0.5000 
     85 CA         -1.9325  -22.0830  -50.3990 C.3       15 UNK         0.1400 
     86 CB         -2.1401  -20.8093  -49.5671 C.3       15 UNK        -0.1800 
     87 C          -3.1936  -22.9660  -50.3577 C.2       15 UNK         0.5000 
     88 O          -4.2248  -22.5424  -50.8771 O.2       15 UNK        -0.5000 
     89 N          -3.1055  -24.1461  -49.7253 N.am      16 UNK        -0.5000 
     90 CA         -4.1747  -25.1325  -49.5311 C.3       16 UNK         0.1400 
     91 CB         -4.5355  -25.8049  -50.8717 C.3       16 UNK        -0.1800 
     92 C          -5.4003  -24.5475  -48.7948 C.2       16 UNK         0.5000 
     93 O          -6.5382  -24.7477  -49.2220 O.2       16 UNK        -0.5000 
     94 N          -5.1228  -23.8166  -47.7060 N.am      17 UNK        -0.5000 
     95 CA         -6.0552  -23.0488  -46.8766 C.3       17 UNK         0.1400 
     96 CB         -7.1074  -23.9605  -46.2106 C.3       17 UNK        -0.1800 
     97 C          -6.6601  -21.8557  -47.6441 C.2       17 UNK         0.5000 
     98 O          -7.8703  -21.6295  -47.5891 O.2       17 UNK        -0.5000 
     99 N          -5.7817  -21.1145  -48.3365 N.am      18 UNK        -0.5000 
    100 CA        -6.0573  -19.9113  -49.1296 C.3       18 UNK         0.1400 
    101 CB        -6.5311  -18.7580  -48.2201 C.3       18 UNK        -0.1800 
    102 C         -7.0144  -20.1801  -50.3097 C.2       18 UNK         0.5000 
    103 O         -7.9772  -19.4376  -50.5147 O.2       18 UNK        -0.5000 
    104 N         -6.7444  -21.2571  -51.0562 N.am      19 UNK        -0.5000 
    105 CA        -7.4990  -21.6480  -52.2415 C.3       19 UNK         0.1400 
    106 CB        -7.2459  -23.1353  -52.5310 C.3       19 UNK        -0.1800 
    107 C         -7.0988  -20.7862  -53.4508 C.2       19 UNK         0.5000 
    108 O         -5.9047  -20.5927  -53.6937 O.2       19 UNK        -0.5000 
    109 N         -8.1097  -20.3267  -54.2021 N.am      20 UNK        -0.5000 
    110 CA        -8.0081  -19.5254  -55.4270 C.3       20 UNK         0.1400 
    111 CB        -7.4676  -20.3969  -56.5842 C.3       20 UNK        -0.1800 
    112 C         -7.2287  -18.2050  -55.2217 C.2       20 UNK         0.5000 
    113 O         -7.3161  -17.6005  -54.1501 O.2       20 UNK        -0.5000 
    114 N         -6.4931  -17.7669  -56.2501 N.am      21 UNK        -0.5000 
    115 CA        -5.6231  -16.5935  -56.2273 C.3       21 UNK         0.1400 
    116 CB        -5.5209  -16.0274  -57.6556 C.3       21 UNK        -0.1800 
    117 C         -4.2499  -16.9610  -55.6318 C.2       21 UNK         0.5000 
    118 O         -3.2558  -17.0257  -56.3584 O.2       21 UNK        -0.5000 
    119 N         -4.2319  -17.2392  -54.3238 N.am      22 UNK        -0.5000 
    120 CA        -3.0244  -17.5282  -53.5367 C.3       22 UNK         0.1400 
    121 C         -2.0215  -16.3404  -53.4511 C.2       22 UNK         0.5000 
    122 N         -0.7641  -16.6174  -53.1346 N.am      22 UNK        -0.7600 
    123 O         -2.3758  -15.1751  -53.6197 O.2       22 UNK        -0.5000 
    124 C124       -3.3715  -18.0902  -52.1309 C.3       23 UNK        -0.0398 
    125 S125       -4.5069  -17.0526  -51.1410 S.3       23 UNK        -0.2404 
    126 C126       -3.3665  -15.9979  -50.1849 C.3       23 UNK        -0.0205 
    127 H127        8.6214  -16.2640  -50.3258 H         1 UNK         0.0600 
    128 H128        8.2119  -17.6876  -49.3646 H         1 UNK         0.0600 
    129 H129        8.9060  -16.2650  -48.5820 H         1 UNK         0.0600 
    130 H130        6.0135  -17.8667  -49.0468 H         1 UNK         0.3000 
    131 H131        4.3906  -15.6195  -48.1616 H         1 UNK         0.0600 
    132 H132        3.5285  -18.5046  -48.7138 H         1 UNK         0.0800 
    133 H133        4.1748  -17.9386  -47.1985 H         1 UNK         0.0800 
    134 H134        1.0187  -19.1775  -48.0859 H         1 UNK         0.0800 
    135 H135        1.1345  -18.1376  -49.4878 H         1 UNK         0.0800 
    136 H136       -0.7686  -16.8663  -50.1857 H         1 UNK         0.1150 
    137 H137       -4.3106  -16.8100  -47.7798 H         1 UNK         0.1150 
    138 H138       -0.6936  -18.5263  -46.2377 H         1 UNK         0.1150 
    139 H139       -2.7076  -17.7774  -44.7224 H         1 UNK         0.0800 
    140 H140       -4.2317  -17.4719  -45.5005 H         1 UNK         0.0800 
    141 H141       -2.5460  -21.1606  -43.8989 H         1 UNK         0.0800 
    142 H142       -1.6715  -19.7247  -44.3127 H         1 UNK         0.0800 
    143 H143       -1.4987  -20.8155  -46.7375 H         1 UNK         0.0600 
    144 H144        0.2884  -20.8027  -44.6102 H         1 UNK         0.3000 
    145 H145        2.9519  -22.6315  -46.0796 H         1 UNK         0.0600 
    146 H146        4.1445  -20.4874  -45.5795 H         1 UNK         0.0600 
    147 H147        3.2159  -20.3871  -47.0674 H         1 UNK         0.0600 
    148 H148        2.6071  -19.6219  -45.6054 H         1 UNK         0.0600 
    149 H149        2.5491  -21.1596  -43.6208 H         1 UNK         0.3000 
    150 H150        1.4382  -23.9817  -41.7032 H         1 UNK         0.0600 
    151 H151        3.9390  -23.9810  -41.7585 H         1 UNK         0.0600 
    152 H152        3.3266  -23.1715  -40.3254 H         1 UNK         0.0600 
    153 H153        3.9519  -22.2235  -41.6743 H         1 UNK         0.0600 
    154 H154        1.7685  -21.2243  -41.0321 H         1 UNK         0.3000 
    155 H155       -1.5052  -20.1189  -41.8619 H         1 UNK         0.0600 
    156 H156       -0.2884  -20.6967  -39.1131 H         1 UNK         0.0600 
    157 H157       -1.8265  -21.3241  -39.6948 H         1 UNK         0.0600 
    158 H158       -1.6235  -19.5961  -39.4551 H         1 UNK         0.0600 
    159 H159        0.3769  -18.6464  -40.5073 H         1 UNK         0.3000 
    160 H160        2.3404  -17.6002  -41.4027 H         1 UNK         0.0600 
    161 H161        2.2000  -17.2794  -44.4450 H         1 UNK         0.0600 
    162 H162        3.4229  -18.1618  -43.5449 H         1 UNK         0.0600 
    163 H163        3.3038  -16.4159  -43.3789 H         1 UNK         0.0600 
    164 H164        0.6987  -15.8497  -43.0857 H         1 UNK         0.3000 
    165 H165       -1.4889  -14.8382  -40.5354 H         1 UNK         0.0600 
    166 H166       -0.4736  -12.5709  -40.5403 H         1 UNK         0.0600 
    167 H167        0.4796  -13.6632  -39.5498 H         1 UNK         0.0600 
    168 H168        1.0440  -13.2257  -41.1579 H         1 UNK         0.0600 
    169 H169       -0.5685  -13.5656  -42.9677 H         1 UNK         0.3000 
    170 H170       -2.3937  -15.4501  -45.2381 H         1 UNK         0.0600 
    171 H171       -4.3630  -14.2062  -44.3240 H         1 UNK         0.0600 
    172 H172       -3.3950  -12.7386  -44.2370 H         1 UNK         0.0600 
    173 H173       -3.7554  -13.4749  -45.7998 H         1 UNK         0.0600 
    174 H174       -1.3739  -12.9781  -45.7964 H         1 UNK         0.3000 
    175 H175        0.8474  -12.3586  -46.0666 H         1 UNK         0.0600 
    176 H176        2.8791  -14.6536  -46.0710 H         1 UNK         0.0600 
    177 H177        3.2116  -12.9683  -46.4613 H         1 UNK         0.0600 
    178 H178        2.7243  -13.4170  -44.8344 H         1 UNK         0.0600 
    179 H179        1.4823  -14.4129  -48.0742 H         1 UNK         0.3000 
    180 H180       -0.4986  -14.4791  -50.0572 H         1 UNK         0.0600 
    181 H181       -0.3544  -11.5012  -50.7886 H         1 UNK         0.0600 
    182 H182       -1.8382  -12.4029  -50.4939 H         1 UNK         0.0600 
    183 H183       -0.8409  -12.8039  -51.8728 H         1 UNK         0.0600 
    184 H184        2.0557  -13.2733  -49.7564 H         1 UNK         0.3000 
    185 H185        3.5179  -14.9110  -52.5795 H         1 UNK         0.0600 
    186 H186        3.4868  -12.4360  -52.9128 H         1 UNK         0.0600 
    187 H187        3.7991  -12.1850  -51.1995 H         1 UNK         0.0600 
    188 H188        5.0081  -12.9690  -52.2147 H         1 UNK         0.0600 
    189 H189        4.4934  -14.2133  -49.9586 H         1 UNK         0.3000 
    190 H190       -1.0513  -23.3133  -44.1978 H         1 UNK         0.3000 
    191 H191       -2.9472  -25.1665  -45.2904 H         1 UNK         0.0600 
    192 H192       -0.5795  -25.5872  -43.3894 H         1 UNK         0.0600 
    193 H193       -1.8526  -26.7617  -43.7046 H         1 UNK         0.0600 
    194 H194       -2.2412  -25.2351  -42.9247 H         1 UNK         0.0600 
    195 H195        0.6518  -24.9860  -45.5041 H         1 UNK         0.3000 
    196 H196        0.8774  -27.4097  -46.9673 H         1 UNK         0.0600 
    197 H197        3.2853  -26.7916  -47.0948 H         1 UNK         0.0600 
    198 H198        2.6492  -26.5629  -45.4733 H         1 UNK         0.0600 
    199 H199        2.9137  -25.1705  -46.5208 H         1 UNK         0.0600 
    200 H200        1.0836  -23.9803  -48.0941 H         1 UNK         0.3000 
    201 H201        1.6260  -24.9508  -50.8660 H         1 UNK         0.0600 
    202 H202        3.3526  -23.4971  -49.8236 H         1 UNK         0.0600 
    203 H203        2.1578  -22.2261  -49.5771 H         1 UNK         0.0600 
    204 H204        2.5960  -22.7195  -51.2051 H         1 UNK         0.0600 
    205 H205       -0.3787  -22.5793  -49.0189 H         1 UNK         0.3000 
    206 H206       -1.7911  -21.7702  -51.4359 H         1 UNK         0.0600 
    207 H207       -1.2037  -20.2775  -49.4034 H         1 UNK         0.0600 
    208 H208       -2.8175  -20.1257  -50.0762 H         1 UNK         0.0600 
    209 H209       -2.5891  -21.0248  -48.6010 H         1 UNK         0.0600 
    210 H210       -2.2255  -24.3603  -49.2779 H         1 UNK         0.3000 
    211 H211       -3.7659  -25.9031  -48.8759 H         1 UNK         0.0600 
    212 H212       -4.9785  -25.0980  -51.5729 H         1 UNK         0.0600 
    213 H213       -5.2530  -26.6127  -50.7237 H         1 UNK         0.0600 
    214 H214       -3.6536  -26.2369  -51.3445 H         1 UNK         0.0600 
    215 H215       -4.1389  -23.6773  -47.4746 H         1 UNK         0.3000 
    216 H216       -5.4536  -22.6156  -46.0760 H         1 UNK         0.0600 
    217 H217       -7.6987  -23.4023  -45.4840 H         1 UNK         0.0600 
    218 H218       -6.6336  -24.7851  -45.6780 H         1 UNK         0.0600 
    219 H219       -7.8019  -24.3834  -46.9366 H         1 UNK         0.0600 
    220 H220       -4.8199  -21.4196  -48.3337 H         1 UNK         0.3000 
    221 H221       -5.1056  -19.6113  -49.5680 H         1 UNK         0.0600 
    222 H222       -7.5238  -18.9444  -47.8099 H         1 UNK         0.0600 
    223 H223       -5.8497  -18.6093  -47.3838 H         1 UNK         0.0600 
    224 H224       -6.5769  -17.8201  -48.7746 H         1 UNK         0.0600 
    225 H225       -5.8908  -21.7833  -50.8781 H         1 UNK         0.3000 
    226 H226       -8.5640  -21.5179  -52.0376 H         1 UNK         0.0600 
    227 H227       -7.5237  -23.7568  -51.6796 H         1 UNK         0.0600 
    228 H228       -7.8317  -23.4718  -53.3871 H         1 UNK         0.0600 
    229 H229       -6.1959  -23.3259  -52.7562 H         1 UNK         0.0600 
    230 H230       -9.0529  -20.5150  -53.8931 H         1 UNK         0.3000 
    231 H231       -9.0276  -19.2336  -55.6826 H         1 UNK         0.0600 
    232 H232       -8.0253  -21.3303  -56.6630 H         1 UNK         0.0600 
    233 H233       -6.4164  -20.6524  -56.4437 H         1 UNK         0.0600 
    234 H234       -7.5648  -19.8915  -57.5456 H         1 UNK         0.0600 
    235 H235       -6.4495  -18.3351  -57.0836 H         1 UNK         0.3000 
    236 H236       -6.0639  -15.8193  -55.5954 H         1 UNK         0.0600 
    237 H237       -4.8781  -15.1465  -57.6804 H         1 UNK         0.0600 
    238 H238       -5.1074  -16.7569  -58.3531 H         1 UNK         0.0600 
    239 H239       -6.4993  -15.7248  -58.0292 H         1 UNK         0.0600 
    240 H240       -5.1003  -17.1926  -53.8055 H         1 UNK         0.3000 
    241 H241       -2.5021  -18.3221  -54.0742 H         1 UNK         0.0600 
    242 H242       -0.1098  -15.8451  -53.0147 H         1 UNK         0.3800 
    243 H243       -0.4370  -17.5614  -53.0102 H         1 UNK         0.3800 
    244 H244       -2.4657  -18.2941  -51.5602 H         1 UNK         0.0800 
    245 H245       -3.8561  -19.0604  -52.2526 H         1 UNK         0.0800 
    246 H246       -2.6668  -15.4971  -50.8528 H         1 UNK         0.0800 
    247 H247       -3.9478  -15.2003  -49.7203 H         1 UNK         0.0800 
@<TRIPOS>BOND
     1    1    2 1    
     2    1  127 1    
     3    1  128 1    
     4    1  129 1    
     5    2    3 2    
     6    2    4 am   BACKBONE|DICT|INTERRES
     7    4    5 1    
     8    4  130 1    
     9    5    6 1    
    10    5   65 1    
    11    5  131 1    
    12    6    7 1    
    13    6  132 1    
    14    6  133 1    
    15    7    8 1    
    16    8    9 1    
    17    8  134 1    
    18    8  135 1    
    19    9   10 ar   
    20    9   14 ar   
    21   10   11 ar   
    22   10  136 1    
    23   11   12 ar   
    24   11  126 1    
    25   12   13 ar   
    26   12  137 1    
    27   13   14 ar   
    28   13   15 1    
    29   14  138 1    
    30   15   16 1    
    31   15  139 1    
    32   15  140 1    
    33   16   17 1    
    34   17   18 1    
    35   17  141 1    
    36   17  142 1    
    37   18   19 1    
    38   18   67 1    
    39   18  143 1    
    40   19   20 am   BACKBONE|DICT|INTERRES
    41   19  144 1    
    42   20   21 2    
    43   20   22 1    
    44   22   23 1    
    45   22   24 1    
    46   22  145 1    
    47   23  146 1    
    48   23  147 1    
    49   23  148 1    
    50   24   25 am   BACKBONE|DICT|INTERRES
    51   24  149 1    
    52   25   26 2    
    53   25   27 1    
    54   27   28 1    
    55   27   29 1    
    56   27  150 1    
    57   28  151 1    
    58   28  152 1    
    59   28  153 1    
    60   29   30 am   BACKBONE|DICT|INTERRES
    61   29  154 1    
    62   30   31 2    
    63   30   32 1    
    64   32   33 1    
    65   32   34 1    
    66   32  155 1    
    67   33  156 1    
    68   33  157 1    
    69   33  158 1    
    70   34   35 am   BACKBONE|DICT|INTERRES
    71   34  159 1    
    72   35   36 2    
    73   35   37 1    
    74   37   38 1    
    75   37   39 1    
    76   37  160 1    
    77   38  161 1    
    78   38  162 1    
    79   38  163 1    
    80   39   40 am   BACKBONE|DICT|INTERRES
    81   39  164 1    
    82   40   41 2    
    83   40   42 1    
    84   42   43 1    
    85   42   44 1    
    86   42  165 1    
    87   43  166 1    
    88   43  167 1    
    89   43  168 1    
    90   44   45 am   BACKBONE|DICT|INTERRES
    91   44  169 1    
    92   45   46 2    
    93   45   47 1    
    94   47   48 1    
    95   47   49 1    
    96   47  170 1    
    97   48  171 1    
    98   48  172 1    
    99   48  173 1    
   100   49   50 am   BACKBONE|DICT|INTERRES
   101   49  174 1    
   102   50   51 2    
   103   50   52 1    
   104   52   53 1    
   105   52   54 1    
   106   52  175 1    
   107   53  176 1    
   108   53  177 1    
   109   53  178 1    
   110   54   55 am   BACKBONE|DICT|INTERRES
   111   54  179 1    
   112   55   56 2    
   113   55   57 1    
   114   57   58 1    
   115   57   59 1    
   116   57  180 1    
   117   58  181 1    
   118   58  182 1    
   119   58  183 1    
   120   59   60 am   BACKBONE|DICT|INTERRES
   121   59  184 1    
   122   60   61 2    
   123   60   62 1    
   124   62   63 1    
   125   62   64 1    
   126   62  185 1    
   127   63  186 1    
   128   63  187 1    
   129   63  188 1    
   130   64   65 am   BACKBONE|DICT|INTERRES
   131   64  189 1    
   132   65   66 2    
   133   67   68 2    
   134   67   69 am   BACKBONE|DICT|INTERRES
   135   69   70 1    
   136   69  190 1    
   137   70   71 1    
   138   70   72 1    
   139   70  191 1    
   140   71  192 1    
   141   71  193 1    
   142   71  194 1    
   143   72   73 2    
   144   72   74 am   BACKBONE|DICT|INTERRES
   145   74   75 1    
   146   74  195 1    
   147   75   76 1    
   148   75   77 1    
   149   75  196 1    
   150   76  197 1    
   151   76  198 1    
   152   76  199 1    
   153   77   78 2    
   154   77   79 am   BACKBONE|DICT|INTERRES
   155   79   80 1    
   156   79  200 1    
   157   80   81 1    
   158   80   82 1    
   159   80  201 1    
   160   81  202 1    
   161   81  203 1    
   162   81  204 1    
   163   82   83 2    
   164   82   84 am   BACKBONE|DICT|INTERRES
   165   84   85 1    
   166   84  205 1    
   167   85   86 1    
   168   85   87 1    
   169   85  206 1    
   170   86  207 1    
   171   86  208 1    
   172   86  209 1    
   173   87   88 2    
   174   87   89 am   BACKBONE|DICT|INTERRES
   175   89   90 1    
   176   89  210 1    
   177   90   91 1    
   178   90   92 1    
   179   90  211 1    
   180   91  212 1    
   181   91  213 1    
   182   91  214 1    
   183   92   93 2    
   184   92   94 am   BACKBONE|DICT|INTERRES
   185   94   95 1    
   186   94  215 1    
   187   95   96 1    
   188   95   97 1    
   189   95  216 1    
   190   96  217 1    
   191   96  218 1    
   192   96  219 1    
   193   97   98 2    
   194   97   99 am   BACKBONE|DICT|INTERRES
   195   99  100 1    
   196   99  220 1    
   197  100  101 1    
   198  100  102 1    
   199  100  221 1    
   200  101  222 1    
   201  101  223 1    
   202  101  224 1    
   203  102  103 2    
   204  102  104 am   BACKBONE|DICT|INTERRES
   205  104  105 1    
   206  104  225 1    
   207  105  106 1    
   208  105  107 1    
   209  105  226 1    
   210  106  227 1    
   211  106  228 1    
   212  106  229 1    
   213  107  108 2    
   214  107  109 am   BACKBONE|DICT|INTERRES
   215  109  110 1    
   216  109  230 1    
   217  110  111 1    
   218  110  112 1    
   219  110  231 1    
   220  111  232 1    
   221  111  233 1    
   222  111  234 1    
   223  112  113 2    
   224  112  114 am   BACKBONE|DICT|INTERRES
   225  114  115 1    
   226  114  235 1    
   227  115  116 1    
   228  115  117 1    
   229  115  236 1    
   230  116  237 1    
   231  116  238 1    
   232  116  239 1    
   233  117  118 2    
   234  117  119 am   BACKBONE|DICT|INTERRES
   235  119  120 1    
   236  119  240 1    
   237  120  121 1    
   238  120  124 1    
   239  120  241 1    
   240  121  122 am   BACKBONE|DICT|INTERRES
   241  121  123 2    
   242  122  242 1    
   243  122  243 1    
   244  124  125 1    
   245  124  244 1    
   246  124  245 1    
   247  125  126 1    
   248  126  246 1    
   249  126  247 1    
@<TRIPOS>SUBSTRUCTURE
     1 UNK         1 GROUP             0       ****    0 ROOT    
