@<TRIPOS>MOLECULE
3R540
247   249    1
SMALL
USER_CHARGES


@<TRIPOS>ATOM
      1 CA          1.8525  -17.1394  -50.8972 C.3       0 UNK        -0.1800 
      2 C           0.7931  -17.0211  -49.8109 C.2       0 UNK         0.5000 
      3 O           0.6225  -17.9474  -49.0195 O.2       0 UNK        -0.5000 
      4 N           0.0652  -15.8990  -49.7903 N.am      1 UNK        -0.5000 
      5 CA         -0.9442  -15.5586  -48.7794 C.3       1 UNK         0.1400 
      6 C6         -1.8787  -14.4303  -49.2886 C.3       23 UNK        -0.0398 
      7 S7         -2.9595  -14.9815  -50.6560 S.3       23 UNK        -0.2404 
      8 C8         -4.6176  -14.8913  -49.8929 C.3       23 UNK        -0.0205 
      9 C9         -5.0247  -16.2026  -49.2356 C.ar      23 UNK        -0.0193 
     10 C10        -5.9664  -17.0374  -49.8450 C.ar      23 UNK        -0.1150 
     11 C11        -6.3584  -18.2345  -49.2384 C.ar      23 UNK        -0.0193 
     12 C12        -5.7868  -18.6004  -48.0157 C.ar      23 UNK        -0.1150 
     13 C13        -4.8277  -17.7877  -47.4034 C.ar      23 UNK        -0.0193 
     14 C14        -4.4770  -16.5753  -48.0068 C.ar      23 UNK        -0.1150 
     15 C15        -4.1829  -18.2282  -46.0933 C.3       23 UNK        -0.0205 
     16 S16        -2.3742  -17.9953  -46.0987 S.3       23 UNK        -0.2404 
     17 C17        -1.8235  -19.2359  -44.8891 C.3       23 UNK        -0.0398 
     18 CA         -1.0731  -20.4036  -45.5724 C.3       11 UNK         0.1400 
     19 N          -0.1731  -21.0853  -44.6389 N.am      11 UNK        -0.5000 
     20 C           0.7032  -22.0462  -44.9616 C.2       10 UNK         0.5000 
     21 O           0.8621  -22.4710  -46.1028 O.2       10 UNK        -0.5000 
     22 CA          1.4947  -22.6774  -43.8051 C.3       10 UNK         0.1400 
     23 CB          2.7064  -21.8116  -43.4243 C.3       10 UNK        -0.1800 
     24 N           0.6411  -22.8907  -42.6369 N.am      10 UNK        -0.5000 
     25 C          -0.3118  -23.8321  -42.5684 C.2       9 UNK         0.5000 
     26 O          -0.5066  -24.6731  -43.4465 O.2       9 UNK        -0.5000 
     27 CA         -1.2258  -23.8001  -41.3289 C.3       9 UNK         0.1400 
     28 CB         -0.5852  -24.5693  -40.1640 C.3       9 UNK        -0.1800 
     29 N          -1.5404  -22.4372  -40.8941 N.am      9 UNK        -0.5000 
     30 C          -2.2752  -21.5646  -41.5989 C.2       8 UNK         0.5000 
     31 O          -2.7997  -21.8300  -42.6799 O.2       8 UNK        -0.5000 
     32 CA         -2.3956  -20.1382  -41.0260 C.3       8 UNK         0.1400 
     33 CB         -3.5799  -20.0464  -40.0530 C.3       8 UNK        -0.1800 
     34 N          -1.1759  -19.6752  -40.3550 N.am      8 UNK        -0.5000 
     35 C           0.0156  -19.5416  -40.9516 C.2       7 UNK         0.5000 
     36 O           0.2117  -19.7882  -42.1447 O.2       7 UNK        -0.5000 
     37 CA          1.1907  -19.1221  -40.0597 C.3       7 UNK         0.1400 
     38 CB          1.5604  -20.2575  -39.0839 C.3       7 UNK        -0.1800 
     39 N           2.3322  -18.8091  -40.9130 N.am      7 UNK        -0.5000 
     40 C           3.4304  -18.1412  -40.5464 C.2       6 UNK         0.5000 
     41 O           3.5941  -17.6625  -39.4232 O.2       6 UNK        -0.5000 
     42 CA          4.5499  -17.9976  -41.5962 C.3       6 UNK         0.1400 
     43 CB          5.6361  -19.0584  -41.3576 C.3       6 UNK        -0.1800 
     44 N           4.0957  -18.0998  -42.9862 N.am      6 UNK        -0.5000 
     45 C           3.4135  -17.1465  -43.6327 C.2       5 UNK         0.5000 
     46 O           3.0024  -16.1157  -43.0969 O.2       5 UNK        -0.5000 
     47 CA          3.1474  -17.3978  -45.1298 C.3       5 UNK         0.1400 
     48 CB          1.7703  -18.0445  -45.3389 C.3       5 UNK        -0.1800 
     49 N           3.2328  -16.1683  -45.9195 N.am      5 UNK        -0.5000 
     50 C           4.3597  -15.4718  -46.1290 C.2       4 UNK         0.5000 
     51 O           5.4624  -15.8145  -45.6996 O.2       4 UNK        -0.5000 
     52 CA          4.2489  -14.1841  -46.9630 C.3       4 UNK         0.1400 
     53 CB          4.2471  -14.5193  -48.4635 C.3       4 UNK        -0.1800 
     54 N           3.0328  -13.4384  -46.6433 N.am      4 UNK        -0.5000 
     55 C           2.9841  -12.2780  -45.9749 C.2       3 UNK         0.5000 
     56 O           3.9800  -11.6904  -45.5503 O.2       3 UNK        -0.5000 
     57 CA          1.5906  -11.6515  -45.7494 C.3       3 UNK         0.1400 
     58 CB          1.2965  -10.5989  -46.8294 C.3       3 UNK        -0.1800 
     59 N           0.5111  -12.6398  -45.7482 N.am      3 UNK        -0.5000 
     60 C           0.2884  -13.5174  -44.7614 C.2       2 UNK         0.5000 
     61 O           0.8783  -13.4832  -43.6819 O.2       2 UNK        -0.5000 
     62 CA         -0.7539  -14.6283  -45.0155 C.3       2 UNK         0.1400 
     63 CB         -2.0397  -14.3546  -44.2200 C.3       2 UNK        -0.1800 
     64 N          -1.1195  -14.8693  -46.4186 N.am      2 UNK        -0.5000 
     65 C          -0.2905  -15.1976  -47.4208 C.2       1 UNK         0.5000 
     66 O           0.9355  -15.2023  -47.2951 O.2       1 UNK        -0.5000 
     67 C          -2.0459  -21.3730  -46.2775 C.2       11 UNK         0.5000 
     68 O          -2.2930  -21.2218  -47.4712 O.2       11 UNK        -0.5000 
     69 N          -2.5469  -22.3766  -45.5443 N.am      12 UNK        -0.5000 
     70 CA         -3.3964  -23.4413  -46.0785 C.3       12 UNK         0.1400 
     71 CB         -3.9245  -24.2982  -44.9190 C.3       12 UNK        -0.1800 
     72 C          -2.6855  -24.3200  -47.1277 C.2       12 UNK         0.5000 
     73 O          -3.3272  -24.7515  -48.0864 O.2       12 UNK        -0.5000 
     74 N          -1.3809  -24.5587  -46.9408 N.am      13 UNK        -0.5000 
     75 CA         -0.5380  -25.2766  -47.8963 C.3       13 UNK         0.1400 
     76 CB          0.6890  -25.8447  -47.1659 C.3       13 UNK        -0.1800 
     77 C          -0.1120  -24.3812  -49.0749 C.2       13 UNK         0.5000 
     78 O          -0.0739  -24.8552  -50.2106 O.2       13 UNK        -0.5000 
     79 N           0.2076  -23.1157  -48.7749 N.am      14 UNK        -0.5000 
     80 CA          0.6071  -22.0784  -49.7198 C.3       14 UNK         0.1400 
     81 CB          1.5204  -21.0702  -48.9972 C.3       14 UNK        -0.1800 
     82 C          -0.6211  -21.4449  -50.4061 C.2       14 UNK         0.5000 
     83 O          -1.2850  -22.1338  -51.1788 O.2       14 UNK        -0.5000 
     84 N          -0.8704  -20.1435  -50.1816 N.am      15 UNK        -0.5000 
     85 CA         -1.8951  -19.3016  -50.8247 C.3       15 UNK         0.1400 
     86 CB         -3.3161  -19.8147  -50.5364 C.3       15 UNK        -0.1800 
     87 C          -1.6524  -19.0883  -52.3342 C.2       15 UNK         0.5000 
     88 O          -2.5737  -18.7111  -53.0683 O.2       15 UNK        -0.5000 
     89 N          -0.4140  -19.3507  -52.7764 N.am      16 UNK        -0.5000 
     90 CA          0.0681  -19.3472  -54.1579 C.3       16 UNK         0.1400 
     91 CB          1.3605  -20.1792  -54.2250 C.3       16 UNK        -0.1800 
     92 C           0.2365  -17.9263  -54.7303 C.2       16 UNK         0.5000 
     93 O           1.3128  -17.5515  -55.1979 O.2       16 UNK        -0.5000 
     94 N          -0.8554  -17.1678  -54.6712 N.am      17 UNK        -0.5000 
     95 CA         -1.0202  -15.8238  -55.2034 C.3       17 UNK         0.1400 
     96 CB         -0.4977  -14.7836  -54.1966 C.3       17 UNK        -0.1800 
     97 C          -2.5015  -15.5948  -55.5306 C.2       17 UNK         0.5000 
     98 O          -2.8092  -15.0300  -56.5806 O.2       17 UNK        -0.5000 
     99 N          -3.3900  -16.0562  -54.6381 N.am      18 UNK        -0.5000 
    100 CA        -4.8366  -15.9115  -54.7735 C.3       18 UNK         0.1400 
    101 CB        -5.4385  -15.6631  -53.3861 C.3       18 UNK        -0.1800 
    102 C         -5.5049  -17.1305  -55.4277 C.2       18 UNK         0.5000 
    103 O         -6.4475  -16.9420  -56.1986 O.2       18 UNK        -0.5000 
    104 N         -5.0406  -18.3485  -55.1083 N.am      19 UNK        -0.5000 
    105 CA        -5.6910  -19.5868  -55.5550 C.3       19 UNK         0.1400 
    106 CB        -6.9529  -19.8566  -54.7117 C.3       19 UNK        -0.1800 
    107 C         -4.7713  -20.8167  -55.5343 C.2       19 UNK         0.5000 
    108 O         -4.9045  -21.6628  -56.4191 O.2       19 UNK        -0.5000 
    109 N         -3.8727  -20.8891  -54.5413 N.am      20 UNK        -0.5000 
    110 CA        -2.9989  -22.0143  -54.1859 C.3       20 UNK         0.1400 
    111 CB        -2.1368  -22.4917  -55.3722 C.3       20 UNK        -0.1800 
    112 C         -3.7612  -23.1879  -53.5357 C.2       20 UNK         0.5000 
    113 O         -4.7876  -23.6311  -54.0536 O.2       20 UNK        -0.5000 
    114 N         -3.2067  -23.6895  -52.4237 N.am      21 UNK        -0.5000 
    115 CA        -3.6504  -24.8443  -51.6371 C.3       21 UNK         0.1400 
    116 CB        -3.4504  -26.1505  -52.4334 C.3       21 UNK        -0.1800 
    117 C         -5.0816  -24.6794  -51.0856 C.2       21 UNK         0.5000 
    118 O         -5.9440  -25.5292  -51.3194 O.2       21 UNK        -0.5000 
    119 N         -5.3061  -23.5696  -50.3720 N.am      22 UNK        -0.5000 
    120 CA        -6.5846  -23.2254  -49.7264 C.3       22 UNK         0.1400 
    121 C         -7.0177  -24.1612  -48.5575 C.2       22 UNK         0.5000 
    122 N         -6.1397  -24.9654  -47.9735 N.am      22 UNK        -0.7600 
    123 O         -8.1858  -24.1627  -48.1788 O.2       22 UNK        -0.5000 
    124 C124       -6.6014  -21.7449  -49.2726 C.3       23 UNK        -0.0398 
    125 S125       -6.6941  -20.5934  -50.6846 S.3       23 UNK        -0.2404 
    126 C126       -7.4129  -19.1144  -49.8983 C.3       23 UNK        -0.0205 
    127 H127        2.8446  -17.0109  -50.4649 H         1 UNK         0.0600 
    128 H128        1.7168  -16.3899  -51.6775 H         1 UNK         0.0600 
    129 H129        1.8109  -18.1230  -51.3634 H         1 UNK         0.0600 
    130 H130        0.2616  -15.1754  -50.4656 H         1 UNK         0.3000 
    131 H131       -1.5491  -16.4494  -48.6001 H         1 UNK         0.0600 
    132 H132       -2.5074  -14.0350  -48.4913 H         1 UNK         0.0800 
    133 H133       -1.2907  -13.5805  -49.6394 H         1 UNK         0.0800 
    134 H134       -5.3410  -14.6256  -50.6633 H         1 UNK         0.0800 
    135 H135       -4.6655  -14.0802  -49.1657 H         1 UNK         0.0800 
    136 H136       -6.4097  -16.7492  -50.7866 H         1 UNK         0.1150 
    137 H137       -6.0859  -19.5231  -47.5413 H         1 UNK         0.1150 
    138 H138       -3.7617  -15.9277  -47.5255 H         1 UNK         0.1150 
    139 H139       -4.6178  -17.6644  -45.2673 H         1 UNK         0.0800 
    140 H140       -4.4047  -19.2806  -45.9097 H         1 UNK         0.0800 
    141 H141       -1.1582  -18.7164  -44.1986 H         1 UNK         0.0800 
    142 H142       -2.6617  -19.5904  -44.2880 H         1 UNK         0.0800 
    143 H143       -0.4299  -19.9818  -46.3475 H         1 UNK         0.0600 
    144 H144       -0.1933  -20.7602  -43.6761 H         1 UNK         0.3000 
    145 H145        1.8669  -23.6471  -44.1432 H         1 UNK         0.0600 
    146 H146        3.2801  -22.2685  -42.6178 H         1 UNK         0.0600 
    147 H147        3.3789  -21.6934  -44.2749 H         1 UNK         0.0600 
    148 H148        2.4124  -20.8143  -43.1022 H         1 UNK         0.0600 
    149 H149        0.7064  -22.2109  -41.8946 H         1 UNK         0.3000 
    150 H150       -2.1619  -24.2964  -41.5941 H         1 UNK         0.0600 
    151 H151       -0.3547  -25.5953  -40.4540 H         1 UNK         0.0600 
    152 H152       -1.2574  -24.6184  -39.3072 H         1 UNK         0.0600 
    153 H153        0.3450  -24.1040  -39.8353 H         1 UNK         0.0600 
    154 H154       -1.1506  -22.1371  -40.0130 H         1 UNK         0.3000 
    155 H155       -2.5904  -19.4626  -41.8606 H         1 UNK         0.0600 
    156 H156       -3.4312  -20.6765  -39.1752 H         1 UNK         0.0600 
    157 H157       -3.7306  -19.0225  -39.7104 H         1 UNK         0.0600 
    158 H158       -4.5056  -20.3659  -40.5337 H         1 UNK         0.0600 
    159 H159       -1.2591  -19.4589  -39.3720 H         1 UNK         0.3000 
    160 H160        0.8997  -18.2287  -39.5038 H         1 UNK         0.0600 
    161 H161        1.8609  -21.1612  -39.6160 H         1 UNK         0.0600 
    162 H162        0.7208  -20.5185  -38.4390 H         1 UNK         0.0600 
    163 H163        2.3833  -19.9692  -38.4299 H         1 UNK         0.0600 
    164 H164        2.2290  -19.1167  -41.8709 H         1 UNK         0.3000 
    165 H165        5.0016  -17.0129  -41.4570 H         1 UNK         0.0600 
    166 H166        6.4793  -18.9202  -42.0345 H         1 UNK         0.0600 
    167 H167        6.0258  -18.9981  -40.3404 H         1 UNK         0.0600 
    168 H168        5.2501  -20.0686  -41.5013 H         1 UNK         0.0600 
    169 H169        4.4002  -18.9169  -43.4950 H         1 UNK         0.3000 
    170 H170        3.9059  -18.0862  -45.5083 H         1 UNK         0.0600 
    171 H171        0.9644  -17.4012  -44.9894 H         1 UNK         0.0600 
    172 H172        1.6967  -18.9846  -44.7932 H         1 UNK         0.0600 
    173 H173        1.5900  -18.2633  -46.3918 H         1 UNK         0.0600 
    174 H174        2.3667  -15.8324  -46.3317 H         1 UNK         0.3000 
    175 H175        5.1333  -13.5784  -46.7552 H         1 UNK         0.0600 
    176 H176        5.1400  -15.0813  -48.7403 H         1 UNK         0.0600 
    177 H177        3.3803  -15.1200  -48.7418 H         1 UNK         0.0600 
    178 H178        4.2326  -13.6126  -49.0683 H         1 UNK         0.0600 
    179 H179        2.1611  -13.8838  -46.9165 H         1 UNK         0.3000 
    180 H180        1.6048  -11.1504  -44.7792 H         1 UNK         0.0600 
    181 H181        1.2601  -11.0427  -47.8251 H         1 UNK         0.0600 
    182 H182        2.0671   -9.8269  -46.8422 H         1 UNK         0.0600 
    183 H183        0.3435  -10.1018  -46.6471 H         1 UNK         0.0600 
    184 H184       -0.0267  -12.7284  -46.5968 H         1 UNK         0.3000 
    185 H185       -0.3197  -15.5528  -44.6337 H         1 UNK         0.0600 
    186 H186       -1.8231  -14.2061  -43.1612 H         1 UNK         0.0600 
    187 H187       -2.5509  -13.4607  -44.5794 H         1 UNK         0.0600 
    188 H188       -2.7339  -15.1924  -44.2913 H         1 UNK         0.0600 
    189 H189       -2.1120  -14.8864  -46.5936 H         1 UNK         0.3000 
    190 H190       -2.3632  -22.3922  -44.5461 H         1 UNK         0.3000 
    191 H191       -4.2504  -22.9696  -46.5692 H         1 UNK         0.0600 
    192 H192       -3.1130  -24.7777  -44.3709 H         1 UNK         0.0600 
    193 H193       -4.5856  -25.0853  -45.2834 H         1 UNK         0.0600 
    194 H194       -4.4950  -23.6956  -44.2120 H         1 UNK         0.0600 
    195 H195       -0.9210  -24.1554  -46.1360 H         1 UNK         0.3000 
    196 H196       -1.1038  -26.1179  -48.3027 H         1 UNK         0.0600 
    197 H197        1.3184  -26.4158  -47.8494 H         1 UNK         0.0600 
    198 H198        0.3914  -26.5153  -46.3596 H         1 UNK         0.0600 
    199 H199        1.3060  -25.0566  -46.7337 H         1 UNK         0.0600 
    200 H200        0.1964  -22.8392  -47.7968 H         1 UNK         0.3000 
    201 H201        1.2002  -22.5419  -50.5106 H         1 UNK         0.0600 
    202 H202        2.3923  -21.5694  -48.5740 H         1 UNK         0.0600 
    203 H203        1.0063  -20.5657  -48.1790 H         1 UNK         0.0600 
    204 H204        1.8919  -20.3088  -49.6837 H         1 UNK         0.0600 
    205 H205       -0.2715  -19.6413  -49.5316 H         1 UNK         0.3000 
    206 H206       -1.8167  -18.3159  -50.3664 H         1 UNK         0.0600 
    207 H207       -3.4860  -19.9259  -49.4661 H         1 UNK         0.0600 
    208 H208       -4.0606  -19.1085  -50.9041 H         1 UNK         0.0600 
    209 H209       -3.5156  -20.7743  -51.0123 H         1 UNK         0.0600 
    210 H210        0.2594  -19.6385  -52.0837 H         1 UNK         0.3000 
    211 H211       -0.6792  -19.8451  -54.7769 H         1 UNK         0.0600 
    212 H212        2.1536  -19.7407  -53.6180 H         1 UNK         0.0600 
    213 H213        1.7292  -20.2492  -55.2491 H         1 UNK         0.0600 
    214 H214        1.1914  -21.1974  -53.8736 H         1 UNK         0.0600 
    215 H215       -1.6799  -17.5969  -54.2630 H         1 UNK         0.3000 
    216 H216       -0.4552  -15.7349  -56.1338 H         1 UNK         0.0600 
    217 H217       -0.6417  -13.7701  -54.5729 H         1 UNK         0.0600 
    218 H218        0.5688  -14.9137  -54.0126 H         1 UNK         0.0600 
    219 H219       -1.0130  -14.8563  -53.2381 H         1 UNK         0.0600 
    220 H220       -3.0630  -16.4865  -53.7848 H         1 UNK         0.3000 
    221 H221       -5.0663  -15.0401  -55.3907 H         1 UNK         0.0600 
    222 H222       -5.1601  -16.4522  -52.6874 H         1 UNK         0.0600 
    223 H223       -5.0892  -14.7129  -52.9834 H         1 UNK         0.0600 
    224 H224       -6.5278  -15.6194  -53.4251 H         1 UNK         0.0600 
    225 H225       -4.2377  -18.4319  -54.4989 H         1 UNK         0.3000 
    226 H226       -5.9980  -19.4591  -56.5956 H         1 UNK         0.0600 
    227 H227       -7.6987  -19.0729  -54.8432 H         1 UNK         0.0600 
    228 H228       -7.4232  -20.7987  -54.9967 H         1 UNK         0.0600 
    229 H229       -6.7153  -19.9167  -53.6496 H         1 UNK         0.0600 
    230 H230       -3.8419  -20.1281  -53.8751 H         1 UNK         0.3000 
    231 H231       -2.3122  -21.6112  -53.4456 H         1 UNK         0.0600 
    232 H232       -1.3396  -23.1498  -55.0249 H         1 UNK         0.0600 
    233 H233       -1.6685  -21.6570  -55.8921 H         1 UNK         0.0600 
    234 H234       -2.7208  -23.0537  -56.1013 H         1 UNK         0.0600 
    235 H235       -2.3949  -23.2048  -52.0376 H         1 UNK         0.3000 
    236 H236       -2.9898  -24.8902  -50.7704 H         1 UNK         0.0600 
    237 H237       -4.0880  -26.1906  -53.3170 H         1 UNK         0.0600 
    238 H238       -2.4159  -26.2559  -52.7603 H         1 UNK         0.0600 
    239 H239       -3.6861  -27.0203  -51.8192 H         1 UNK         0.0600 
    240 H240       -4.5437  -22.9243  -50.2289 H         1 UNK         0.3000 
    241 H241       -7.3605  -23.3464  -50.4849 H         1 UNK         0.0600 
    242 H242       -6.4501  -25.5766  -47.2361 H         1 UNK         0.3800 
    243 H243       -5.1582  -24.9544  -48.2398 H         1 UNK         0.3800 
    244 H244       -7.4589  -21.5496  -48.6262 H         1 UNK         0.0800 
    245 H245       -5.7119  -21.5199  -48.6822 H         1 UNK         0.0800 
    246 H246       -7.9422  -18.5479  -50.6659 H         1 UNK         0.0800 
    247 H247       -8.1700  -19.3998  -49.1670 H         1 UNK         0.0800 
@<TRIPOS>BOND
     1    1    2 1    
     2    1  127 1    
     3    1  128 1    
     4    1  129 1    
     5    2    3 2    
     6    2    4 am   BACKBONE|DICT|INTERRES
     7    4    5 1    
     8    4  130 1    
     9    5    6 1    
    10    5   65 1    
    11    5  131 1    
    12    6    7 1    
    13    6  132 1    
    14    6  133 1    
    15    7    8 1    
    16    8    9 1    
    17    8  134 1    
    18    8  135 1    
    19    9   10 ar   
    20    9   14 ar   
    21   10   11 ar   
    22   10  136 1    
    23   11   12 ar   
    24   11  126 1    
    25   12   13 ar   
    26   12  137 1    
    27   13   14 ar   
    28   13   15 1    
    29   14  138 1    
    30   15   16 1    
    31   15  139 1    
    32   15  140 1    
    33   16   17 1    
    34   17   18 1    
    35   17  141 1    
    36   17  142 1    
    37   18   19 1    
    38   18   67 1    
    39   18  143 1    
    40   19   20 am   BACKBONE|DICT|INTERRES
    41   19  144 1    
    42   20   21 2    
    43   20   22 1    
    44   22   23 1    
    45   22   24 1    
    46   22  145 1    
    47   23  146 1    
    48   23  147 1    
    49   23  148 1    
    50   24   25 am   BACKBONE|DICT|INTERRES
    51   24  149 1    
    52   25   26 2    
    53   25   27 1    
    54   27   28 1    
    55   27   29 1    
    56   27  150 1    
    57   28  151 1    
    58   28  152 1    
    59   28  153 1    
    60   29   30 am   BACKBONE|DICT|INTERRES
    61   29  154 1    
    62   30   31 2    
    63   30   32 1    
    64   32   33 1    
    65   32   34 1    
    66   32  155 1    
    67   33  156 1    
    68   33  157 1    
    69   33  158 1    
    70   34   35 am   BACKBONE|DICT|INTERRES
    71   34  159 1    
    72   35   36 2    
    73   35   37 1    
    74   37   38 1    
    75   37   39 1    
    76   37  160 1    
    77   38  161 1    
    78   38  162 1    
    79   38  163 1    
    80   39   40 am   BACKBONE|DICT|INTERRES
    81   39  164 1    
    82   40   41 2    
    83   40   42 1    
    84   42   43 1    
    85   42   44 1    
    86   42  165 1    
    87   43  166 1    
    88   43  167 1    
    89   43  168 1    
    90   44   45 am   BACKBONE|DICT|INTERRES
    91   44  169 1    
    92   45   46 2    
    93   45   47 1    
    94   47   48 1    
    95   47   49 1    
    96   47  170 1    
    97   48  171 1    
    98   48  172 1    
    99   48  173 1    
   100   49   50 am   BACKBONE|DICT|INTERRES
   101   49  174 1    
   102   50   51 2    
   103   50   52 1    
   104   52   53 1    
   105   52   54 1    
   106   52  175 1    
   107   53  176 1    
   108   53  177 1    
   109   53  178 1    
   110   54   55 am   BACKBONE|DICT|INTERRES
   111   54  179 1    
   112   55   56 2    
   113   55   57 1    
   114   57   58 1    
   115   57   59 1    
   116   57  180 1    
   117   58  181 1    
   118   58  182 1    
   119   58  183 1    
   120   59   60 am   BACKBONE|DICT|INTERRES
   121   59  184 1    
   122   60   61 2    
   123   60   62 1    
   124   62   63 1    
   125   62   64 1    
   126   62  185 1    
   127   63  186 1    
   128   63  187 1    
   129   63  188 1    
   130   64   65 am   BACKBONE|DICT|INTERRES
   131   64  189 1    
   132   65   66 2    
   133   67   68 2    
   134   67   69 am   BACKBONE|DICT|INTERRES
   135   69   70 1    
   136   69  190 1    
   137   70   71 1    
   138   70   72 1    
   139   70  191 1    
   140   71  192 1    
   141   71  193 1    
   142   71  194 1    
   143   72   73 2    
   144   72   74 am   BACKBONE|DICT|INTERRES
   145   74   75 1    
   146   74  195 1    
   147   75   76 1    
   148   75   77 1    
   149   75  196 1    
   150   76  197 1    
   151   76  198 1    
   152   76  199 1    
   153   77   78 2    
   154   77   79 am   BACKBONE|DICT|INTERRES
   155   79   80 1    
   156   79  200 1    
   157   80   81 1    
   158   80   82 1    
   159   80  201 1    
   160   81  202 1    
   161   81  203 1    
   162   81  204 1    
   163   82   83 2    
   164   82   84 am   BACKBONE|DICT|INTERRES
   165   84   85 1    
   166   84  205 1    
   167   85   86 1    
   168   85   87 1    
   169   85  206 1    
   170   86  207 1    
   171   86  208 1    
   172   86  209 1    
   173   87   88 2    
   174   87   89 am   BACKBONE|DICT|INTERRES
   175   89   90 1    
   176   89  210 1    
   177   90   91 1    
   178   90   92 1    
   179   90  211 1    
   180   91  212 1    
   181   91  213 1    
   182   91  214 1    
   183   92   93 2    
   184   92   94 am   BACKBONE|DICT|INTERRES
   185   94   95 1    
   186   94  215 1    
   187   95   96 1    
   188   95   97 1    
   189   95  216 1    
   190   96  217 1    
   191   96  218 1    
   192   96  219 1    
   193   97   98 2    
   194   97   99 am   BACKBONE|DICT|INTERRES
   195   99  100 1    
   196   99  220 1    
   197  100  101 1    
   198  100  102 1    
   199  100  221 1    
   200  101  222 1    
   201  101  223 1    
   202  101  224 1    
   203  102  103 2    
   204  102  104 am   BACKBONE|DICT|INTERRES
   205  104  105 1    
   206  104  225 1    
   207  105  106 1    
   208  105  107 1    
   209  105  226 1    
   210  106  227 1    
   211  106  228 1    
   212  106  229 1    
   213  107  108 2    
   214  107  109 am   BACKBONE|DICT|INTERRES
   215  109  110 1    
   216  109  230 1    
   217  110  111 1    
   218  110  112 1    
   219  110  231 1    
   220  111  232 1    
   221  111  233 1    
   222  111  234 1    
   223  112  113 2    
   224  112  114 am   BACKBONE|DICT|INTERRES
   225  114  115 1    
   226  114  235 1    
   227  115  116 1    
   228  115  117 1    
   229  115  236 1    
   230  116  237 1    
   231  116  238 1    
   232  116  239 1    
   233  117  118 2    
   234  117  119 am   BACKBONE|DICT|INTERRES
   235  119  120 1    
   236  119  240 1    
   237  120  121 1    
   238  120  124 1    
   239  120  241 1    
   240  121  122 am   BACKBONE|DICT|INTERRES
   241  121  123 2    
   242  122  242 1    
   243  122  243 1    
   244  124  125 1    
   245  124  244 1    
   246  124  245 1    
   247  125  126 1    
   248  126  246 1    
   249  126  247 1    
@<TRIPOS>SUBSTRUCTURE
     1 UNK         1 GROUP             0       ****    0 ROOT    
