@<TRIPOS>MOLECULE
3R540
247   249    1
SMALL
USER_CHARGES


@<TRIPOS>ATOM
      1 CA         -0.0793  -16.5026  -50.6035 C.3       0 UNK        -0.1800 
      2 C           0.1641  -16.2369  -49.1257 C.2       0 UNK         0.5000 
      3 O           1.1406  -16.7382  -48.5712 O.2       0 UNK        -0.5000 
      4 N          -0.7025  -15.4303  -48.4957 N.am      1 UNK        -0.5000 
      5 CA         -0.5718  -14.9920  -47.0999 C.3       1 UNK         0.1400 
      6 C6         -1.8587  -14.3076  -46.5685 C.3       23 UNK        -0.0398 
      7 S7         -3.1194  -15.5063  -46.0224 S.3       23 UNK        -0.2404 
      8 C8         -4.4302  -15.3268  -47.2693 C.3       23 UNK        -0.0205 
      9 C9         -4.0780  -16.0324  -48.5679 C.ar      23 UNK        -0.0193 
     10 C10        -3.9276  -15.3037  -49.7504 C.ar      23 UNK        -0.1150 
     11 C11        -3.6211  -15.9547  -50.9483 C.ar      23 UNK        -0.0193 
     12 C12        -3.4642  -17.3442  -50.9569 C.ar      23 UNK        -0.1150 
     13 C13        -3.6051  -18.0825  -49.7775 C.ar      23 UNK        -0.0193 
     14 C14        -3.9186  -17.4214  -48.5881 C.ar      23 UNK        -0.1150 
     15 C15        -3.4339  -19.5930  -49.7938 C.3       23 UNK        -0.0205 
     16 S16        -1.6799  -20.0742  -49.8411 S.3       23 UNK        -0.2404 
     17 C17        -1.1964  -20.0121  -48.0792 C.3       23 UNK        -0.0398 
     18 CA         -0.9894  -21.4376  -47.5073 C.3       11 UNK         0.1400 
     19 N           0.0005  -21.4966  -46.4318 N.am      11 UNK        -0.5000 
     20 C           0.5289  -22.6450  -45.9853 C.2       10 UNK         0.5000 
     21 O           0.2486  -23.7484  -46.4540 O.2       10 UNK        -0.5000 
     22 CA          1.4976  -22.5610  -44.7933 C.3       10 UNK         0.1400 
     23 CB          2.8969  -22.1291  -45.2546 C.3       10 UNK        -0.1800 
     24 N           1.0210  -21.6717  -43.7336 N.am      10 UNK        -0.5000 
     25 C          -0.1145  -21.8603  -43.0456 C.2       9 UNK         0.5000 
     26 O          -0.8680  -22.8168  -43.2210 O.2       9 UNK        -0.5000 
     27 CA         -0.5027  -20.7789  -42.0234 C.3       9 UNK         0.1400 
     28 CB          0.3164  -20.9260  -40.7327 C.3       9 UNK        -0.1800 
     29 N          -0.3569  -19.4242  -42.5541 N.am      9 UNK        -0.5000 
     30 C          -1.0284  -18.9482  -43.6127 C.2       8 UNK         0.5000 
     31 O          -1.8697  -19.5909  -44.2410 O.2       8 UNK        -0.5000 
     32 CA         -0.6515  -17.5386  -44.0928 C.3       8 UNK         0.1400 
     33 CB         -1.2261  -16.4591  -43.1640 C.3       8 UNK        -0.1800 
     34 N           0.7928  -17.3558  -44.2265 N.am      8 UNK        -0.5000 
     35 C           1.5836  -18.0832  -45.0285 C.2       7 UNK         0.5000 
     36 O           1.1696  -18.9549  -45.7923 O.2       7 UNK        -0.5000 
     37 CA          3.0984  -17.8517  -44.8989 C.3       7 UNK         0.1400 
     38 CB          3.5525  -16.6265  -45.7025 C.3       7 UNK        -0.1800 
     39 N           3.5090  -17.7038  -43.5028 N.am      7 UNK        -0.5000 
     40 C           3.5027  -18.6997  -42.6060 C.2       6 UNK         0.5000 
     41 O           3.1754  -19.8566  -42.8687 O.2       6 UNK        -0.5000 
     42 CA          3.8932  -18.3295  -41.1644 C.3       6 UNK         0.1400 
     43 CB          5.4204  -18.2637  -41.0136 C.3       6 UNK        -0.1800 
     44 N           3.3056  -17.0605  -40.7334 N.am      6 UNK        -0.5000 
     45 C           1.9932  -16.8628  -40.5468 C.2       5 UNK         0.5000 
     46 O           1.1408  -17.7367  -40.7021 O.2       5 UNK        -0.5000 
     47 CA          1.5563  -15.4390  -40.1563 C.3       5 UNK         0.1400 
     48 CB          1.6416  -15.2471  -38.6348 C.3       5 UNK        -0.1800 
     49 N           2.3225  -14.3820  -40.8243 N.am      5 UNK        -0.5000 
     50 C           2.3560  -14.1911  -42.1497 C.2       4 UNK         0.5000 
     51 O           1.8049  -14.9389  -42.9579 O.2       4 UNK        -0.5000 
     52 CA          3.1625  -12.9879  -42.6532 C.3       4 UNK         0.1400 
     53 CB          4.5047  -13.4374  -43.2522 C.3       4 UNK        -0.1800 
     54 N           2.3918  -12.2754  -43.6698 N.am      4 UNK        -0.5000 
     55 C           2.2547  -10.9424  -43.7296 C.2       3 UNK         0.5000 
     56 O           2.7814  -10.1743  -42.9216 O.2       3 UNK        -0.5000 
     57 CA          1.3799  -10.3646  -44.8689 C.3       3 UNK         0.1400 
     58 CB          1.6816   -8.8811  -45.1701 C.3       3 UNK        -0.1800 
     59 N           1.4166  -11.1616  -46.0988 N.am      3 UNK        -0.5000 
     60 C           2.4883  -11.4653  -46.8463 C.2       2 UNK         0.5000 
     61 O           3.6051  -10.9769  -46.6666 O.2       2 UNK        -0.5000 
     62 CA          2.2836  -12.5011  -47.9796 C.3       2 UNK         0.1400 
     63 CB          3.5024  -13.4368  -48.1139 C.3       2 UNK        -0.1800 
     64 N           1.0547  -13.3104  -47.8976 N.am      2 UNK        -0.5000 
     65 C           0.6557  -14.0849  -46.8749 C.2       1 UNK         0.5000 
     66 O           1.2041  -14.0922  -45.7756 O.2       1 UNK        -0.5000 
     67 C          -2.3198  -22.0999  -47.0946 C.2       11 UNK         0.5000 
     68 O          -2.8516  -22.9102  -47.8523 O.2       11 UNK        -0.5000 
     69 N          -2.8216  -21.7680  -45.8977 N.am      12 UNK        -0.5000 
     70 CA         -4.0909  -22.2703  -45.3767 C.3       12 UNK         0.1400 
     71 CB         -4.4923  -21.4628  -44.1332 C.3       12 UNK        -0.1800 
     72 C          -4.0811  -23.7766  -45.0625 C.2       12 UNK         0.5000 
     73 O          -5.0232  -24.4708  -45.4444 O.2       12 UNK        -0.5000 
     74 N          -3.0457  -24.2504  -44.3565 N.am      13 UNK        -0.5000 
     75 CA         -2.9663  -25.6224  -43.8601 C.3       13 UNK         0.1400 
     76 CB         -2.2950  -25.6436  -42.4757 C.3       13 UNK        -0.1800 
     77 C          -2.2418  -26.5468  -44.8477 C.2       13 UNK         0.5000 
     78 O          -2.8572  -27.4828  -45.3579 O.2       13 UNK        -0.5000 
     79 N          -0.9474  -26.2908  -45.0851 N.am      14 UNK        -0.5000 
     80 CA         -0.0605  -27.1889  -45.8315 C.3       14 UNK         0.1400 
     81 CB          1.4089  -26.8116  -45.5840 C.3       14 UNK        -0.1800 
     82 C          -0.3821  -27.2494  -47.3342 C.2       14 UNK         0.5000 
     83 O          -0.4114  -28.3425  -47.9011 O.2       14 UNK        -0.5000 
     84 N          -0.6560  -26.0876  -47.9423 N.am      15 UNK        -0.5000 
     85 CA         -1.1035  -25.9805  -49.3351 C.3       15 UNK         0.1400 
     86 CB         -0.6047  -24.6588  -49.9389 C.3       15 UNK        -0.1800 
     87 C          -2.6336  -26.1152  -49.4818 C.2       15 UNK         0.5000 
     88 O          -3.1302  -26.0801  -50.6076 O.2       15 UNK        -0.5000 
     89 N          -3.3567  -26.2524  -48.3584 N.am      16 UNK        -0.5000 
     90 CA         -4.8065  -26.4645  -48.2437 C.3       16 UNK         0.1400 
     91 CB         -5.1718  -27.8749  -48.7511 C.3       16 UNK        -0.1800 
     92 C          -5.6633  -25.3607  -48.9059 C.2       16 UNK         0.5000 
     93 O          -6.7794  -25.6345  -49.3507 O.2       16 UNK        -0.5000 
     94 N          -5.1085  -24.1427  -48.9909 N.am      17 UNK        -0.5000 
     95 CA         -5.6207  -22.9561  -49.6809 C.3       17 UNK         0.1400 
     96 CB         -6.9242  -22.4552  -49.0275 C.3       17 UNK        -0.1800 
     97 C          -5.7426  -23.1105  -51.2135 C.2       17 UNK         0.5000 
     98 O          -6.3572  -22.2590  -51.8578 O.2       17 UNK        -0.5000 
     99 N          -5.1349  -24.1560  -51.7927 N.am      18 UNK        -0.5000 
    100 CA        -5.1874  -24.4840  -53.2182 C.3       18 UNK         0.1400 
    101 CB        -5.0913  -26.0118  -53.3820 C.3       18 UNK        -0.1800 
    102 C         -4.1120  -23.7262  -54.0237 C.2       18 UNK         0.5000 
    103 O         -3.3684  -24.3341  -54.7968 O.2       18 UNK        -0.5000 
    104 N         -4.0427  -22.4043  -53.8266 N.am      19 UNK        -0.5000 
    105 CA        -3.1906  -21.4938  -54.5880 C.3       19 UNK         0.1400 
    106 CB        -3.1000  -20.1524  -53.8430 C.3       19 UNK        -0.1800 
    107 C         -3.7472  -21.2866  -56.0077 C.2       19 UNK         0.5000 
    108 O         -4.9674  -21.2305  -56.1857 O.2       19 UNK        -0.5000 
    109 N         -2.8526  -21.1254  -56.9898 N.am      20 UNK        -0.5000 
    110 CA        -3.1746  -20.8759  -58.3994 C.3       20 UNK         0.1400 
    111 CB        -1.9953  -21.3565  -59.2654 C.3       20 UNK        -0.1800 
    112 C         -3.5420  -19.3960  -58.6536 C.2       20 UNK         0.5000 
    113 O         -2.9322  -18.7459  -59.5050 O.2       20 UNK        -0.5000 
    114 N         -4.5249  -18.9055  -57.8845 N.am      21 UNK        -0.5000 
    115 CA        -4.9966  -17.5240  -57.7377 C.3       21 UNK         0.1400 
    116 CB        -5.4447  -16.9257  -59.0861 C.3       21 UNK        -0.1800 
    117 C         -3.9783  -16.6102  -57.0244 C.2       21 UNK         0.5000 
    118 O         -2.7662  -16.8253  -57.0991 O.2       21 UNK        -0.5000 
    119 N         -4.5002  -15.5951  -56.3299 N.am      22 UNK        -0.5000 
    120 CA        -3.7036  -14.5589  -55.6580 C.3       22 UNK         0.1400 
    121 C         -3.1982  -13.4859  -56.6606 C.2       22 UNK         0.5000 
    122 N         -1.9860  -12.9761  -56.4773 N.am      22 UNK        -0.7600 
    123 O         -3.9106  -13.0811  -57.5792 O.2       22 UNK        -0.5000 
    124 C124       -4.4854  -13.8949  -54.4973 C.3       23 UNK        -0.0398 
    125 S125       -4.9711  -15.0818  -53.1978 S.3       23 UNK        -0.2404 
    126 C126       -3.4365  -15.1517  -52.2253 C.3       23 UNK        -0.0205 
    127 H127       -0.7478  -15.7609  -51.0386 H         1 UNK         0.0600 
    128 H128        0.8614  -16.4664  -51.1526 H         1 UNK         0.0600 
    129 H129       -0.5168  -17.4898  -50.7434 H         1 UNK         0.0600 
    130 H130       -1.5182  -15.0995  -48.9907 H         1 UNK         0.3000 
    131 H131       -0.3800  -15.8833  -46.5041 H         1 UNK         0.0600 
    132 H132       -1.6426  -13.6959  -45.6900 H         1 UNK         0.0800 
    133 H133       -2.2748  -13.6232  -47.3092 H         1 UNK         0.0800 
    134 H134       -4.6419  -14.2691  -47.4331 H         1 UNK         0.0800 
    135 H135       -5.3485  -15.7634  -46.8742 H         1 UNK         0.0800 
    136 H136       -4.0551  -14.2300  -49.7418 H         1 UNK         0.1150 
    137 H137       -3.2228  -17.8507  -51.8807 H         1 UNK         0.1150 
    138 H138       -4.0357  -17.9844  -47.6726 H         1 UNK         0.1150 
    139 H139       -3.9203  -20.0482  -48.9299 H         1 UNK         0.0800 
    140 H140       -3.9343  -19.9994  -50.6739 H         1 UNK         0.0800 
    141 H141       -1.9090  -19.4313  -47.4910 H         1 UNK         0.0800 
    142 H142       -0.2594  -19.4549  -48.0386 H         1 UNK         0.0800 
    143 H143       -0.5656  -22.0434  -48.3092 H         1 UNK         0.0600 
    144 H144        0.3049  -20.6134  -46.0284 H         1 UNK         0.3000 
    145 H145        1.5800  -23.5631  -44.3674 H         1 UNK         0.0600 
    146 H146        3.6095  -22.1579  -44.4303 H         1 UNK         0.0600 
    147 H147        3.2735  -22.7935  -46.0333 H         1 UNK         0.0600 
    148 H148        2.8937  -21.1170  -45.6590 H         1 UNK         0.0600 
    149 H149        1.6097  -20.8752  -43.5087 H         1 UNK         0.3000 
    150 H150       -1.5559  -20.9239  -41.7743 H         1 UNK         0.0600 
    151 H151        0.2178  -21.9304  -40.3191 H         1 UNK         0.0600 
    152 H152       -0.0234  -20.2254  -39.9698 H         1 UNK         0.0600 
    153 H153        1.3774  -20.7428  -40.9049 H         1 UNK         0.0600 
    154 H154        0.2986  -18.8161  -42.0710 H         1 UNK         0.3000 
    155 H155       -1.0955  -17.4186  -45.0803 H         1 UNK         0.0600 
    156 H156       -2.3100  -16.5503  -43.0847 H         1 UNK         0.0600 
    157 H157       -1.0093  -15.4600  -43.5430 H         1 UNK         0.0600 
    158 H158       -0.8160  -16.5302  -42.1574 H         1 UNK         0.0600 
    159 H159        1.2112  -16.6137  -43.6709 H         1 UNK         0.3000 
    160 H160        3.6032  -18.7274  -45.3118 H         1 UNK         0.0600 
    161 H161        3.1348  -15.7078  -45.2952 H         1 UNK         0.0600 
    162 H162        3.2332  -16.6991  -46.7427 H         1 UNK         0.0600 
    163 H163        4.6382  -16.5309  -45.6992 H         1 UNK         0.0600 
    164 H164        3.7329  -16.7708  -43.1914 H         1 UNK         0.3000 
    165 H165        3.5199  -19.1174  -40.5066 H         1 UNK         0.0600 
    166 H166        5.7064  -18.0819  -39.9775 H         1 UNK         0.0600 
    167 H167        5.8826  -19.2041  -41.3169 H         1 UNK         0.0600 
    168 H168        5.8542  -17.4721  -41.6258 H         1 UNK         0.0600 
    169 H169        3.9363  -16.2867  -40.5857 H         1 UNK         0.3000 
    170 H170        0.5116  -15.3253  -40.4527 H         1 UNK         0.0600 
    171 H171        1.0632  -16.0103  -38.1121 H         1 UNK         0.0600 
    172 H172        2.6698  -15.3119  -38.2767 H         1 UNK         0.0600 
    173 H173        1.2417  -14.2779  -38.3361 H         1 UNK         0.0600 
    174 H174        2.8115  -13.7348  -40.2228 H         1 UNK         0.3000 
    175 H175        3.3646  -12.3361  -41.8009 H         1 UNK         0.0600 
    176 H176        4.3634  -14.0619  -44.1341 H         1 UNK         0.0600 
    177 H177        5.1066  -12.5783  -43.5492 H         1 UNK         0.0600 
    178 H178        5.0873  -14.0099  -42.5295 H         1 UNK         0.0600 
    179 H179        1.9154  -12.8693  -44.3457 H         1 UNK         0.3000 
    180 H180        0.3523  -10.4199  -44.5074 H         1 UNK         0.0600 
    181 H181        2.7191   -8.7306  -45.4697 H         1 UNK         0.0600 
    182 H182        1.5022   -8.2587  -44.2928 H         1 UNK         0.0600 
    183 H183        1.0436   -8.5031  -45.9688 H         1 UNK         0.0600 
    184 H184        0.5562  -11.6343  -46.3328 H         1 UNK         0.3000 
    185 H185        2.2054  -11.9238  -48.9015 H         1 UNK         0.0600 
    186 H186        4.4086  -12.8765  -48.3462 H         1 UNK         0.0600 
    187 H187        3.6860  -13.9885  -47.1917 H         1 UNK         0.0600 
    188 H188        3.3577  -14.1628  -48.9140 H         1 UNK         0.0600 
    189 H189        0.5125  -13.3546  -48.7486 H         1 UNK         0.3000 
    190 H190       -2.3319  -21.0896  -45.3187 H         1 UNK         0.3000 
    191 H191       -4.8514  -22.1013  -46.1423 H         1 UNK         0.0600 
    192 H192       -3.7483  -21.5497  -43.3402 H         1 UNK         0.0600 
    193 H193       -5.4452  -21.8091  -43.7311 H         1 UNK         0.0600 
    194 H194       -4.6049  -20.4048  -44.3707 H         1 UNK         0.0600 
    195 H195       -2.2958  -23.6215  -44.0755 H         1 UNK         0.3000 
    196 H196       -3.9760  -26.0164  -43.7235 H         1 UNK         0.0600 
    197 H197       -2.2895  -26.6534  -42.0638 H         1 UNK         0.0600 
    198 H198       -2.8309  -25.0083  -41.7703 H         1 UNK         0.0600 
    199 H199       -1.2605  -25.3022  -42.5100 H         1 UNK         0.0600 
    200 H200       -0.5294  -25.4609  -44.6896 H         1 UNK         0.3000 
    201 H201       -0.2063  -28.1947  -45.4310 H         1 UNK         0.0600 
    202 H202        1.6422  -26.8080  -44.5193 H         1 UNK         0.0600 
    203 H203        1.6565  -25.8300  -45.9852 H         1 UNK         0.0600 
    204 H204        2.0766  -27.5313  -46.0593 H         1 UNK         0.0600 
    205 H205       -0.5555  -25.2234  -47.4145 H         1 UNK         0.3000 
    206 H206       -0.6550  -26.7892  -49.9156 H         1 UNK         0.0600 
    207 H207        0.4552  -24.5004  -49.7393 H         1 UNK         0.0600 
    208 H208       -0.7375  -24.6551  -51.0214 H         1 UNK         0.0600 
    209 H209       -1.1551  -23.8063  -49.5497 H         1 UNK         0.0600 
    210 H210       -2.8508  -26.2610  -47.4839 H         1 UNK         0.3000 
    211 H211       -5.0364  -26.4334  -47.1789 H         1 UNK         0.0600 
    212 H212       -5.0242  -27.9671  -49.8277 H         1 UNK         0.0600 
    213 H213       -6.2158  -28.1104  -48.5416 H         1 UNK         0.0600 
    214 H214       -4.5655  -28.6375  -48.2620 H         1 UNK         0.0600 
    215 H215       -4.1909  -24.0080  -48.5713 H         1 UNK         0.3000 
    216 H216       -4.8660  -22.1858  -49.5279 H         1 UNK         0.0600 
    217 H217       -7.2139  -21.4826  -49.4268 H         1 UNK         0.0600 
    218 H218       -6.8053  -22.3394  -47.9502 H         1 UNK         0.0600 
    219 H219       -7.7547  -23.1394  -49.2026 H         1 UNK         0.0600 
    220 H220       -4.5834  -24.7840  -51.2162 H         1 UNK         0.3000 
    221 H221       -6.1564  -24.1771  -53.6172 H         1 UNK         0.0600 
    222 H222       -4.1198  -26.3917  -53.0646 H         1 UNK         0.0600 
    223 H223       -5.8571  -26.5207  -52.7961 H         1 UNK         0.0600 
    224 H224       -5.2325  -26.3028  -54.4235 H         1 UNK         0.0600 
    225 H225       -4.7319  -21.9850  -53.2146 H         1 UNK         0.3000 
    226 H226       -2.1890  -21.9239  -54.6564 H         1 UNK         0.0600 
    227 H227       -2.6512  -20.2809  -52.8582 H         1 UNK         0.0600 
    228 H228       -2.4811  -19.4398  -54.3899 H         1 UNK         0.0600 
    229 H229       -4.0824  -19.6975  -53.7085 H         1 UNK         0.0600 
    230 H230       -1.8694  -21.1384  -56.7590 H         1 UNK         0.3000 
    231 H231       -4.0468  -21.4734  -58.6736 H         1 UNK         0.0600 
    232 H232       -1.7895  -22.4141  -59.0990 H         1 UNK         0.0600 
    233 H233       -1.0831  -20.7988  -59.0495 H         1 UNK         0.0600 
    234 H234       -2.2133  -21.2342  -60.3272 H         1 UNK         0.0600 
    235 H235       -4.9252  -19.5624  -57.2210 H         1 UNK         0.3000 
    236 H236       -5.8770  -17.5900  -57.0963 H         1 UNK         0.0600 
    237 H237       -5.9420  -15.9665  -58.9382 H         1 UNK         0.0600 
    238 H238       -4.6029  -16.7493  -59.7560 H         1 UNK         0.0600 
    239 H239       -6.1501  -17.5820  -59.5959 H         1 UNK         0.0600 
    240 H240       -5.5002  -15.4580  -56.3237 H         1 UNK         0.3000 
    241 H241       -2.8245  -15.0403  -55.2248 H         1 UNK         0.0600 
    242 H242       -1.6529  -12.2679  -57.1135 H         1 UNK         0.3800 
    243 H243       -1.3830  -13.2889  -55.7301 H         1 UNK         0.3800 
    244 H244       -3.8960  -13.0984  -54.0393 H         1 UNK         0.0800 
    245 H245       -5.3908  -13.4168  -54.8752 H         1 UNK         0.0800 
    246 H246       -3.1087  -14.1395  -51.9832 H         1 UNK         0.0800 
    247 H247       -2.6445  -15.5970  -52.8291 H         1 UNK         0.0800 
@<TRIPOS>BOND
     1    1    2 1    
     2    1  127 1    
     3    1  128 1    
     4    1  129 1    
     5    2    3 2    
     6    2    4 am   BACKBONE|DICT|INTERRES
     7    4    5 1    
     8    4  130 1    
     9    5    6 1    
    10    5   65 1    
    11    5  131 1    
    12    6    7 1    
    13    6  132 1    
    14    6  133 1    
    15    7    8 1    
    16    8    9 1    
    17    8  134 1    
    18    8  135 1    
    19    9   10 ar   
    20    9   14 ar   
    21   10   11 ar   
    22   10  136 1    
    23   11   12 ar   
    24   11  126 1    
    25   12   13 ar   
    26   12  137 1    
    27   13   14 ar   
    28   13   15 1    
    29   14  138 1    
    30   15   16 1    
    31   15  139 1    
    32   15  140 1    
    33   16   17 1    
    34   17   18 1    
    35   17  141 1    
    36   17  142 1    
    37   18   19 1    
    38   18   67 1    
    39   18  143 1    
    40   19   20 am   BACKBONE|DICT|INTERRES
    41   19  144 1    
    42   20   21 2    
    43   20   22 1    
    44   22   23 1    
    45   22   24 1    
    46   22  145 1    
    47   23  146 1    
    48   23  147 1    
    49   23  148 1    
    50   24   25 am   BACKBONE|DICT|INTERRES
    51   24  149 1    
    52   25   26 2    
    53   25   27 1    
    54   27   28 1    
    55   27   29 1    
    56   27  150 1    
    57   28  151 1    
    58   28  152 1    
    59   28  153 1    
    60   29   30 am   BACKBONE|DICT|INTERRES
    61   29  154 1    
    62   30   31 2    
    63   30   32 1    
    64   32   33 1    
    65   32   34 1    
    66   32  155 1    
    67   33  156 1    
    68   33  157 1    
    69   33  158 1    
    70   34   35 am   BACKBONE|DICT|INTERRES
    71   34  159 1    
    72   35   36 2    
    73   35   37 1    
    74   37   38 1    
    75   37   39 1    
    76   37  160 1    
    77   38  161 1    
    78   38  162 1    
    79   38  163 1    
    80   39   40 am   BACKBONE|DICT|INTERRES
    81   39  164 1    
    82   40   41 2    
    83   40   42 1    
    84   42   43 1    
    85   42   44 1    
    86   42  165 1    
    87   43  166 1    
    88   43  167 1    
    89   43  168 1    
    90   44   45 am   BACKBONE|DICT|INTERRES
    91   44  169 1    
    92   45   46 2    
    93   45   47 1    
    94   47   48 1    
    95   47   49 1    
    96   47  170 1    
    97   48  171 1    
    98   48  172 1    
    99   48  173 1    
   100   49   50 am   BACKBONE|DICT|INTERRES
   101   49  174 1    
   102   50   51 2    
   103   50   52 1    
   104   52   53 1    
   105   52   54 1    
   106   52  175 1    
   107   53  176 1    
   108   53  177 1    
   109   53  178 1    
   110   54   55 am   BACKBONE|DICT|INTERRES
   111   54  179 1    
   112   55   56 2    
   113   55   57 1    
   114   57   58 1    
   115   57   59 1    
   116   57  180 1    
   117   58  181 1    
   118   58  182 1    
   119   58  183 1    
   120   59   60 am   BACKBONE|DICT|INTERRES
   121   59  184 1    
   122   60   61 2    
   123   60   62 1    
   124   62   63 1    
   125   62   64 1    
   126   62  185 1    
   127   63  186 1    
   128   63  187 1    
   129   63  188 1    
   130   64   65 am   BACKBONE|DICT|INTERRES
   131   64  189 1    
   132   65   66 2    
   133   67   68 2    
   134   67   69 am   BACKBONE|DICT|INTERRES
   135   69   70 1    
   136   69  190 1    
   137   70   71 1    
   138   70   72 1    
   139   70  191 1    
   140   71  192 1    
   141   71  193 1    
   142   71  194 1    
   143   72   73 2    
   144   72   74 am   BACKBONE|DICT|INTERRES
   145   74   75 1    
   146   74  195 1    
   147   75   76 1    
   148   75   77 1    
   149   75  196 1    
   150   76  197 1    
   151   76  198 1    
   152   76  199 1    
   153   77   78 2    
   154   77   79 am   BACKBONE|DICT|INTERRES
   155   79   80 1    
   156   79  200 1    
   157   80   81 1    
   158   80   82 1    
   159   80  201 1    
   160   81  202 1    
   161   81  203 1    
   162   81  204 1    
   163   82   83 2    
   164   82   84 am   BACKBONE|DICT|INTERRES
   165   84   85 1    
   166   84  205 1    
   167   85   86 1    
   168   85   87 1    
   169   85  206 1    
   170   86  207 1    
   171   86  208 1    
   172   86  209 1    
   173   87   88 2    
   174   87   89 am   BACKBONE|DICT|INTERRES
   175   89   90 1    
   176   89  210 1    
   177   90   91 1    
   178   90   92 1    
   179   90  211 1    
   180   91  212 1    
   181   91  213 1    
   182   91  214 1    
   183   92   93 2    
   184   92   94 am   BACKBONE|DICT|INTERRES
   185   94   95 1    
   186   94  215 1    
   187   95   96 1    
   188   95   97 1    
   189   95  216 1    
   190   96  217 1    
   191   96  218 1    
   192   96  219 1    
   193   97   98 2    
   194   97   99 am   BACKBONE|DICT|INTERRES
   195   99  100 1    
   196   99  220 1    
   197  100  101 1    
   198  100  102 1    
   199  100  221 1    
   200  101  222 1    
   201  101  223 1    
   202  101  224 1    
   203  102  103 2    
   204  102  104 am   BACKBONE|DICT|INTERRES
   205  104  105 1    
   206  104  225 1    
   207  105  106 1    
   208  105  107 1    
   209  105  226 1    
   210  106  227 1    
   211  106  228 1    
   212  106  229 1    
   213  107  108 2    
   214  107  109 am   BACKBONE|DICT|INTERRES
   215  109  110 1    
   216  109  230 1    
   217  110  111 1    
   218  110  112 1    
   219  110  231 1    
   220  111  232 1    
   221  111  233 1    
   222  111  234 1    
   223  112  113 2    
   224  112  114 am   BACKBONE|DICT|INTERRES
   225  114  115 1    
   226  114  235 1    
   227  115  116 1    
   228  115  117 1    
   229  115  236 1    
   230  116  237 1    
   231  116  238 1    
   232  116  239 1    
   233  117  118 2    
   234  117  119 am   BACKBONE|DICT|INTERRES
   235  119  120 1    
   236  119  240 1    
   237  120  121 1    
   238  120  124 1    
   239  120  241 1    
   240  121  122 am   BACKBONE|DICT|INTERRES
   241  121  123 2    
   242  122  242 1    
   243  122  243 1    
   244  124  125 1    
   245  124  244 1    
   246  124  245 1    
   247  125  126 1    
   248  126  246 1    
   249  126  247 1    
@<TRIPOS>SUBSTRUCTURE
     1 UNK         1 GROUP             0       ****    0 ROOT    
