@<TRIPOS>MOLECULE
3R540
247   249    1
SMALL
USER_CHARGES


@<TRIPOS>ATOM
      1 CA         -3.4430   -9.6641  -44.6093 C.3       0 UNK        -0.1800 
      2 C          -2.5151  -10.8074  -44.9920 C.2       0 UNK         0.5000 
      3 O          -1.2995  -10.6226  -45.0342 O.2       0 UNK        -0.5000 
      4 N          -3.0777  -11.9952  -45.2520 N.am      1 UNK        -0.5000 
      5 CA         -2.3610  -13.2048  -45.6898 C.3       1 UNK         0.1400 
      6 C6         -3.3294  -14.3429  -46.0987 C.3       23 UNK        -0.0398 
      7 S7         -4.5270  -13.7981  -47.3652 S.3       23 UNK        -0.2404 
      8 C8         -5.3261  -15.3695  -47.8347 C.3       23 UNK        -0.0205 
      9 C9         -4.4180  -16.3199  -48.6095 C.ar      23 UNK        -0.0193 
     10 C10        -3.5859  -15.8506  -49.6312 C.ar      23 UNK        -0.1150 
     11 C11        -2.7545  -16.7274  -50.3293 C.ar      23 UNK        -0.0193 
     12 C12        -2.7823  -18.0895  -50.0226 C.ar      23 UNK        -0.1150 
     13 C13        -3.6254  -18.5859  -49.0233 C.ar      23 UNK        -0.0193 
     14 C14        -4.4351  -17.6870  -48.3156 C.ar      23 UNK        -0.1150 
     15 C15        -3.5969  -20.0900  -48.7434 C.3       23 UNK        -0.0205 
     16 S16        -4.9270  -20.7492  -47.6808 S.3       23 UNK        -0.2404 
     17 C17        -4.2128  -20.5211  -46.0180 C.3       23 UNK        -0.0398 
     18 CA         -3.2099  -21.6307  -45.6128 C.3       11 UNK         0.1400 
     19 N          -2.3686  -21.2009  -44.4874 N.am      11 UNK        -0.5000 
     20 C          -1.3232  -21.8827  -43.9979 C.2       10 UNK         0.5000 
     21 O          -0.9732  -22.9829  -44.4282 O.2       10 UNK        -0.5000 
     22 CA         -0.5656  -21.2259  -42.8296 C.3       10 UNK         0.1400 
     23 CB          0.6476  -22.0507  -42.3652 C.3       10 UNK        -0.1800 
     24 N          -0.1123  -19.8943  -43.2199 N.am      10 UNK        -0.5000 
     25 C          -0.7170  -18.7449  -42.8969 C.2       9 UNK         0.5000 
     26 O          -1.7264  -18.6761  -42.1953 O.2       9 UNK        -0.5000 
     27 CA         -0.1222  -17.4623  -43.5029 C.3       9 UNK         0.1400 
     28 CB          1.1724  -17.0521  -42.7846 C.3       9 UNK        -0.1800 
     29 N           0.1405  -17.6040  -44.9315 N.am      9 UNK        -0.5000 
     30 C          -0.8067  -17.7346  -45.8692 C.2       8 UNK         0.5000 
     31 O          -2.0130  -17.6983  -45.6305 O.2       8 UNK        -0.5000 
     32 CA         -0.3224  -17.9738  -47.3074 C.3       8 UNK         0.1400 
     33 CB         -0.0068  -16.6471  -48.0143 C.3       8 UNK        -0.1800 
     34 N           0.8542  -18.8416  -47.3321 N.am      8 UNK        -0.5000 
     35 C           0.7994  -20.1809  -47.3023 C.2       7 UNK         0.5000 
     36 O          -0.2494  -20.8194  -47.3568 O.2       7 UNK        -0.5000 
     37 CA          2.1330  -20.9463  -47.1934 C.3       7 UNK         0.1400 
     38 CB          2.5758  -21.4513  -48.5744 C.3       7 UNK        -0.1800 
     39 N           3.2153  -20.1543  -46.6053 N.am      7 UNK        -0.5000 
     40 C           3.2862  -19.8145  -45.3110 C.2       6 UNK         0.5000 
     41 O           2.4507  -20.1456  -44.4718 O.2       6 UNK        -0.5000 
     42 CA          4.4527  -18.8950  -44.8996 C.3       6 UNK         0.1400 
     43 CB          5.7131  -19.7211  -44.6034 C.3       6 UNK        -0.1800 
     44 N           4.7681  -17.8602  -45.8916 N.am      6 UNK        -0.5000 
     45 C           3.8974  -16.9453  -46.3377 C.2       5 UNK         0.5000 
     46 O           2.7131  -16.9185  -45.9993 O.2       5 UNK        -0.5000 
     47 CA          4.4196  -15.9424  -47.3837 C.3       5 UNK         0.1400 
     48 CB          4.3941  -16.5826  -48.7809 C.3       5 UNK        -0.1800 
     49 N           3.6288  -14.7103  -47.4253 N.am      5 UNK        -0.5000 
     50 C           3.5205  -13.8243  -46.4261 C.2       4 UNK         0.5000 
     51 O           4.1505  -13.9199  -45.3694 O.2       4 UNK        -0.5000 
     52 CA          2.5828  -12.6189  -46.6636 C.3       4 UNK         0.1400 
     53 CB          1.4298  -12.9128  -47.6449 C.3       4 UNK        -0.1800 
     54 N           2.0149  -12.1455  -45.4027 N.am      4 UNK        -0.5000 
     55 C           2.5654  -11.2155  -44.6095 C.2       3 UNK         0.5000 
     56 O           3.5997  -10.6080  -44.8930 O.2       3 UNK        -0.5000 
     57 CA          1.8481  -10.8869  -43.2838 C.3       3 UNK         0.1400 
     58 CB          1.4100   -9.4128  -43.2484 C.3       3 UNK        -0.1800 
     59 N           0.6733  -11.7302  -43.0559 N.am      3 UNK        -0.5000 
     60 C           0.6723  -12.8612  -42.3361 C.2       2 UNK         0.5000 
     61 O           1.6633  -13.2968  -41.7499 O.2       2 UNK        -0.5000 
     62 CA         -0.6530  -13.6475  -42.2510 C.3       2 UNK         0.1400 
     63 CB         -1.3796  -13.3335  -40.9348 C.3       2 UNK        -0.1800 
     64 N          -1.5690  -13.3995  -43.3663 N.am      2 UNK        -0.5000 
     65 C          -1.3306  -13.7019  -44.6511 C.2       1 UNK         0.5000 
     66 O          -0.3182  -14.2866  -45.0309 O.2       1 UNK        -0.5000 
     67 C          -3.9018  -22.9926  -45.3683 C.2       11 UNK         0.5000 
     68 O          -4.0625  -23.7725  -46.3084 O.2       11 UNK        -0.5000 
     69 N          -4.2424  -23.2806  -44.1031 N.am      12 UNK        -0.5000 
     70 CA         -4.7916  -24.5634  -43.6625 C.3       12 UNK         0.1400 
     71 CB         -5.3049  -24.4274  -42.2214 C.3       12 UNK        -0.1800 
     72 C          -3.7793  -25.7204  -43.7707 C.2       12 UNK         0.5000 
     73 O          -4.1649  -26.8236  -44.1569 O.2       12 UNK        -0.5000 
     74 N          -2.5006  -25.4475  -43.4691 N.am      13 UNK        -0.5000 
     75 CA         -1.3986  -26.4069  -43.5998 C.3       13 UNK         0.1400 
     76 CB         -0.1845  -25.9206  -42.7949 C.3       13 UNK        -0.1800 
     77 C          -1.0178  -26.6440  -45.0722 C.2       13 UNK         0.5000 
     78 O          -0.6601  -27.7637  -45.4379 O.2       13 UNK        -0.5000 
     79 N          -1.1596  -25.5984  -45.8987 N.am      14 UNK        -0.5000 
     80 CA         -1.0442  -25.6503  -47.3577 C.3       14 UNK         0.1400 
     81 CB         -0.8052  -24.2260  -47.8866 C.3       14 UNK        -0.1800 
     82 C          -2.2704  -26.2900  -48.0478 C.2       14 UNK         0.5000 
     83 O          -2.2713  -26.4054  -49.2736 O.2       14 UNK        -0.5000 
     84 N          -3.3025  -26.6600  -47.2712 N.am      15 UNK        -0.5000 
     85 CA         -4.5677  -27.2790  -47.6859 C.3       15 UNK         0.1400 
     86 CB         -4.3195  -28.7204  -48.1757 C.3       15 UNK        -0.1800 
     87 C          -5.3591  -26.4312  -48.7050 C.2       15 UNK         0.5000 
     88 O          -6.0603  -26.9824  -49.5549 O.2       15 UNK        -0.5000 
     89 N          -5.1962  -25.1028  -48.6176 N.am      16 UNK        -0.5000 
     90 CA         -5.7100  -24.0687  -49.5193 C.3       16 UNK         0.1400 
     91 CB         -7.2493  -24.0029  -49.4642 C.3       16 UNK        -0.1800 
     92 C          -5.1750  -24.1398  -50.9674 C.2       16 UNK         0.5000 
     93 O          -5.6740  -23.4091  -51.8235 O.2       16 UNK        -0.5000 
     94 N          -4.1559  -24.9723  -51.2329 N.am      17 UNK        -0.5000 
     95 CA         -3.5652  -25.1451  -52.5631 C.3       17 UNK         0.1400 
     96 CB         -2.7014  -26.4145  -52.5812 C.3       17 UNK        -0.1800 
     97 C          -2.7420  -23.9235  -53.0065 C.2       17 UNK         0.5000 
     98 O          -2.6972  -23.6174  -54.1981 O.2       17 UNK        -0.5000 
     99 N          -2.1344  -23.2269  -52.0352 N.am      18 UNK        -0.5000 
    100 CA        -1.3400  -22.0159  -52.2459 C.3       18 UNK         0.1400 
    101 CB        -0.6209  -21.6495  -50.9386 C.3       18 UNK        -0.1800 
    102 C         -2.1634  -20.8227  -52.7644 C.2       18 UNK         0.5000 
    103 O         -1.6110  -19.9765  -53.4665 O.2       18 UNK        -0.5000 
    104 N         -3.4661  -20.7896  -52.4420 N.am      19 UNK        -0.5000 
    105 CA        -4.4049  -19.7286  -52.8228 C.3       19 UNK         0.1400 
    106 CB        -5.7218  -19.9120  -52.0523 C.3       19 UNK        -0.1800 
    107 C         -4.6759  -19.6511  -54.3372 C.2       19 UNK         0.5000 
    108 O         -5.1142  -18.6082  -54.8229 O.2       19 UNK        -0.5000 
    109 N         -4.4034  -20.7460  -55.0593 N.am      20 UNK        -0.5000 
    110 CA        -4.5077  -20.8278  -56.5145 C.3       20 UNK         0.1400 
    111 CB        -4.6123  -22.3077  -56.9157 C.3       20 UNK        -0.1800 
    112 C         -3.3310  -20.1513  -57.2479 C.2       20 UNK         0.5000 
    113 O         -3.4318  -19.9422  -58.4579 O.2       20 UNK        -0.5000 
    114 N         -2.2417  -19.8430  -56.5295 N.am      21 UNK        -0.5000 
    115 CA        -1.0141  -19.2769  -57.0825 C.3       21 UNK         0.1400 
    116 CB         0.1298  -20.2925  -56.9150 C.3       21 UNK        -0.1800 
    117 C         -0.6700  -17.9356  -56.4196 C.2       21 UNK         0.5000 
    118 O         -0.5796  -16.9241  -57.1174 O.2       21 UNK        -0.5000 
    119 N         -0.4746  -17.9543  -55.0943 N.am      22 UNK        -0.5000 
    120 CA         0.0422  -16.8462  -54.2727 C.3       22 UNK         0.1400 
    121 C          1.4353  -16.3130  -54.7446 C.2       22 UNK         0.5000 
    122 N          1.8021  -15.0716  -54.4506 N.am      22 UNK        -0.7600 
    123 O          2.2309  -17.0441  -55.3315 O.2       22 UNK        -0.5000 
    124 C124       -1.0256  -15.7421  -54.0193 C.3       23 UNK        -0.0398 
    125 S125       -2.4506  -16.3660  -53.0661 S.3       23 UNK        -0.2404 
    126 C126       -1.7915  -16.1976  -51.3787 C.3       23 UNK        -0.0205 
    127 H127       -3.1891   -9.2919  -43.6168 H         1 UNK         0.0600 
    128 H128       -4.4878   -9.9754  -44.6002 H         1 UNK         0.0600 
    129 H129       -3.3381   -8.8438  -45.3194 H         1 UNK         0.0600 
    130 H130       -4.0838  -12.0815  -45.2153 H         1 UNK         0.3000 
    131 H131       -1.7891  -12.9260  -46.5777 H         1 UNK         0.0600 
    132 H132       -2.7688  -15.1903  -46.4970 H         1 UNK         0.0800 
    133 H133       -3.8811  -14.7151  -45.2337 H         1 UNK         0.0800 
    134 H134       -6.1943  -15.1454  -48.4553 H         1 UNK         0.0800 
    135 H135       -5.7079  -15.8489  -46.9319 H         1 UNK         0.0800 
    136 H136       -3.5708  -14.7973  -49.8724 H         1 UNK         0.1150 
    137 H137       -2.1342  -18.7655  -50.5621 H         1 UNK         0.1150 
    138 H138       -5.0856  -18.0408  -47.5301 H         1 UNK         0.1150 
    139 H139       -2.6301  -20.3487  -48.3146 H         1 UNK         0.0800 
    140 H140       -3.6544  -20.6214  -49.6919 H         1 UNK         0.0800 
    141 H141       -5.0259  -20.4500  -45.2938 H         1 UNK         0.0800 
    142 H142       -3.7214  -19.5494  -46.0062 H         1 UNK         0.0800 
    143 H143       -2.5268  -21.7834  -46.4483 H         1 UNK         0.0600 
    144 H144       -2.5772  -20.2967  -44.0870 H         1 UNK         0.3000 
    145 H145       -1.2584  -21.1596  -41.9885 H         1 UNK         0.0600 
    146 H146        1.2041  -21.5293  -41.5864 H         1 UNK         0.0600 
    147 H147        0.3302  -23.0066  -41.9488 H         1 UNK         0.0600 
    148 H148        1.3361  -22.2583  -43.1852 H         1 UNK         0.0600 
    149 H149        0.7228  -19.8681  -43.8013 H         1 UNK         0.3000 
    150 H150       -0.8565  -16.6651  -43.3779 H         1 UNK         0.0600 
    151 H151        1.9472  -17.8127  -42.8828 H         1 UNK         0.0600 
    152 H152        0.9965  -16.8958  -41.7198 H         1 UNK         0.0600 
    153 H153        1.5678  -16.1203  -43.1911 H         1 UNK         0.0600 
    154 H154        1.1105  -17.5484  -45.2286 H         1 UNK         0.3000 
    155 H155       -1.1308  -18.4597  -47.8508 H         1 UNK         0.0600 
    156 H156        0.7831  -16.0967  -47.5060 H         1 UNK         0.0600 
    157 H157       -0.8863  -16.0030  -48.0413 H         1 UNK         0.0600 
    158 H158        0.3091  -16.8141  -49.0436 H         1 UNK         0.0600 
    159 H159        1.7484  -18.3848  -47.2130 H         1 UNK         0.3000 
    160 H160        1.9580  -21.8144  -46.5537 H         1 UNK         0.0600 
    161 H161        2.7448  -20.6285  -49.2703 H         1 UNK         0.0600 
    162 H162        1.8169  -22.1016  -49.0102 H         1 UNK         0.0600 
    163 H163        3.4963  -22.0314  -48.5070 H         1 UNK         0.0600 
    164 H164        3.9393  -19.8323  -47.2304 H         1 UNK         0.3000 
    165 H165        4.1571  -18.3861  -43.9799 H         1 UNK         0.0600 
    166 H166        6.5142  -19.0928  -44.2136 H         1 UNK         0.0600 
    167 H167        6.0847  -20.2248  -45.4966 H         1 UNK         0.0600 
    168 H168        5.5101  -20.4878  -43.8543 H         1 UNK         0.0600 
    169 H169        5.7206  -17.8353  -46.2266 H         1 UNK         0.3000 
    170 H170        5.4484  -15.6789  -47.1300 H         1 UNK         0.0600 
    171 H171        5.0028  -17.4872  -48.8124 H         1 UNK         0.0600 
    172 H172        3.3812  -16.8584  -49.0789 H         1 UNK         0.0600 
    173 H173        4.7914  -15.9021  -49.5343 H         1 UNK         0.0600 
    174 H174        3.0662  -14.5709  -48.2507 H         1 UNK         0.3000 
    175 H175        3.1920  -11.8278  -47.1051 H         1 UNK         0.0600 
    176 H176        0.8361  -13.7687  -47.3276 H         1 UNK         0.0600 
    177 H177        0.7570  -12.0583  -47.7234 H         1 UNK         0.0600 
    178 H178        1.7994  -13.1161  -48.6502 H         1 UNK         0.0600 
    179 H179        1.2016  -12.6467  -45.0692 H         1 UNK         0.3000 
    180 H180        2.5728  -11.0367  -42.4810 H         1 UNK         0.0600 
    181 H181        0.7301   -9.1734  -44.0663 H         1 UNK         0.0600 
    182 H182        2.2697   -8.7470  -43.3334 H         1 UNK         0.0600 
    183 H183        0.9067   -9.1728  -42.3118 H         1 UNK         0.0600 
    184 H184       -0.1692  -11.4504  -43.5477 H         1 UNK         0.3000 
    185 H185       -0.3999  -14.7070  -42.2508 H         1 UNK         0.0600 
    186 H186       -2.2731  -13.9476  -40.8205 H         1 UNK         0.0600 
    187 H187       -0.7376  -13.5343  -40.0760 H         1 UNK         0.0600 
    188 H188       -1.6808  -12.2865  -40.8818 H         1 UNK         0.0600 
    189 H189       -2.4173  -12.8973  -43.1485 H         1 UNK         0.3000 
    190 H190       -4.0746  -22.5877  -43.3888 H         1 UNK         0.3000 
    191 H191       -5.6410  -24.8055  -44.3052 H         1 UNK         0.0600 
    192 H192       -5.7400  -25.3648  -41.8722 H         1 UNK         0.0600 
    193 H193       -6.0804  -23.6645  -42.1494 H         1 UNK         0.0600 
    194 H194       -4.5044  -24.1597  -41.5306 H         1 UNK         0.0600 
    195 H195       -2.2449  -24.4996  -43.2317 H         1 UNK         0.3000 
    196 H196       -1.7230  -27.3607  -43.1781 H         1 UNK         0.0600 
    197 H197        0.2492  -25.0176  -43.2240 H         1 UNK         0.0600 
    198 H198       -0.4513  -25.7103  -41.7591 H         1 UNK         0.0600 
    199 H199        0.5985  -26.6796  -42.7819 H         1 UNK         0.0600 
    200 H200       -1.3890  -24.6969  -45.4935 H         1 UNK         0.3000 
    201 H201       -0.1742  -26.2580  -47.6136 H         1 UNK         0.0600 
    202 H202       -1.6737  -23.5867  -47.7306 H         1 UNK         0.0600 
    203 H203       -0.5959  -24.2363  -48.9566 H         1 UNK         0.0600 
    204 H204        0.0468  -23.7561  -47.3947 H         1 UNK         0.0600 
    205 H205       -3.2209  -26.4840  -46.2792 H         1 UNK         0.3000 
    206 H206       -5.1888  -27.3340  -46.7910 H         1 UNK         0.0600 
    207 H207       -3.7677  -29.2981  -47.4341 H         1 UNK         0.0600 
    208 H208       -5.2602  -29.2417  -48.3562 H         1 UNK         0.0600 
    209 H209       -3.7508  -28.7384  -49.1061 H         1 UNK         0.0600 
    210 H210       -4.6286  -24.7510  -47.8491 H         1 UNK         0.3000 
    211 H211       -5.3303  -23.1296  -49.1232 H         1 UNK         0.0600 
    212 H212       -7.6239  -23.1342  -50.0068 H         1 UNK         0.0600 
    213 H213       -7.6023  -23.9166  -48.4365 H         1 UNK         0.0600 
    214 H214       -7.7098  -24.8867  -49.9062 H         1 UNK         0.0600 
    215 H215       -3.7626  -25.5328  -50.4845 H         1 UNK         0.3000 
    216 H216       -4.3769  -25.2782  -53.2815 H         1 UNK         0.0600 
    217 H217       -1.8392  -26.3258  -51.9195 H         1 UNK         0.0600 
    218 H218       -2.3234  -26.6130  -53.5849 H         1 UNK         0.0600 
    219 H219       -3.2749  -27.2878  -52.2698 H         1 UNK         0.0600 
    220 H220       -2.2216  -23.5600  -51.0866 H         1 UNK         0.3000 
    221 H221       -0.5824  -22.2380  -53.0005 H         1 UNK         0.0600 
    222 H222        0.0647  -22.4409  -50.6377 H         1 UNK         0.0600 
    223 H223       -1.3210  -21.4864  -50.1195 H         1 UNK         0.0600 
    224 H224       -0.0319  -20.7383  -51.0533 H         1 UNK         0.0600 
    225 H225       -3.8541  -21.5643  -51.9238 H         1 UNK         0.3000 
    226 H226       -3.9703  -18.7752  -52.5231 H         1 UNK         0.0600 
    227 H227       -6.2187  -20.8444  -52.3205 H         1 UNK         0.0600 
    228 H228       -5.5612  -19.9129  -50.9750 H         1 UNK         0.0600 
    229 H229       -6.4151  -19.0989  -52.2709 H         1 UNK         0.0600 
    230 H230       -4.0404  -21.5624  -54.5854 H         1 UNK         0.3000 
    231 H231       -5.4246  -20.3250  -56.8292 H         1 UNK         0.0600 
    232 H232       -3.7100  -22.8603  -56.6513 H         1 UNK         0.0600 
    233 H233       -4.7567  -22.4123  -57.9918 H         1 UNK         0.0600 
    234 H234       -5.4580  -22.7917  -56.4267 H         1 UNK         0.0600 
    235 H235       -2.2562  -19.9963  -55.5285 H         1 UNK         0.3000 
    236 H236       -1.1249  -19.0818  -58.1512 H         1 UNK         0.0600 
    237 H237       -0.0663  -21.1993  -57.4873 H         1 UNK         0.0600 
    238 H238        1.0745  -19.8800  -57.2718 H         1 UNK         0.0600 
    239 H239        0.2690  -20.5816  -55.8725 H         1 UNK         0.0600 
    240 H240       -0.6529  -18.8140  -54.5833 H         1 UNK         0.3000 
    241 H241        0.2673  -17.3056  -53.3105 H         1 UNK         0.0600 
    242 H242        2.7134  -14.7554  -54.7446 H         1 UNK         0.3800 
    243 H243        1.2006  -14.4369  -53.9512 H         1 UNK         0.3800 
    244 H244       -1.3862  -15.3365  -54.9655 H         1 UNK         0.0800 
    245 H245       -0.6127  -14.8977  -53.4676 H         1 UNK         0.0800 
    246 H246       -1.5631  -15.1489  -51.1817 H         1 UNK         0.0800 
    247 H247       -0.8468  -16.7364  -51.3004 H         1 UNK         0.0800 
@<TRIPOS>BOND
     1    1    2 1    
     2    1  127 1    
     3    1  128 1    
     4    1  129 1    
     5    2    3 2    
     6    2    4 am   BACKBONE|DICT|INTERRES
     7    4    5 1    
     8    4  130 1    
     9    5    6 1    
    10    5   65 1    
    11    5  131 1    
    12    6    7 1    
    13    6  132 1    
    14    6  133 1    
    15    7    8 1    
    16    8    9 1    
    17    8  134 1    
    18    8  135 1    
    19    9   10 ar   
    20    9   14 ar   
    21   10   11 ar   
    22   10  136 1    
    23   11   12 ar   
    24   11  126 1    
    25   12   13 ar   
    26   12  137 1    
    27   13   14 ar   
    28   13   15 1    
    29   14  138 1    
    30   15   16 1    
    31   15  139 1    
    32   15  140 1    
    33   16   17 1    
    34   17   18 1    
    35   17  141 1    
    36   17  142 1    
    37   18   19 1    
    38   18   67 1    
    39   18  143 1    
    40   19   20 am   BACKBONE|DICT|INTERRES
    41   19  144 1    
    42   20   21 2    
    43   20   22 1    
    44   22   23 1    
    45   22   24 1    
    46   22  145 1    
    47   23  146 1    
    48   23  147 1    
    49   23  148 1    
    50   24   25 am   BACKBONE|DICT|INTERRES
    51   24  149 1    
    52   25   26 2    
    53   25   27 1    
    54   27   28 1    
    55   27   29 1    
    56   27  150 1    
    57   28  151 1    
    58   28  152 1    
    59   28  153 1    
    60   29   30 am   BACKBONE|DICT|INTERRES
    61   29  154 1    
    62   30   31 2    
    63   30   32 1    
    64   32   33 1    
    65   32   34 1    
    66   32  155 1    
    67   33  156 1    
    68   33  157 1    
    69   33  158 1    
    70   34   35 am   BACKBONE|DICT|INTERRES
    71   34  159 1    
    72   35   36 2    
    73   35   37 1    
    74   37   38 1    
    75   37   39 1    
    76   37  160 1    
    77   38  161 1    
    78   38  162 1    
    79   38  163 1    
    80   39   40 am   BACKBONE|DICT|INTERRES
    81   39  164 1    
    82   40   41 2    
    83   40   42 1    
    84   42   43 1    
    85   42   44 1    
    86   42  165 1    
    87   43  166 1    
    88   43  167 1    
    89   43  168 1    
    90   44   45 am   BACKBONE|DICT|INTERRES
    91   44  169 1    
    92   45   46 2    
    93   45   47 1    
    94   47   48 1    
    95   47   49 1    
    96   47  170 1    
    97   48  171 1    
    98   48  172 1    
    99   48  173 1    
   100   49   50 am   BACKBONE|DICT|INTERRES
   101   49  174 1    
   102   50   51 2    
   103   50   52 1    
   104   52   53 1    
   105   52   54 1    
   106   52  175 1    
   107   53  176 1    
   108   53  177 1    
   109   53  178 1    
   110   54   55 am   BACKBONE|DICT|INTERRES
   111   54  179 1    
   112   55   56 2    
   113   55   57 1    
   114   57   58 1    
   115   57   59 1    
   116   57  180 1    
   117   58  181 1    
   118   58  182 1    
   119   58  183 1    
   120   59   60 am   BACKBONE|DICT|INTERRES
   121   59  184 1    
   122   60   61 2    
   123   60   62 1    
   124   62   63 1    
   125   62   64 1    
   126   62  185 1    
   127   63  186 1    
   128   63  187 1    
   129   63  188 1    
   130   64   65 am   BACKBONE|DICT|INTERRES
   131   64  189 1    
   132   65   66 2    
   133   67   68 2    
   134   67   69 am   BACKBONE|DICT|INTERRES
   135   69   70 1    
   136   69  190 1    
   137   70   71 1    
   138   70   72 1    
   139   70  191 1    
   140   71  192 1    
   141   71  193 1    
   142   71  194 1    
   143   72   73 2    
   144   72   74 am   BACKBONE|DICT|INTERRES
   145   74   75 1    
   146   74  195 1    
   147   75   76 1    
   148   75   77 1    
   149   75  196 1    
   150   76  197 1    
   151   76  198 1    
   152   76  199 1    
   153   77   78 2    
   154   77   79 am   BACKBONE|DICT|INTERRES
   155   79   80 1    
   156   79  200 1    
   157   80   81 1    
   158   80   82 1    
   159   80  201 1    
   160   81  202 1    
   161   81  203 1    
   162   81  204 1    
   163   82   83 2    
   164   82   84 am   BACKBONE|DICT|INTERRES
   165   84   85 1    
   166   84  205 1    
   167   85   86 1    
   168   85   87 1    
   169   85  206 1    
   170   86  207 1    
   171   86  208 1    
   172   86  209 1    
   173   87   88 2    
   174   87   89 am   BACKBONE|DICT|INTERRES
   175   89   90 1    
   176   89  210 1    
   177   90   91 1    
   178   90   92 1    
   179   90  211 1    
   180   91  212 1    
   181   91  213 1    
   182   91  214 1    
   183   92   93 2    
   184   92   94 am   BACKBONE|DICT|INTERRES
   185   94   95 1    
   186   94  215 1    
   187   95   96 1    
   188   95   97 1    
   189   95  216 1    
   190   96  217 1    
   191   96  218 1    
   192   96  219 1    
   193   97   98 2    
   194   97   99 am   BACKBONE|DICT|INTERRES
   195   99  100 1    
   196   99  220 1    
   197  100  101 1    
   198  100  102 1    
   199  100  221 1    
   200  101  222 1    
   201  101  223 1    
   202  101  224 1    
   203  102  103 2    
   204  102  104 am   BACKBONE|DICT|INTERRES
   205  104  105 1    
   206  104  225 1    
   207  105  106 1    
   208  105  107 1    
   209  105  226 1    
   210  106  227 1    
   211  106  228 1    
   212  106  229 1    
   213  107  108 2    
   214  107  109 am   BACKBONE|DICT|INTERRES
   215  109  110 1    
   216  109  230 1    
   217  110  111 1    
   218  110  112 1    
   219  110  231 1    
   220  111  232 1    
   221  111  233 1    
   222  111  234 1    
   223  112  113 2    
   224  112  114 am   BACKBONE|DICT|INTERRES
   225  114  115 1    
   226  114  235 1    
   227  115  116 1    
   228  115  117 1    
   229  115  236 1    
   230  116  237 1    
   231  116  238 1    
   232  116  239 1    
   233  117  118 2    
   234  117  119 am   BACKBONE|DICT|INTERRES
   235  119  120 1    
   236  119  240 1    
   237  120  121 1    
   238  120  124 1    
   239  120  241 1    
   240  121  122 am   BACKBONE|DICT|INTERRES
   241  121  123 2    
   242  122  242 1    
   243  122  243 1    
   244  124  125 1    
   245  124  244 1    
   246  124  245 1    
   247  125  126 1    
   248  126  246 1    
   249  126  247 1    
@<TRIPOS>SUBSTRUCTURE
     1 UNK         1 GROUP             0       ****    0 ROOT    
