@<TRIPOS>MOLECULE
3R540
247   249    1
SMALL
USER_CHARGES


@<TRIPOS>ATOM
      1 CA          0.3784  -12.2672  -50.9629 C.3       0 UNK        -0.1800 
      2 C           0.4435  -12.8886  -49.5769 C.2       0 UNK         0.5000 
      3 O          -0.3778  -12.5582  -48.7202 O.2       0 UNK        -0.5000 
      4 N           1.4099  -13.7895  -49.3469 N.am      1 UNK        -0.5000 
      5 CA          1.7115  -14.3927  -48.0382 C.3       1 UNK         0.1400 
      6 C6          2.9874  -15.2814  -48.0129 C.3       23 UNK        -0.0398 
      7 S7          4.2697  -14.8242  -49.2339 S.3       23 UNK        -0.2404 
      8 C8          4.5896  -16.4166  -50.0658 C.3       23 UNK        -0.0205 
      9 C9          3.3395  -17.0473  -50.6696 C.ar      23 UNK        -0.0193 
     10 C10         2.7644  -16.5153  -51.8265 C.ar      23 UNK        -0.1150 
     11 C11         1.6337  -17.1099  -52.3949 C.ar      23 UNK        -0.0193 
     12 C12         1.0881  -18.2536  -51.8042 C.ar      23 UNK        -0.1150 
     13 C13         1.6550  -18.8043  -50.6509 C.ar      23 UNK        -0.0193 
     14 C14         2.7744  -18.1850  -50.0837 C.ar      23 UNK        -0.1150 
     15 C15         1.0423  -20.0593  -50.0332 C.3       23 UNK        -0.0205 
     16 S16         2.2886  -21.2836  -49.5086 S.3       23 UNK        -0.2404 
     17 C17         1.4501  -22.8782  -49.8374 C.3       23 UNK        -0.0398 
     18 CA          0.7145  -23.5057  -48.6237 C.3       11 UNK         0.1400 
     19 N           1.5197  -23.3977  -47.4056 N.am      11 UNK        -0.5000 
     20 C           1.2819  -23.9890  -46.2302 C.2       10 UNK         0.5000 
     21 O           0.3555  -24.7726  -46.0277 O.2       10 UNK        -0.5000 
     22 CA          2.2090  -23.5691  -45.0718 C.3       10 UNK         0.1400 
     23 CB          3.4622  -24.4558  -45.0383 C.3       10 UNK        -0.1800 
     24 N           2.6154  -22.1569  -45.1144 N.am      10 UNK        -0.5000 
     25 C           1.7749  -21.1130  -45.1360 C.2       9 UNK         0.5000 
     26 O           0.5511  -21.2328  -45.1727 O.2       9 UNK        -0.5000 
     27 CA          2.3970  -19.7064  -45.0995 C.3       9 UNK         0.1400 
     28 CB          1.6692  -18.7349  -46.0465 C.3       9 UNK        -0.1800 
     29 N           2.3412  -19.1707  -43.7440 N.am      9 UNK        -0.5000 
     30 C           3.0834  -19.6002  -42.7148 C.2       8 UNK         0.5000 
     31 O           3.9715  -20.4478  -42.8156 O.2       8 UNK        -0.5000 
     32 CA          2.7769  -18.9831  -41.3422 C.3       8 UNK         0.1400 
     33 CB          3.4906  -17.6312  -41.1904 C.3       8 UNK        -0.1800 
     34 N           1.3378  -18.8000  -41.1502 N.am      8 UNK        -0.5000 
     35 C           0.5214  -19.7247  -40.6255 C.2       7 UNK         0.5000 
     36 O           0.9040  -20.8288  -40.2364 O.2       7 UNK        -0.5000 
     37 CA         -0.9688  -19.3569  -40.4831 C.3       7 UNK         0.1400 
     38 CB         -1.2604  -18.8535  -39.0609 C.3       7 UNK        -0.1800 
     39 N          -1.4044  -18.3405  -41.4410 N.am      7 UNK        -0.5000 
     40 C          -1.7114  -18.5947  -42.7198 C.2       6 UNK         0.5000 
     41 O          -1.7075  -19.7222  -43.2085 O.2       6 UNK        -0.5000 
     42 CA         -2.0935  -17.3889  -43.6023 C.3       6 UNK         0.1400 
     43 CB         -3.6177  -17.1967  -43.5744 C.3       6 UNK        -0.1800 
     44 N          -1.4540  -16.1184  -43.2388 N.am      6 UNK        -0.5000 
     45 C          -0.1373  -15.9012  -43.1171 C.2       5 UNK         0.5000 
     46 O           0.7156  -16.7858  -43.2167 O.2       5 UNK        -0.5000 
     47 CA          0.2744  -14.4472  -42.8430 C.3       5 UNK         0.1400 
     48 CB          1.7954  -14.2694  -42.6679 C.3       5 UNK        -0.1800 
     49 N          -0.1990  -13.5976  -43.9324 N.am      5 UNK        -0.5000 
     50 C          -0.5066  -12.3011  -43.8101 C.2       4 UNK         0.5000 
     51 O          -0.5016  -11.6994  -42.7349 O.2       4 UNK        -0.5000 
     52 CA         -0.8602  -11.5302  -45.0957 C.3       4 UNK         0.1400 
     53 CB          0.4119  -10.9676  -45.7481 C.3       4 UNK        -0.1800 
     54 N          -1.5967  -12.3143  -46.0869 N.am      4 UNK        -0.5000 
     55 C          -2.8753  -12.6962  -45.9570 C.2       3 UNK         0.5000 
     56 O          -3.5475  -12.5070  -44.9428 O.2       3 UNK        -0.5000 
     57 CA         -3.5129  -13.3961  -47.1681 C.3       3 UNK         0.1400 
     58 CB         -3.8988  -12.3729  -48.2482 C.3       3 UNK        -0.1800 
     59 N          -2.5933  -14.3756  -47.7385 N.am      3 UNK        -0.5000 
     60 C          -2.6149  -15.6835  -47.4530 C.2       2 UNK         0.5000 
     61 O          -3.4829  -16.2196  -46.7662 O.2       2 UNK        -0.5000 
     62 CA         -1.4753  -16.5527  -48.0166 C.3       2 UNK         0.1400 
     63 CB         -1.9537  -17.3181  -49.2599 C.3       2 UNK        -0.1800 
     64 N          -0.2622  -15.8091  -48.3496 N.am      2 UNK        -0.5000 
     65 C           0.5172  -15.1761  -47.4616 C.2       1 UNK         0.5000 
     66 O           0.3050  -15.1580  -46.2515 O.2       1 UNK        -0.5000 
     67 C          -0.7199  -22.9472  -48.4744 C.2       11 UNK         0.5000 
     68 O          -1.6199  -23.3983  -49.1867 O.2       11 UNK        -0.5000 
     69 N          -0.9100  -21.9926  -47.5543 N.am      12 UNK        -0.5000 
     70 CA         -2.2052  -21.4174  -47.2085 C.3       12 UNK         0.1400 
     71 CB         -2.0231  -19.9340  -46.8796 C.3       12 UNK        -0.1800 
     72 C          -2.8345  -22.1623  -46.0233 C.2       12 UNK         0.5000 
     73 O          -4.0318  -22.4456  -46.0562 O.2       12 UNK        -0.5000 
     74 N          -2.0138  -22.4956  -45.0161 N.am      13 UNK        -0.5000 
     75 CA         -2.4091  -23.2214  -43.8068 C.3       13 UNK         0.1400 
     76 CB         -1.2098  -23.3204  -42.8532 C.3       13 UNK        -0.1800 
     77 C          -2.9857  -24.6192  -44.1009 C.2       13 UNK         0.5000 
     78 O          -3.9069  -25.0558  -43.4089 O.2       13 UNK        -0.5000 
     79 N          -2.4813  -25.2701  -45.1582 N.am      14 UNK        -0.5000 
     80 CA         -2.9957  -26.5128  -45.7338 C.3       14 UNK         0.1400 
     81 CB         -1.8937  -27.1396  -46.6072 C.3       14 UNK        -0.1800 
     82 C          -4.3134  -26.2971  -46.5142 C.2       14 UNK         0.5000 
     83 O          -4.3808  -26.5970  -47.7065 O.2       14 UNK        -0.5000 
     84 N          -5.3352  -25.7604  -45.8311 N.am      15 UNK        -0.5000 
     85 CA         -6.7125  -25.5370  -46.2941 C.3       15 UNK         0.1400 
     86 CB         -7.4520  -26.8873  -46.3920 C.3       15 UNK        -0.1800 
     87 C          -6.8262  -24.7081  -47.5948 C.2       15 UNK         0.5000 
     88 O          -7.7342  -24.9408  -48.3948 O.2       15 UNK        -0.5000 
     89 N          -5.8864  -23.7715  -47.7906 N.am      16 UNK        -0.5000 
     90 CA         -5.7045  -22.9131  -48.9658 C.3       16 UNK         0.1400 
     91 CB         -6.8743  -21.9172  -49.1024 C.3       16 UNK        -0.1800 
     92 C          -5.4142  -23.6709  -50.2803 C.2       16 UNK         0.5000 
     93 O          -5.5556  -23.0842  -51.3547 O.2       16 UNK        -0.5000 
     94 N          -4.9915  -24.9422  -50.1928 N.am      17 UNK        -0.5000 
     95 CA         -4.8097  -25.8461  -51.3334 C.3       17 UNK         0.1400 
     96 CB         -4.5080  -27.2612  -50.8186 C.3       17 UNK        -0.1800 
     97 C          -3.7326  -25.4052  -52.3419 C.2       17 UNK         0.5000 
     98 O          -3.8135  -25.7916  -53.5088 O.2       17 UNK        -0.5000 
     99 N          -2.7600  -24.6061  -51.8878 N.am      18 UNK        -0.5000 
    100 CA        -1.6814  -24.0591  -52.7065 C.3       18 UNK         0.1400 
    101 CB        -0.3799  -24.8155  -52.3832 C.3       18 UNK        -0.1800 
    102 C         -1.5624  -22.5310  -52.5453 C.2       18 UNK         0.5000 
    103 O         -0.5119  -21.9724  -52.8613 O.2       18 UNK        -0.5000 
    104 N         -2.6330  -21.8683  -52.0752 N.am      19 UNK        -0.5000 
    105 CA        -2.7030  -20.4081  -51.9471 C.3       19 UNK         0.1400 
    106 CB        -3.9390  -20.0149  -51.1256 C.3       19 UNK        -0.1800 
    107 C         -2.7055  -19.6965  -53.3131 C.2       19 UNK         0.5000 
    108 O         -2.0769  -18.6469  -53.4524 O.2       19 UNK        -0.5000 
    109 N         -3.3844  -20.3065  -54.2976 N.am      20 UNK        -0.5000 
    110 CA        -3.4594  -19.8988  -55.7033 C.3       20 UNK         0.1400 
    111 CB        -2.1275  -20.2399  -56.4101 C.3       20 UNK        -0.1800 
    112 C         -3.9037  -18.4277  -55.8643 C.2       20 UNK         0.5000 
    113 O         -4.9259  -18.0396  -55.2937 O.2       20 UNK        -0.5000 
    114 N         -3.1214  -17.6292  -56.6031 N.am      21 UNK        -0.5000 
    115 CA        -3.3444  -16.2022  -56.8484 C.3       21 UNK         0.1400 
    116 CB        -2.3128  -15.7121  -57.8764 C.3       21 UNK        -0.1800 
    117 C         -3.2987  -15.3231  -55.5815 C.2       21 UNK         0.5000 
    118 O         -3.8595  -14.2263  -55.5960 O.2       21 UNK        -0.5000 
    119 N         -2.6520  -15.8123  -54.5157 N.am      22 UNK        -0.5000 
    120 CA        -2.6165  -15.1652  -53.1961 C.3       22 UNK         0.1400 
    121 C         -3.8610  -15.4831  -52.3148 C.2       22 UNK         0.5000 
    122 N         -4.7709  -16.3634  -52.7197 N.am      22 UNK        -0.7600 
    123 O         -4.0130  -14.9037  -51.2438 O.2       22 UNK        -0.5000 
    124 C124       -1.2993  -15.4665  -52.4364 C.3       23 UNK        -0.0398 
    125 S125        0.1872  -14.9433  -53.3576 S.3       23 UNK        -0.2404 
    126 C126        1.0205  -16.5323  -53.6629 C.3       23 UNK        -0.0205 
    127 H127        0.4710  -11.1838  -50.8901 H         1 UNK         0.0600 
    128 H128       -0.5771  -12.4962  -51.4341 H         1 UNK         0.0600 
    129 H129        1.1776  -12.6331  -51.6076 H         1 UNK         0.0600 
    130 H130        2.0609  -14.0248  -50.0836 H         1 UNK         0.3000 
    131 H131        1.8944  -13.5554  -47.3628 H         1 UNK         0.0600 
    132 H132        2.7365  -16.3329  -48.1445 H         1 UNK         0.0800 
    133 H133        3.4399  -15.2304  -47.0212 H         1 UNK         0.0800 
    134 H134        5.0558  -17.0985  -49.3528 H         1 UNK         0.0800 
    135 H135        5.3256  -16.2579  -50.8552 H         1 UNK         0.0800 
    136 H136        3.1975  -15.6380  -52.2865 H         1 UNK         0.1150 
    137 H137        0.2242  -18.7233  -52.2516 H         1 UNK         0.1150 
    138 H138        3.2183  -18.5996  -49.1899 H         1 UNK         0.1150 
    139 H139        0.4373  -19.7768  -49.1722 H         1 UNK         0.0800 
    140 H140        0.3666  -20.5254  -50.7489 H         1 UNK         0.0800 
    141 H141        2.2271  -23.5711  -50.1626 H         1 UNK         0.0800 
    142 H142        0.7927  -22.7749  -50.6987 H         1 UNK         0.0800 
    143 H143        0.5952  -24.5720  -48.8277 H         1 UNK         0.0600 
    144 H144        2.2970  -22.7550  -47.4630 H         1 UNK         0.3000 
    145 H145        1.6640  -23.7213  -44.1399 H         1 UNK         0.0600 
    146 H146        4.0789  -24.2342  -44.1671 H         1 UNK         0.0600 
    147 H147        3.1925  -25.5114  -44.9838 H         1 UNK         0.0600 
    148 H148        4.0766  -24.3189  -45.9291 H         1 UNK         0.0600 
    149 H149        3.6058  -21.9741  -45.0342 H         1 UNK         0.3000 
    150 H150        3.4403  -19.7705  -45.4152 H         1 UNK         0.0600 
    151 H151        1.6611  -19.1132  -47.0689 H         1 UNK         0.0600 
    152 H152        2.1596  -17.7617  -46.0613 H         1 UNK         0.0600 
    153 H153        0.6336  -18.5738  -45.7443 H         1 UNK         0.0600 
    154 H154        1.6484  -18.4475  -43.5734 H         1 UNK         0.3000 
    155 H155        3.1657  -19.6540  -40.5731 H         1 UNK         0.0600 
    156 H156        3.2583  -17.1645  -40.2331 H         1 UNK         0.0600 
    157 H157        3.2099  -16.9371  -41.9824 H         1 UNK         0.0600 
    158 H158        4.5729  -17.7574  -41.2379 H         1 UNK         0.0600 
    159 H159        0.9377  -17.9518  -41.5321 H         1 UNK         0.3000 
    160 H160       -1.5499  -20.2677  -40.6448 H         1 UNK         0.0600 
    161 H161       -0.7121  -17.9376  -38.8370 H         1 UNK         0.0600 
    162 H162       -0.9738  -19.5979  -38.3167 H         1 UNK         0.0600 
    163 H163       -2.3230  -18.6518  -38.9240 H         1 UNK         0.0600 
    164 H164       -1.4496  -17.3873  -41.1129 H         1 UNK         0.3000 
    165 H165       -1.7906  -17.6189  -44.6256 H         1 UNK         0.0600 
    166 H166       -3.9272  -16.3540  -44.1917 H         1 UNK         0.0600 
    167 H167       -4.1281  -18.0826  -43.9550 H         1 UNK         0.0600 
    168 H168       -3.9816  -17.0158  -42.5622 H         1 UNK         0.0600 
    169 H169       -2.0710  -15.3240  -43.1494 H         1 UNK         0.3000 
    170 H170       -0.2149  -14.1540  -41.9117 H         1 UNK         0.0600 
    171 H171        2.1577  -14.8470  -41.8178 H         1 UNK         0.0600 
    172 H172        2.3421  -14.5965  -43.5537 H         1 UNK         0.0600 
    173 H173        2.0556  -13.2276  -42.4802 H         1 UNK         0.0600 
    174 H174       -0.2130  -14.0402  -44.8499 H         1 UNK         0.3000 
    175 H175       -1.4887  -10.6849  -44.8071 H         1 UNK         0.0600 
    176 H176        1.0872  -11.7634  -46.0618 H         1 UNK         0.0600 
    177 H177        0.1737  -10.3654  -46.6252 H         1 UNK         0.0600 
    178 H178        0.9583  -10.3290  -45.0529 H         1 UNK         0.0600 
    179 H179       -1.1265  -12.4767  -46.9729 H         1 UNK         0.3000 
    180 H180       -4.4293  -13.8858  -46.8315 H         1 UNK         0.0600 
    181 H181       -4.3829  -12.8612  -49.0943 H         1 UNK         0.0600 
    182 H182       -3.0305  -11.8333  -48.6280 H         1 UNK         0.0600 
    183 H183       -4.5981  -11.6347  -47.8538 H         1 UNK         0.0600 
    184 H184       -1.8299  -14.0057  -48.2916 H         1 UNK         0.3000 
    185 H185       -1.2056  -17.2649  -47.2366 H         1 UNK         0.0600 
    186 H186       -1.1686  -17.9490  -49.6745 H         1 UNK         0.0600 
    187 H187       -2.8007  -17.9613  -49.0195 H         1 UNK         0.0600 
    188 H188       -2.2862  -16.6368  -50.0394 H         1 UNK         0.0600 
    189 H189       -0.0096  -15.7572  -49.3253 H         1 UNK         0.3000 
    190 H190       -0.1367  -21.7237  -46.9560 H         1 UNK         0.3000 
    191 H191       -2.8726  -21.4858  -48.0669 H         1 UNK         0.0600 
    192 H192       -2.9843  -19.4227  -46.8154 H         1 UNK         0.0600 
    193 H193       -1.4342  -19.4542  -47.6562 H         1 UNK         0.0600 
    194 H194       -1.5064  -19.7823  -45.9326 H         1 UNK         0.0600 
    195 H195       -1.0591  -22.1461  -45.0410 H         1 UNK         0.3000 
    196 H196       -3.1879  -22.6335  -43.3170 H         1 UNK         0.0600 
    197 H197       -0.4307  -23.9639  -43.2596 H         1 UNK         0.0600 
    198 H198       -0.7724  -22.3404  -42.6589 H         1 UNK         0.0600 
    199 H199       -1.5112  -23.7395  -41.8927 H         1 UNK         0.0600 
    200 H200       -1.6888  -24.8549  -45.6362 H         1 UNK         0.3000 
    201 H201       -3.2130  -27.2086  -44.9210 H         1 UNK         0.0600 
    202 H202       -1.6175  -26.4848  -47.4351 H         1 UNK         0.0600 
    203 H203       -2.2199  -28.0899  -47.0314 H         1 UNK         0.0600 
    204 H204       -0.9939  -27.3369  -46.0242 H         1 UNK         0.0600 
    205 H205       -5.1461  -25.4997  -44.8676 H         1 UNK         0.3000 
    206 H206       -7.2022  -24.9464  -45.5187 H         1 UNK         0.0600 
    207 H207       -7.3842  -27.4430  -45.4568 H         1 UNK         0.0600 
    208 H208       -8.5121  -26.7427  -46.6037 H         1 UNK         0.0600 
    209 H209       -7.0408  -27.5135  -47.1848 H         1 UNK         0.0600 
    210 H210       -5.2033  -23.6217  -47.0527 H         1 UNK         0.3000 
    211 H211       -4.8088  -22.3292  -48.7682 H         1 UNK         0.0600 
    212 H212       -6.6713  -21.1743  -49.8744 H         1 UNK         0.0600 
    213 H213       -7.0400  -21.3754  -48.1712 H         1 UNK         0.0600 
    214 H214       -7.8044  -22.4190  -49.3701 H         1 UNK         0.0600 
    215 H215       -4.8685  -25.3561  -49.2737 H         1 UNK         0.3000 
    216 H216       -5.7585  -25.8795  -51.8727 H         1 UNK         0.0600 
    217 H217       -3.5751  -27.2910  -50.2541 H         1 UNK         0.0600 
    218 H218       -4.4155  -27.9684  -51.6438 H         1 UNK         0.0600 
    219 H219       -5.3053  -27.6233  -50.1692 H         1 UNK         0.0600 
    220 H220       -2.7517  -24.3408  -50.9090 H         1 UNK         0.3000 
    221 H221       -1.8943  -24.2100  -53.7666 H         1 UNK         0.0600 
    222 H222       -0.4531  -25.8573  -52.6954 H         1 UNK         0.0600 
    223 H223       -0.1684  -24.8110  -51.3150 H         1 UNK         0.0600 
    224 H224        0.4791  -24.3864  -52.9003 H         1 UNK         0.0600 
    225 H225       -3.4754  -22.3886  -51.8641 H         1 UNK         0.3000 
    226 H226       -1.8213  -20.0689  -51.4020 H         1 UNK         0.0600 
    227 H227       -4.8608  -20.3670  -51.5899 H         1 UNK         0.0600 
    228 H228       -3.8894  -20.4256  -50.1178 H         1 UNK         0.0600 
    229 H229       -4.0151  -18.9308  -51.0311 H         1 UNK         0.0600 
    230 H230       -3.8943  -21.1448  -54.0605 H         1 UNK         0.3000 
    231 H231       -4.2433  -20.5033  -56.1613 H         1 UNK         0.0600 
    232 H232       -1.2913  -19.6666  -56.0072 H         1 UNK         0.0600 
    233 H233       -2.1842  -20.0494  -57.4825 H         1 UNK         0.0600 
    234 H234       -1.8852  -21.2959  -56.2894 H         1 UNK         0.0600 
    235 H235       -2.2904  -18.0276  -57.0152 H         1 UNK         0.3000 
    236 H236       -4.3403  -16.0926  -57.2826 H         1 UNK         0.0600 
    237 H237       -2.3901  -16.2680  -58.8110 H         1 UNK         0.0600 
    238 H238       -2.4667  -14.6585  -58.1137 H         1 UNK         0.0600 
    239 H239       -1.2932  -15.8186  -57.5035 H         1 UNK         0.0600 
    240 H240       -2.2605  -16.7451  -54.5564 H         1 UNK         0.3000 
    241 H241       -2.6444  -14.0848  -53.3503 H         1 UNK         0.0600 
    242 H242       -5.5741  -16.5386  -52.1384 H         1 UNK         0.3800 
    243 H243       -4.6803  -16.8453  -53.6064 H         1 UNK         0.3800 
    244 H244       -1.2319  -16.5276  -52.1990 H         1 UNK         0.0800 
    245 H245       -1.2852  -14.9414  -51.4805 H         1 UNK         0.0800 
    246 H246        0.3142  -17.2327  -54.1121 H         1 UNK         0.0800 
    247 H247        1.8090  -16.3792  -54.4009 H         1 UNK         0.0800 
@<TRIPOS>BOND
     1    1    2 1    
     2    1  127 1    
     3    1  128 1    
     4    1  129 1    
     5    2    3 2    
     6    2    4 am   BACKBONE|DICT|INTERRES
     7    4    5 1    
     8    4  130 1    
     9    5    6 1    
    10    5   65 1    
    11    5  131 1    
    12    6    7 1    
    13    6  132 1    
    14    6  133 1    
    15    7    8 1    
    16    8    9 1    
    17    8  134 1    
    18    8  135 1    
    19    9   10 ar   
    20    9   14 ar   
    21   10   11 ar   
    22   10  136 1    
    23   11   12 ar   
    24   11  126 1    
    25   12   13 ar   
    26   12  137 1    
    27   13   14 ar   
    28   13   15 1    
    29   14  138 1    
    30   15   16 1    
    31   15  139 1    
    32   15  140 1    
    33   16   17 1    
    34   17   18 1    
    35   17  141 1    
    36   17  142 1    
    37   18   19 1    
    38   18   67 1    
    39   18  143 1    
    40   19   20 am   BACKBONE|DICT|INTERRES
    41   19  144 1    
    42   20   21 2    
    43   20   22 1    
    44   22   23 1    
    45   22   24 1    
    46   22  145 1    
    47   23  146 1    
    48   23  147 1    
    49   23  148 1    
    50   24   25 am   BACKBONE|DICT|INTERRES
    51   24  149 1    
    52   25   26 2    
    53   25   27 1    
    54   27   28 1    
    55   27   29 1    
    56   27  150 1    
    57   28  151 1    
    58   28  152 1    
    59   28  153 1    
    60   29   30 am   BACKBONE|DICT|INTERRES
    61   29  154 1    
    62   30   31 2    
    63   30   32 1    
    64   32   33 1    
    65   32   34 1    
    66   32  155 1    
    67   33  156 1    
    68   33  157 1    
    69   33  158 1    
    70   34   35 am   BACKBONE|DICT|INTERRES
    71   34  159 1    
    72   35   36 2    
    73   35   37 1    
    74   37   38 1    
    75   37   39 1    
    76   37  160 1    
    77   38  161 1    
    78   38  162 1    
    79   38  163 1    
    80   39   40 am   BACKBONE|DICT|INTERRES
    81   39  164 1    
    82   40   41 2    
    83   40   42 1    
    84   42   43 1    
    85   42   44 1    
    86   42  165 1    
    87   43  166 1    
    88   43  167 1    
    89   43  168 1    
    90   44   45 am   BACKBONE|DICT|INTERRES
    91   44  169 1    
    92   45   46 2    
    93   45   47 1    
    94   47   48 1    
    95   47   49 1    
    96   47  170 1    
    97   48  171 1    
    98   48  172 1    
    99   48  173 1    
   100   49   50 am   BACKBONE|DICT|INTERRES
   101   49  174 1    
   102   50   51 2    
   103   50   52 1    
   104   52   53 1    
   105   52   54 1    
   106   52  175 1    
   107   53  176 1    
   108   53  177 1    
   109   53  178 1    
   110   54   55 am   BACKBONE|DICT|INTERRES
   111   54  179 1    
   112   55   56 2    
   113   55   57 1    
   114   57   58 1    
   115   57   59 1    
   116   57  180 1    
   117   58  181 1    
   118   58  182 1    
   119   58  183 1    
   120   59   60 am   BACKBONE|DICT|INTERRES
   121   59  184 1    
   122   60   61 2    
   123   60   62 1    
   124   62   63 1    
   125   62   64 1    
   126   62  185 1    
   127   63  186 1    
   128   63  187 1    
   129   63  188 1    
   130   64   65 am   BACKBONE|DICT|INTERRES
   131   64  189 1    
   132   65   66 2    
   133   67   68 2    
   134   67   69 am   BACKBONE|DICT|INTERRES
   135   69   70 1    
   136   69  190 1    
   137   70   71 1    
   138   70   72 1    
   139   70  191 1    
   140   71  192 1    
   141   71  193 1    
   142   71  194 1    
   143   72   73 2    
   144   72   74 am   BACKBONE|DICT|INTERRES
   145   74   75 1    
   146   74  195 1    
   147   75   76 1    
   148   75   77 1    
   149   75  196 1    
   150   76  197 1    
   151   76  198 1    
   152   76  199 1    
   153   77   78 2    
   154   77   79 am   BACKBONE|DICT|INTERRES
   155   79   80 1    
   156   79  200 1    
   157   80   81 1    
   158   80   82 1    
   159   80  201 1    
   160   81  202 1    
   161   81  203 1    
   162   81  204 1    
   163   82   83 2    
   164   82   84 am   BACKBONE|DICT|INTERRES
   165   84   85 1    
   166   84  205 1    
   167   85   86 1    
   168   85   87 1    
   169   85  206 1    
   170   86  207 1    
   171   86  208 1    
   172   86  209 1    
   173   87   88 2    
   174   87   89 am   BACKBONE|DICT|INTERRES
   175   89   90 1    
   176   89  210 1    
   177   90   91 1    
   178   90   92 1    
   179   90  211 1    
   180   91  212 1    
   181   91  213 1    
   182   91  214 1    
   183   92   93 2    
   184   92   94 am   BACKBONE|DICT|INTERRES
   185   94   95 1    
   186   94  215 1    
   187   95   96 1    
   188   95   97 1    
   189   95  216 1    
   190   96  217 1    
   191   96  218 1    
   192   96  219 1    
   193   97   98 2    
   194   97   99 am   BACKBONE|DICT|INTERRES
   195   99  100 1    
   196   99  220 1    
   197  100  101 1    
   198  100  102 1    
   199  100  221 1    
   200  101  222 1    
   201  101  223 1    
   202  101  224 1    
   203  102  103 2    
   204  102  104 am   BACKBONE|DICT|INTERRES
   205  104  105 1    
   206  104  225 1    
   207  105  106 1    
   208  105  107 1    
   209  105  226 1    
   210  106  227 1    
   211  106  228 1    
   212  106  229 1    
   213  107  108 2    
   214  107  109 am   BACKBONE|DICT|INTERRES
   215  109  110 1    
   216  109  230 1    
   217  110  111 1    
   218  110  112 1    
   219  110  231 1    
   220  111  232 1    
   221  111  233 1    
   222  111  234 1    
   223  112  113 2    
   224  112  114 am   BACKBONE|DICT|INTERRES
   225  114  115 1    
   226  114  235 1    
   227  115  116 1    
   228  115  117 1    
   229  115  236 1    
   230  116  237 1    
   231  116  238 1    
   232  116  239 1    
   233  117  118 2    
   234  117  119 am   BACKBONE|DICT|INTERRES
   235  119  120 1    
   236  119  240 1    
   237  120  121 1    
   238  120  124 1    
   239  120  241 1    
   240  121  122 am   BACKBONE|DICT|INTERRES
   241  121  123 2    
   242  122  242 1    
   243  122  243 1    
   244  124  125 1    
   245  124  244 1    
   246  124  245 1    
   247  125  126 1    
   248  126  246 1    
   249  126  247 1    
@<TRIPOS>SUBSTRUCTURE
     1 UNK         1 GROUP             0       ****    0 ROOT    
