@<TRIPOS>MOLECULE
3R540
247   249    1
SMALL
USER_CHARGES


@<TRIPOS>ATOM
      1 CA         -3.6633  -13.4667  -50.5648 C.3       0 UNK        -0.1800 
      2 C          -2.4924  -12.5118  -50.7557 C.2       0 UNK         0.5000 
      3 O          -2.6936  -11.3599  -51.1419 O.2       0 UNK        -0.5000 
      4 N          -1.2713  -12.9902  -50.4952 N.am      1 UNK        -0.5000 
      5 CA         -0.0269  -12.2173  -50.5401 C.3       1 UNK         0.1400 
      6 C6          1.2124  -13.1389  -50.7002 C.3       23 UNK        -0.0398 
      7 S7          1.3190  -14.4705  -49.4517 S.3       23 UNK        -0.2404 
      8 C8          0.7537  -15.8943  -50.4323 C.3       23 UNK        -0.0205 
      9 C9          0.2217  -17.0087  -49.5476 C.ar      23 UNK        -0.0193 
     10 C10        -1.1214  -17.0107  -49.1608 C.ar      23 UNK        -0.1150 
     11 C11        -1.6410  -18.0628  -48.4025 C.ar      23 UNK        -0.0193 
     12 C12        -0.8050  -19.1197  -48.0333 C.ar      23 UNK        -0.1150 
     13 C13         0.5399  -19.1303  -48.4147 C.ar      23 UNK        -0.0193 
     14 C14         1.0517  -18.0642  -49.1605 C.ar      23 UNK        -0.1150 
     15 C15         1.4121  -20.3350  -48.1015 C.3       23 UNK        -0.0205 
     16 S16         1.4918  -20.7073  -46.3207 S.3       23 UNK        -0.2404 
     17 C17         2.1223  -22.4206  -46.3895 C.3       23 UNK        -0.0398 
     18 CA          1.0747  -23.5498  -46.1932 C.3       11 UNK         0.1400 
     19 N           0.7527  -23.8091  -44.7863 N.am      11 UNK        -0.5000 
     20 C           0.2555  -24.9818  -44.3629 C.2       10 UNK         0.5000 
     21 O           0.0155  -25.9271  -45.1148 O.2       10 UNK        -0.5000 
     22 CA         -0.0534  -25.1293  -42.8631 C.3       10 UNK         0.1400 
     23 CB          1.1994  -25.5819  -42.0987 C.3       10 UNK        -0.1800 
     24 N          -0.5913  -23.9228  -42.2356 N.am      10 UNK        -0.5000 
     25 C          -1.7209  -23.2973  -42.5919 C.2       9 UNK         0.5000 
     26 O          -2.4087  -23.6328  -43.5585 O.2       9 UNK        -0.5000 
     27 CA         -2.1713  -22.1010  -41.7248 C.3       9 UNK         0.1400 
     28 CB         -1.2665  -21.8223  -40.5024 C.3       9 UNK        -0.1800 
     29 N          -2.3484  -20.8772  -42.5112 N.am      9 UNK        -0.5000 
     30 C          -1.4272  -20.2651  -43.2688 C.2       8 UNK         0.5000 
     31 O          -0.2882  -20.7032  -43.4424 O.2       8 UNK        -0.5000 
     32 CA         -1.8925  -18.9731  -43.9746 C.3       8 UNK         0.1400 
     33 CB         -2.6337  -18.0034  -43.0271 C.3       8 UNK        -0.1800 
     34 N          -0.8215  -18.2856  -44.7034 N.am      8 UNK        -0.5000 
     35 C           0.2270  -17.6222  -44.1957 C.2       7 UNK         0.5000 
     36 O           0.4431  -17.4752  -42.9898 O.2       7 UNK        -0.5000 
     37 CA          1.1375  -16.9537  -45.2466 C.3       7 UNK         0.1400 
     38 CB          0.3952  -15.7936  -45.9299 C.3       7 UNK        -0.1800 
     39 N           2.3819  -16.4235  -44.6956 N.am      7 UNK        -0.5000 
     40 C           3.3997  -17.1429  -44.2077 C.2       6 UNK         0.5000 
     41 O           3.4273  -18.3732  -44.1796 O.2       6 UNK        -0.5000 
     42 CA          4.6038  -16.3489  -43.6730 C.3       6 UNK         0.1400 
     43 CB          5.5860  -16.0357  -44.8133 C.3       6 UNK        -0.1800 
     44 N           4.1883  -15.0934  -43.0454 N.am      6 UNK        -0.5000 
     45 C           4.0065  -14.9233  -41.7287 C.2       5 UNK         0.5000 
     46 O           4.1974  -15.8075  -40.8926 O.2       5 UNK        -0.5000 
     47 CA          3.5532  -13.5280  -41.2524 C.3       5 UNK         0.1400 
     48 CB          4.7675  -12.6879  -40.8270 C.3       5 UNK        -0.1800 
     49 N           2.7989  -12.7884  -42.2648 N.am      5 UNK        -0.5000 
     50 C           1.5309  -13.0494  -42.6095 C.2       4 UNK         0.5000 
     51 O           0.8350  -13.9004  -42.0565 O.2       4 UNK        -0.5000 
     52 CA          0.9386  -12.2308  -43.7746 C.3       4 UNK         0.1400 
     53 CB          0.1165  -11.0499  -43.2369 C.3       4 UNK        -0.1800 
     54 N           1.9191  -11.7205  -44.7385 N.am      4 UNK        -0.5000 
     55 C           2.7842  -12.4475  -45.4563 C.2       3 UNK         0.5000 
     56 O           2.9342  -13.6605  -45.3046 O.2       3 UNK        -0.5000 
     57 CA          3.6173  -11.6837  -46.5087 C.3       3 UNK         0.1400 
     58 CB          4.5721  -12.6087  -47.2849 C.3       3 UNK        -0.1800 
     59 N           2.7754  -10.9707  -47.4718 N.am      3 UNK        -0.5000 
     60 C           2.1065   -9.8303  -47.2504 C.2       2 UNK         0.5000 
     61 O           2.1392   -9.2255  -46.1774 O.2       2 UNK        -0.5000 
     62 CA          1.2526   -9.2709  -48.4073 C.3       2 UNK         0.1400 
     63 CB          1.9490   -8.0608  -49.0491 C.3       2 UNK        -0.1800 
     64 N           0.9541  -10.2536  -49.4541 N.am      2 UNK        -0.5000 
     65 C           0.1050  -11.2815  -49.3172 C.2       1 UNK         0.5000 
     66 O          -0.5265  -11.5086  -48.2817 O.2       1 UNK        -0.5000 
     67 C          -0.2018  -23.3926  -47.0481 C.2       11 UNK         0.5000 
     68 O          -0.2269  -23.8663  -48.1835 O.2       11 UNK        -0.5000 
     69 N          -1.2535  -22.7863  -46.4737 N.am      12 UNK        -0.5000 
     70 CA         -2.5727  -22.6755  -47.0971 C.3       12 UNK         0.1400 
     71 CB         -3.4572  -21.6916  -46.3211 C.3       12 UNK        -0.1800 
     72 C          -3.2638  -24.0399  -47.2117 C.2       12 UNK         0.5000 
     73 O          -3.8607  -24.3229  -48.2484 O.2       12 UNK        -0.5000 
     74 N          -3.1367  -24.8714  -46.1678 N.am      13 UNK        -0.5000 
     75 CA         -3.6299  -26.2481  -46.1420 C.3       13 UNK         0.1400 
     76 CB         -3.4608  -26.8336  -44.7322 C.3       13 UNK        -0.1800 
     77 C          -2.9477  -27.1354  -47.1999 C.2       13 UNK         0.5000 
     78 O          -3.6392  -27.8620  -47.9136 O.2       13 UNK        -0.5000 
     79 N          -1.6167  -27.0202  -47.3209 N.am      14 UNK        -0.5000 
     80 CA         -0.8082  -27.7069  -48.3324 C.3       14 UNK         0.1400 
     81 CB          0.6817  -27.4908  -48.0278 C.3       14 UNK        -0.1800 
     82 C          -1.1382  -27.2652  -49.7719 C.2       14 UNK         0.5000 
     83 O          -1.1806  -28.1038  -50.6724 O.2       14 UNK        -0.5000 
     84 N          -1.3953  -25.9636  -49.9549 N.am      15 UNK        -0.5000 
     85 CA         -1.8109  -25.3538  -51.2200 C.3       15 UNK         0.1400 
     86 CB         -1.5226  -23.8471  -51.1417 C.3       15 UNK        -0.1800 
     87 C          -3.2958  -25.5877  -51.5693 C.2       15 UNK         0.5000 
     88 O          -3.7166  -25.2214  -52.6689 O.2       15 UNK        -0.5000 
     89 N          -4.0710  -26.1326  -50.6181 N.am      16 UNK        -0.5000 
     90 CA         -5.5279  -26.3071  -50.6419 C.3       16 UNK         0.1400 
     91 CB         -5.9225  -27.4001  -51.6558 C.3       16 UNK        -0.1800 
     92 C          -6.2771  -24.9754  -50.8701 C.2       16 UNK         0.5000 
     93 O          -7.2930  -24.9478  -51.5675 O.2       16 UNK        -0.5000 
     94 N          -5.7166  -23.8862  -50.3213 N.am      17 UNK        -0.5000 
     95 CA         -6.0497  -22.4650  -50.4816 C.3       17 UNK         0.1400 
     96 CB         -7.4571  -22.1601  -49.9366 C.3       17 UNK        -0.1800 
     97 C          -5.8817  -21.9160  -51.9146 C.2       17 UNK         0.5000 
     98 O          -5.3567  -20.8149  -52.0843 O.2       17 UNK        -0.5000 
     99 N          -6.3373  -22.6797  -52.9131 N.am      18 UNK        -0.5000 
    100 CA        -6.4246  -22.3117  -54.3223 C.3       18 UNK         0.1400 
    101 CB        -7.1784  -23.4140  -55.0814 C.3       18 UNK        -0.1800 
    102 C         -5.0699  -22.0276  -54.9895 C.2       18 UNK         0.5000 
    103 O         -4.9638  -21.0424  -55.7201 O.2       18 UNK        -0.5000 
    104 N         -4.0571  -22.8697  -54.7314 N.am      19 UNK        -0.5000 
    105 CA        -2.7390  -22.7509  -55.3688 C.3       19 UNK         0.1400 
    106 CB        -1.9636  -24.0686  -55.2206 C.3       19 UNK        -0.1800 
    107 C         -1.9125  -21.5613  -54.8429 C.2       19 UNK         0.5000 
    108 O         -1.0561  -21.0518  -55.5663 O.2       19 UNK        -0.5000 
    109 N         -2.1973  -21.1323  -53.6074 N.am      20 UNK        -0.5000 
    110 CA        -1.5987  -19.9603  -52.9673 C.3       20 UNK         0.1400 
    111 CB        -1.4003  -20.2705  -51.4775 C.3       20 UNK        -0.1800 
    112 C         -2.4451  -18.6853  -53.1643 C.2       20 UNK         0.5000 
    113 O         -1.9688  -17.5949  -52.8476 O.2       20 UNK        -0.5000 
    114 N         -3.6696  -18.8449  -53.6911 N.am      21 UNK        -0.5000 
    115 CA        -4.6858  -17.8194  -53.9402 C.3       21 UNK         0.1400 
    116 CB        -4.2269  -16.8558  -55.0545 C.3       21 UNK        -0.1800 
    117 C         -5.1320  -17.0969  -52.6519 C.2       21 UNK         0.5000 
    118 O         -5.2585  -15.8707  -52.6412 O.2       21 UNK        -0.5000 
    119 N         -5.3466  -17.8745  -51.5832 N.am      22 UNK        -0.5000 
    120 CA        -5.7734  -17.3856  -50.2631 C.3       22 UNK         0.1400 
    121 C         -7.2049  -16.7801  -50.2739 C.2       22 UNK         0.5000 
    122 N         -7.4491  -15.7348  -49.4949 N.am      22 UNK        -0.7600 
    123 O         -8.1074  -17.2767  -50.9447 O.2       22 UNK        -0.5000 
    124 C124       -5.6661  -18.4790  -49.1686 C.3       23 UNK        -0.0398 
    125 S125       -4.0184  -19.2510  -49.0861 S.3       23 UNK        -0.2404 
    126 C126       -3.1141  -18.0791  -48.0308 C.3       23 UNK        -0.0205 
    127 H127       -4.2668  -13.1559  -49.7121 H         1 UNK         0.0600 
    128 H128       -4.2980  -13.4654  -51.4511 H         1 UNK         0.0600 
    129 H129       -3.3297  -14.4905  -50.3941 H         1 UNK         0.0600 
    130 H130       -1.1723  -13.9237  -50.1254 H         1 UNK         0.3000 
    131 H131       -0.0703  -11.5772  -51.4242 H         1 UNK         0.0600 
    132 H132        2.1367  -12.5601  -50.6636 H         1 UNK         0.0800 
    133 H133        1.2017  -13.5844  -51.6958 H         1 UNK         0.0800 
    134 H134       -0.0292  -15.5888  -51.1285 H         1 UNK         0.0800 
    135 H135        1.5793  -16.2570  -51.0465 H         1 UNK         0.0800 
    136 H136       -1.7693  -16.2053  -49.4739 H         1 UNK         0.1150 
    137 H137       -1.2059  -19.9580  -47.4839 H         1 UNK         0.1150 
    138 H138        2.0859  -18.0726  -49.4747 H         1 UNK         0.1150 
    139 H139        1.0049  -21.1908  -48.6416 H         1 UNK         0.0800 
    140 H140        2.4271  -20.1887  -48.4740 H         1 UNK         0.0800 
    141 H141        2.6271  -22.5651  -47.3460 H         1 UNK         0.0800 
    142 H142        2.9101  -22.5174  -45.6413 H         1 UNK         0.0800 
    143 H143        1.5631  -24.4546  -46.5631 H         1 UNK         0.0600 
    144 H144        0.8807  -23.0492  -44.1313 H         1 UNK         0.3000 
    145 H145       -0.8097  -25.9103  -42.7634 H         1 UNK         0.0600 
    146 H146        0.9700  -25.7942  -41.0543 H         1 UNK         0.0600 
    147 H147        1.6123  -26.4947  -42.5307 H         1 UNK         0.0600 
    148 H148        1.9826  -24.8232  -42.1240 H         1 UNK         0.0600 
    149 H149       -0.0785  -23.5621  -41.4444 H         1 UNK         0.3000 
    150 H150       -3.1589  -22.3665  -41.3455 H         1 UNK         0.0600 
    151 H151       -1.2045  -22.6922  -39.8473 H         1 UNK         0.0600 
    152 H152       -1.6672  -21.0042  -39.9036 H         1 UNK         0.0600 
    153 H153       -0.2523  -21.5466  -40.7940 H         1 UNK         0.0600 
    154 H154       -3.2722  -20.4717  -42.4657 H         1 UNK         0.3000 
    155 H155       -2.6095  -19.2789  -44.7330 H         1 UNK         0.0600 
    156 H156       -2.8712  -17.0657  -43.5300 H         1 UNK         0.0600 
    157 H157       -2.0422  -17.7670  -42.1421 H         1 UNK         0.0600 
    158 H158       -3.5779  -18.4259  -42.6831 H         1 UNK         0.0600 
    159 H159       -0.8663  -18.3710  -45.7085 H         1 UNK         0.3000 
    160 H160        1.3980  -17.6975  -46.0010 H         1 UNK         0.0600 
    161 H161        0.0740  -15.0458  -45.2055 H         1 UNK         0.0600 
    162 H162       -0.4934  -16.1404  -46.4564 H         1 UNK         0.0600 
    163 H163        1.0305  -15.2978  -46.6625 H         1 UNK         0.0600 
    164 H164        2.4820  -15.4141  -44.7252 H         1 UNK         0.3000 
    165 H165        5.1240  -16.9772  -42.9468 H         1 UNK         0.0600 
    166 H166        5.1215  -15.4273  -45.5902 H         1 UNK         0.0600 
    167 H167        6.4604  -15.4993  -44.4447 H         1 UNK         0.0600 
    168 H168        5.9408  -16.9532  -45.2843 H         1 UNK         0.0600 
    169 H169        3.9469  -14.3377  -43.6758 H         1 UNK         0.3000 
    170 H170        2.9144  -13.6686  -40.3778 H         1 UNK         0.0600 
    171 H171        5.3409  -13.1958  -40.0504 H         1 UNK         0.0600 
    172 H172        5.4418  -12.5018  -41.6639 H         1 UNK         0.0600 
    173 H173        4.4585  -11.7239  -40.4226 H         1 UNK         0.0600 
    174 H174        3.2908  -12.0615  -42.7631 H         1 UNK         0.3000 
    175 H175        0.2628  -12.8895  -44.3215 H         1 UNK         0.0600 
    176 H176        0.7451  -10.3302  -42.7110 H         1 UNK         0.0600 
    177 H177       -0.3929  -10.5238  -44.0446 H         1 UNK         0.0600 
    178 H178       -0.6494  -11.3904  -42.5387 H         1 UNK         0.0600 
    179 H179        1.8702  -10.7287  -44.9510 H         1 UNK         0.3000 
    180 H180        4.2255  -10.9539  -45.9704 H         1 UNK         0.0600 
    181 H181        4.0284  -13.3773  -47.8363 H         1 UNK         0.0600 
    182 H182        5.2625  -13.1145  -46.6090 H         1 UNK         0.0600 
    183 H183        5.1744  -12.0463  -47.9984 H         1 UNK         0.0600 
    184 H184        2.6603  -11.4139  -48.3702 H         1 UNK         0.3000 
    185 H185        0.3079   -8.9312  -47.9775 H         1 UNK         0.0600 
    186 H186        2.1580   -7.2899  -48.3061 H         1 UNK         0.0600 
    187 H187        2.8982   -8.3393  -49.5086 H         1 UNK         0.0600 
    188 H188        1.3231   -7.6065  -49.8175 H         1 UNK         0.0600 
    189 H189        1.4318  -10.1219  -50.3345 H         1 UNK         0.3000 
    190 H190       -1.1637  -22.4671  -45.5195 H         1 UNK         0.3000 
    191 H191       -2.4413  -22.2826  -48.1079 H         1 UNK         0.0600 
    192 H192       -4.4611  -21.6513  -46.7462 H         1 UNK         0.0600 
    193 H193       -3.0529  -20.6856  -46.3761 H         1 UNK         0.0600 
    194 H194       -3.5558  -21.9649  -45.2708 H         1 UNK         0.0600 
    195 H195       -2.6764  -24.5314  -45.3291 H         1 UNK         0.3000 
    196 H196       -4.6974  -26.2199  -46.3703 H         1 UNK         0.0600 
    197 H197       -3.8761  -27.8406  -44.6769 H         1 UNK         0.0600 
    198 H198       -3.9772  -26.2264  -43.9885 H         1 UNK         0.0600 
    199 H199       -2.4124  -26.8960  -44.4422 H         1 UNK         0.0600 
    200 H200       -1.1144  -26.4375  -46.6577 H         1 UNK         0.3000 
    201 H201       -1.0188  -28.7757  -48.2574 H         1 UNK         0.0600 
    202 H202        0.9405  -27.8681  -47.0383 H         1 UNK         0.0600 
    203 H203        0.9504  -26.4347  -48.0637 H         1 UNK         0.0600 
    204 H204        1.3087  -28.0147  -48.7503 H         1 UNK         0.0600 
    205 H205       -1.2703  -25.3285  -49.1733 H         1 UNK         0.3000 
    206 H206       -1.2133  -25.7780  -52.0291 H         1 UNK         0.0600 
    207 H207       -0.4630  -23.6556  -50.9721 H         1 UNK         0.0600 
    208 H208       -1.7967  -23.3441  -52.0663 H         1 UNK         0.0600 
    209 H209       -2.0826  -23.3719  -50.3358 H         1 UNK         0.0600 
    210 H210       -3.6280  -26.3619  -49.7380 H         1 UNK         0.3000 
    211 H211       -5.8123  -26.6531  -49.6473 H         1 UNK         0.0600 
    212 H212       -5.7138  -27.0948  -52.6816 H         1 UNK         0.0600 
    213 H213       -6.9871  -27.6278  -51.5918 H         1 UNK         0.0600 
    214 H214       -5.3813  -28.3268  -51.4649 H         1 UNK         0.0600 
    215 H215       -4.9092  -24.0583  -49.7241 H         1 UNK         0.3000 
    216 H216       -5.3330  -21.9266  -49.8599 H         1 UNK         0.0600 
    217 H217       -8.2318  -22.7046  -50.4765 H         1 UNK         0.0600 
    218 H218       -7.6919  -21.0994  -50.0255 H         1 UNK         0.0600 
    219 H219       -7.5345  -22.4242  -48.8820 H         1 UNK         0.0600 
    220 H220       -6.7488  -23.5718  -52.6496 H         1 UNK         0.3000 
    221 H221       -7.0159  -21.3956  -54.3814 H         1 UNK         0.0600 
    222 H222       -6.6625  -24.3728  -55.0140 H         1 UNK         0.0600 
    223 H223       -8.1848  -23.5478  -54.6843 H         1 UNK         0.0600 
    224 H224       -7.2769  -23.1656  -56.1391 H         1 UNK         0.0600 
    225 H225       -4.1974  -23.6525  -54.1009 H         1 UNK         0.3000 
    226 H226       -2.8977  -22.5849  -56.4367 H         1 UNK         0.0600 
    227 H227       -2.5402  -24.9121  -55.6006 H         1 UNK         0.0600 
    228 H228       -1.0296  -24.0337  -55.7827 H         1 UNK         0.0600 
    229 H229       -1.7084  -24.2778  -54.1834 H         1 UNK         0.0600 
    230 H230       -2.9323  -21.5996  -53.0962 H         1 UNK         0.3000 
    231 H231       -0.6161  -19.7592  -53.3988 H         1 UNK         0.0600 
    232 H232       -2.3249  -20.6068  -51.0094 H         1 UNK         0.0600 
    233 H233       -0.6492  -21.0463  -51.3326 H         1 UNK         0.0600 
    234 H234       -1.0569  -19.3883  -50.9391 H         1 UNK         0.0600 
    235 H235       -3.9620  -19.7887  -53.9024 H         1 UNK         0.3000 
    236 H236       -5.5650  -18.3505  -54.3080 H         1 UNK         0.0600 
    237 H237       -3.9419  -17.4021  -55.9537 H         1 UNK         0.0600 
    238 H238       -5.0285  -16.1705  -55.3322 H         1 UNK         0.0600 
    239 H239       -3.3740  -16.2520  -54.7434 H         1 UNK         0.0600 
    240 H240       -5.2342  -18.8794  -51.6781 H         1 UNK         0.3000 
    241 H241       -5.0824  -16.5836  -49.9964 H         1 UNK         0.0600 
    242 H242       -6.7303  -15.3129  -48.9281 H         1 UNK         0.3800 
    243 H243       -8.3784  -15.3435  -49.4820 H         1 UNK         0.3800 
    244 H244       -5.9118  -18.0711  -48.1865 H         1 UNK         0.0800 
    245 H245       -6.3911  -19.2708  -49.3567 H         1 UNK         0.0800 
    246 H246       -3.2394  -18.3544  -46.9838 H         1 UNK         0.0800 
    247 H247       -3.5355  -17.0787  -48.1368 H         1 UNK         0.0800 
@<TRIPOS>BOND
     1    1    2 1    
     2    1  127 1    
     3    1  128 1    
     4    1  129 1    
     5    2    3 2    
     6    2    4 am   BACKBONE|DICT|INTERRES
     7    4    5 1    
     8    4  130 1    
     9    5    6 1    
    10    5   65 1    
    11    5  131 1    
    12    6    7 1    
    13    6  132 1    
    14    6  133 1    
    15    7    8 1    
    16    8    9 1    
    17    8  134 1    
    18    8  135 1    
    19    9   10 ar   
    20    9   14 ar   
    21   10   11 ar   
    22   10  136 1    
    23   11   12 ar   
    24   11  126 1    
    25   12   13 ar   
    26   12  137 1    
    27   13   14 ar   
    28   13   15 1    
    29   14  138 1    
    30   15   16 1    
    31   15  139 1    
    32   15  140 1    
    33   16   17 1    
    34   17   18 1    
    35   17  141 1    
    36   17  142 1    
    37   18   19 1    
    38   18   67 1    
    39   18  143 1    
    40   19   20 am   BACKBONE|DICT|INTERRES
    41   19  144 1    
    42   20   21 2    
    43   20   22 1    
    44   22   23 1    
    45   22   24 1    
    46   22  145 1    
    47   23  146 1    
    48   23  147 1    
    49   23  148 1    
    50   24   25 am   BACKBONE|DICT|INTERRES
    51   24  149 1    
    52   25   26 2    
    53   25   27 1    
    54   27   28 1    
    55   27   29 1    
    56   27  150 1    
    57   28  151 1    
    58   28  152 1    
    59   28  153 1    
    60   29   30 am   BACKBONE|DICT|INTERRES
    61   29  154 1    
    62   30   31 2    
    63   30   32 1    
    64   32   33 1    
    65   32   34 1    
    66   32  155 1    
    67   33  156 1    
    68   33  157 1    
    69   33  158 1    
    70   34   35 am   BACKBONE|DICT|INTERRES
    71   34  159 1    
    72   35   36 2    
    73   35   37 1    
    74   37   38 1    
    75   37   39 1    
    76   37  160 1    
    77   38  161 1    
    78   38  162 1    
    79   38  163 1    
    80   39   40 am   BACKBONE|DICT|INTERRES
    81   39  164 1    
    82   40   41 2    
    83   40   42 1    
    84   42   43 1    
    85   42   44 1    
    86   42  165 1    
    87   43  166 1    
    88   43  167 1    
    89   43  168 1    
    90   44   45 am   BACKBONE|DICT|INTERRES
    91   44  169 1    
    92   45   46 2    
    93   45   47 1    
    94   47   48 1    
    95   47   49 1    
    96   47  170 1    
    97   48  171 1    
    98   48  172 1    
    99   48  173 1    
   100   49   50 am   BACKBONE|DICT|INTERRES
   101   49  174 1    
   102   50   51 2    
   103   50   52 1    
   104   52   53 1    
   105   52   54 1    
   106   52  175 1    
   107   53  176 1    
   108   53  177 1    
   109   53  178 1    
   110   54   55 am   BACKBONE|DICT|INTERRES
   111   54  179 1    
   112   55   56 2    
   113   55   57 1    
   114   57   58 1    
   115   57   59 1    
   116   57  180 1    
   117   58  181 1    
   118   58  182 1    
   119   58  183 1    
   120   59   60 am   BACKBONE|DICT|INTERRES
   121   59  184 1    
   122   60   61 2    
   123   60   62 1    
   124   62   63 1    
   125   62   64 1    
   126   62  185 1    
   127   63  186 1    
   128   63  187 1    
   129   63  188 1    
   130   64   65 am   BACKBONE|DICT|INTERRES
   131   64  189 1    
   132   65   66 2    
   133   67   68 2    
   134   67   69 am   BACKBONE|DICT|INTERRES
   135   69   70 1    
   136   69  190 1    
   137   70   71 1    
   138   70   72 1    
   139   70  191 1    
   140   71  192 1    
   141   71  193 1    
   142   71  194 1    
   143   72   73 2    
   144   72   74 am   BACKBONE|DICT|INTERRES
   145   74   75 1    
   146   74  195 1    
   147   75   76 1    
   148   75   77 1    
   149   75  196 1    
   150   76  197 1    
   151   76  198 1    
   152   76  199 1    
   153   77   78 2    
   154   77   79 am   BACKBONE|DICT|INTERRES
   155   79   80 1    
   156   79  200 1    
   157   80   81 1    
   158   80   82 1    
   159   80  201 1    
   160   81  202 1    
   161   81  203 1    
   162   81  204 1    
   163   82   83 2    
   164   82   84 am   BACKBONE|DICT|INTERRES
   165   84   85 1    
   166   84  205 1    
   167   85   86 1    
   168   85   87 1    
   169   85  206 1    
   170   86  207 1    
   171   86  208 1    
   172   86  209 1    
   173   87   88 2    
   174   87   89 am   BACKBONE|DICT|INTERRES
   175   89   90 1    
   176   89  210 1    
   177   90   91 1    
   178   90   92 1    
   179   90  211 1    
   180   91  212 1    
   181   91  213 1    
   182   91  214 1    
   183   92   93 2    
   184   92   94 am   BACKBONE|DICT|INTERRES
   185   94   95 1    
   186   94  215 1    
   187   95   96 1    
   188   95   97 1    
   189   95  216 1    
   190   96  217 1    
   191   96  218 1    
   192   96  219 1    
   193   97   98 2    
   194   97   99 am   BACKBONE|DICT|INTERRES
   195   99  100 1    
   196   99  220 1    
   197  100  101 1    
   198  100  102 1    
   199  100  221 1    
   200  101  222 1    
   201  101  223 1    
   202  101  224 1    
   203  102  103 2    
   204  102  104 am   BACKBONE|DICT|INTERRES
   205  104  105 1    
   206  104  225 1    
   207  105  106 1    
   208  105  107 1    
   209  105  226 1    
   210  106  227 1    
   211  106  228 1    
   212  106  229 1    
   213  107  108 2    
   214  107  109 am   BACKBONE|DICT|INTERRES
   215  109  110 1    
   216  109  230 1    
   217  110  111 1    
   218  110  112 1    
   219  110  231 1    
   220  111  232 1    
   221  111  233 1    
   222  111  234 1    
   223  112  113 2    
   224  112  114 am   BACKBONE|DICT|INTERRES
   225  114  115 1    
   226  114  235 1    
   227  115  116 1    
   228  115  117 1    
   229  115  236 1    
   230  116  237 1    
   231  116  238 1    
   232  116  239 1    
   233  117  118 2    
   234  117  119 am   BACKBONE|DICT|INTERRES
   235  119  120 1    
   236  119  240 1    
   237  120  121 1    
   238  120  124 1    
   239  120  241 1    
   240  121  122 am   BACKBONE|DICT|INTERRES
   241  121  123 2    
   242  122  242 1    
   243  122  243 1    
   244  124  125 1    
   245  124  244 1    
   246  124  245 1    
   247  125  126 1    
   248  126  246 1    
   249  126  247 1    
@<TRIPOS>SUBSTRUCTURE
     1 UNK         1 GROUP             0       ****    0 ROOT    
