@<TRIPOS>MOLECULE
3R540
247   249    1
SMALL
USER_CHARGES


@<TRIPOS>ATOM
      1 CA          1.7541  -15.6788  -51.6873 C.3       0 UNK        -0.1800 
      2 C           2.8516  -14.8458  -51.0399 C.2       0 UNK         0.5000 
      3 O           4.0174  -14.9703  -51.4161 O.2       0 UNK        -0.5000 
      4 N           2.4847  -13.9860  -50.0858 N.am      1 UNK        -0.5000 
      5 CA          3.3713  -13.0471  -49.4039 C.3       1 UNK         0.1400 
      6 C6          4.2574  -13.7230  -48.3172 C.3       23 UNK        -0.0398 
      7 S7          3.4054  -14.1622  -46.7582 S.3       23 UNK        -0.2404 
      8 C8          3.6062  -15.9717  -46.6921 C.3       23 UNK        -0.0205 
      9 C9          2.6883  -16.7337  -47.6430 C.ar      23 UNK        -0.0193 
     10 C10         1.3428  -16.3792  -47.7907 C.ar      23 UNK        -0.1150 
     11 C11         0.4915  -17.0981  -48.6345 C.ar      23 UNK        -0.0193 
     12 C12         1.0089  -18.1959  -49.3332 C.ar      23 UNK        -0.1150 
     13 C13         2.3475  -18.5682  -49.1931 C.ar      23 UNK        -0.0193 
     14 C14         3.1830  -17.8319  -48.3506 C.ar      23 UNK        -0.1150 
     15 C15         2.8852  -19.7695  -49.9556 C.3       23 UNK        -0.0205 
     16 S16         3.0545  -21.2342  -48.8882 S.3       23 UNK        -0.2404 
     17 C17         1.3585  -21.4168  -48.2360 C.3       23 UNK        -0.0398 
     18 CA          1.0416  -22.8676  -47.8104 C.3       11 UNK         0.1400 
     19 N           1.9906  -23.3838  -46.8201 N.am      11 UNK        -0.5000 
     20 C           2.1303  -24.6763  -46.5003 C.2       10 UNK         0.5000 
     21 O           1.4652  -25.5813  -47.0024 O.2       10 UNK        -0.5000 
     22 CA          3.1617  -25.0040  -45.4060 C.3       10 UNK         0.1400 
     23 CB          4.5806  -25.0441  -45.9928 C.3       10 UNK        -0.1800 
     24 N           3.1209  -24.0516  -44.2952 N.am      10 UNK        -0.5000 
     25 C           2.0857  -23.9199  -43.4545 C.2       9 UNK         0.5000 
     26 O           1.0651  -24.6041  -43.5139 O.2       9 UNK        -0.5000 
     27 CA          2.1877  -22.8053  -42.3981 C.3       9 UNK         0.1400 
     28 CB          2.9600  -23.2987  -41.1655 C.3       9 UNK        -0.1800 
     29 N           2.7996  -21.5685  -42.8941 N.am      9 UNK        -0.5000 
     30 C           2.3258  -20.8367  -43.9105 C.2       8 UNK         0.5000 
     31 O           1.3756  -21.1770  -44.6197 O.2       8 UNK        -0.5000 
     32 CA          3.0489  -19.5144  -44.2067 C.3       8 UNK         0.1400 
     33 CB          4.0436  -19.6899  -45.3623 C.3       8 UNK        -0.1800 
     34 N           2.0664  -18.4965  -44.5687 N.am      8 UNK        -0.5000 
     35 C           1.3437  -17.8038  -43.6803 C.2       7 UNK         0.5000 
     36 O           1.5589  -17.8318  -42.4660 O.2       7 UNK        -0.5000 
     37 CA          0.2205  -16.9275  -44.2732 C.3       7 UNK         0.1400 
     38 CB         -0.8187  -17.7714  -45.0397 C.3       7 UNK        -0.1800 
     39 N          -0.4313  -16.0516  -43.2951 N.am      7 UNK        -0.5000 
     40 C          -1.1881  -16.3838  -42.2370 C.2       6 UNK         0.5000 
     41 O          -1.5218  -17.5329  -41.9459 O.2       6 UNK        -0.5000 
     42 CA         -1.6755  -15.2152  -41.3625 C.3       6 UNK         0.1400 
     43 CB         -0.5452  -14.7148  -40.4483 C.3       6 UNK        -0.1800 
     44 N          -2.1419  -14.1088  -42.1971 N.am      6 UNK        -0.5000 
     45 C          -3.4262  -13.7916  -42.4104 C.2       5 UNK         0.5000 
     46 O          -4.3722  -14.3282  -41.8324 O.2       5 UNK        -0.5000 
     47 CA         -3.7077  -12.6974  -43.4631 C.3       5 UNK         0.1400 
     48 CB         -3.7896  -11.3162  -42.7956 C.3       5 UNK        -0.1800 
     49 N          -2.7032  -12.6537  -44.5283 N.am      5 UNK        -0.5000 
     50 C          -2.4808  -13.6412  -45.4068 C.2       4 UNK         0.5000 
     51 O          -3.1954  -14.6390  -45.5009 O.2       4 UNK        -0.5000 
     52 CA         -1.2399  -13.5245  -46.3154 C.3       4 UNK         0.1400 
     53 CB         -1.6623  -13.1918  -47.7541 C.3       4 UNK        -0.1800 
     54 N          -0.2051  -12.5730  -45.8851 N.am      4 UNK        -0.5000 
     55 C           0.4438  -12.5758  -44.7103 C.2       3 UNK         0.5000 
     56 O           0.1888  -13.3739  -43.8073 O.2       3 UNK        -0.5000 
     57 CA          1.5450  -11.5169  -44.4947 C.3       3 UNK         0.1400 
     58 CB          2.6688  -12.0407  -43.5824 C.3       3 UNK        -0.1800 
     59 N           2.1360  -11.0601  -45.7535 N.am      3 UNK        -0.5000 
     60 C           1.7764   -9.9642  -46.4347 C.2       2 UNK         0.5000 
     61 O           0.8717   -9.2089  -46.0792 O.2       2 UNK        -0.5000 
     62 CA          2.5456   -9.6645  -47.7395 C.3       2 UNK         0.1400 
     63 CB          3.6138   -8.5877  -47.4940 C.3       2 UNK        -0.1800 
     64 N           3.1875  -10.8419  -48.3350 N.am      2 UNK        -0.5000 
     65 C           2.5237  -11.8699  -48.8801 C.2       1 UNK         0.5000 
     66 O           1.2926  -11.9155  -48.9543 O.2       1 UNK        -0.5000 
     67 C          -0.4084  -22.9806  -47.3033 C.2       11 UNK         0.5000 
     68 O          -1.2980  -23.3196  -48.0825 O.2       11 UNK        -0.5000 
     69 N          -0.6101  -22.7325  -46.0013 N.am      12 UNK        -0.5000 
     70 CA         -1.8824  -22.9123  -45.3072 C.3       12 UNK         0.1400 
     71 CB         -1.7929  -22.3038  -43.9002 C.3       12 UNK        -0.1800 
     72 C          -2.3146  -24.3890  -45.2521 C.2       12 UNK         0.5000 
     73 O          -3.4779  -24.6851  -45.5235 O.2       12 UNK        -0.5000 
     74 N          -1.3688  -25.2922  -44.9519 N.am      13 UNK        -0.5000 
     75 CA         -1.5733  -26.7440  -44.9424 C.3       13 UNK         0.1400 
     76 CB         -0.3453  -27.4349  -44.3309 C.3       13 UNK        -0.1800 
     77 C          -1.8799  -27.3189  -46.3384 C.2       13 UNK         0.5000 
     78 O          -2.7159  -28.2152  -46.4563 O.2       13 UNK        -0.5000 
     79 N          -1.2282  -26.7696  -47.3726 N.am      14 UNK        -0.5000 
     80 CA         -1.4741  -27.0828  -48.7829 C.3       14 UNK         0.1400 
     81 CB         -0.2774  -26.5949  -49.6146 C.3       14 UNK        -0.1800 
     82 C          -2.7857  -26.4808  -49.3306 C.2       14 UNK         0.5000 
     83 O          -3.1846  -26.8255  -50.4440 O.2       14 UNK        -0.5000 
     84 N          -3.4123  -25.5751  -48.5662 N.am      15 UNK        -0.5000 
     85 CA         -4.6352  -24.8080  -48.8250 C.3       15 UNK         0.1400 
     86 CB         -5.8471  -25.7273  -49.0660 C.3       15 UNK        -0.1800 
     87 C          -4.5066  -23.7560  -49.9411 C.2       15 UNK         0.5000 
     88 O          -5.0141  -22.6470  -49.7722 O.2       15 UNK        -0.5000 
     89 N          -3.8504  -24.1143  -51.0539 N.am      16 UNK        -0.5000 
     90 CA         -3.5980  -23.2955  -52.2460 C.3       16 UNK         0.1400 
     91 CB         -2.6265  -22.1429  -51.9119 C.3       16 UNK        -0.1800 
     92 C          -4.8911  -22.7970  -52.9273 C.2       16 UNK         0.5000 
     93 O          -4.8925  -21.7234  -53.5310 O.2       16 UNK        -0.5000 
     94 N          -5.9776  -23.5740  -52.8041 N.am      17 UNK        -0.5000 
     95 CA         -7.3426  -23.2179  -53.2087 C.3       17 UNK         0.1400 
     96 CB         -8.3043  -24.3098  -52.7170 C.3       17 UNK        -0.1800 
     97 C          -7.5251  -22.9724  -54.7184 C.2       17 UNK         0.5000 
     98 O          -8.4313  -22.2359  -55.1081 O.2       17 UNK        -0.5000 
     99 N          -6.6508  -23.5721  -55.5359 N.am      18 UNK        -0.5000 
    100 CA        -6.5759  -23.3597  -56.9823 C.3       18 UNK         0.1400 
    101 CB        -5.8286  -24.5473  -57.6102 C.3       18 UNK        -0.1800 
    102 C         -5.8966  -22.0280  -57.3699 C.2       18 UNK         0.5000 
    103 O         -5.9551  -21.6469  -58.5401 O.2       18 UNK        -0.5000 
    104 N         -5.2512  -21.3610  -56.4048 N.am      19 UNK        -0.5000 
    105 CA        -4.5081  -20.1204  -56.5741 C.3       19 UNK         0.1400 
    106 CB        -3.0000  -20.4293  -56.4624 C.3       19 UNK        -0.1800 
    107 C         -5.0232  -19.0858  -55.5564 C.2       19 UNK         0.5000 
    108 O         -6.1772  -18.6656  -55.6551 O.2       19 UNK        -0.5000 
    109 N         -4.1615  -18.6697  -54.6202 N.am      20 UNK        -0.5000 
    110 CA        -4.4012  -17.5848  -53.6678 C.3       20 UNK         0.1400 
    111 CB        -3.0419  -17.1055  -53.1363 C.3       20 UNK        -0.1800 
    112 C         -5.3525  -17.9332  -52.5043 C.2       20 UNK         0.5000 
    113 O         -5.8494  -17.0101  -51.8576 O.2       20 UNK        -0.5000 
    114 N         -5.5899  -19.2308  -52.2546 N.am      21 UNK        -0.5000 
    115 CA        -6.4437  -19.7817  -51.1926 C.3       21 UNK         0.1400 
    116 CB        -7.9284  -19.4630  -51.4648 C.3       21 UNK        -0.1800 
    117 C         -5.9787  -19.3832  -49.7746 C.2       21 UNK         0.5000 
    118 O         -6.7877  -18.9690  -48.9417 O.2       21 UNK        -0.5000 
    119 N         -4.6665  -19.5033  -49.5430 N.am      22 UNK        -0.5000 
    120 CA        -3.9812  -19.1645  -48.2845 C.3       22 UNK         0.1400 
    121 C         -4.2843  -20.1129  -47.0877 C.2       22 UNK         0.5000 
    122 N         -4.8565  -21.2915  -47.2943 N.am      22 UNK        -0.7600 
    123 O         -4.0034  -19.7650  -45.9450 O.2       22 UNK        -0.5000 
    124 C124       -2.4536  -19.0236  -48.5012 C.3       23 UNK        -0.0398 
    125 S125       -2.0664  -17.7248  -49.7240 S.3       23 UNK        -0.2404 
    126 C126       -0.9553  -16.6220  -48.7857 C.3       23 UNK        -0.0205 
    127 H127        2.0077  -16.7373  -51.6374 H         1 UNK         0.0600 
    128 H128        1.6440  -15.4043  -52.7362 H         1 UNK         0.0600 
    129 H129        0.7921  -15.5356  -51.1952 H         1 UNK         0.0600 
    130 H130        1.5110  -13.8717  -49.8343 H         1 UNK         0.3000 
    131 H131        4.0349  -12.6212  -50.1596 H         1 UNK         0.0600 
    132 H132        5.0797  -13.0562  -48.0552 H         1 UNK         0.0800 
    133 H133        4.7377  -14.6103  -48.7313 H         1 UNK         0.0800 
    134 H134        4.6523  -16.2188  -46.8794 H         1 UNK         0.0800 
    135 H135        3.3962  -16.2977  -45.6740 H         1 UNK         0.0800 
    136 H136        0.9614  -15.5241  -47.2554 H         1 UNK         0.1150 
    137 H137        0.3832  -18.7662  -50.0027 H         1 UNK         0.1150 
    138 H138        4.2172  -18.1260  -48.2390 H         1 UNK         0.1150 
    139 H139        2.2385  -20.0125  -50.8001 H         1 UNK         0.0800 
    140 H140        3.8600  -19.5244  -50.3794 H         1 UNK         0.0800 
    141 H141        1.2367  -20.7285  -47.3974 H         1 UNK         0.0800 
    142 H142        0.6534  -21.0970  -49.0053 H         1 UNK         0.0800 
    143 H143        1.1205  -23.4965  -48.6999 H         1 UNK         0.0600 
    144 H144        2.5468  -22.6971  -46.3334 H         1 UNK         0.3000 
    145 H145        2.9264  -25.9953  -45.0127 H         1 UNK         0.0600 
    146 H146        5.3092  -25.3498  -45.2417 H         1 UNK         0.0600 
    147 H147        4.6423  -25.7593  -46.8141 H         1 UNK         0.0600 
    148 H148        4.8856  -24.0714  -46.3810 H         1 UNK         0.0600 
    149 H149        3.9184  -23.4442  -44.1789 H         1 UNK         0.3000 
    150 H150        1.1707  -22.5619  -42.0841 H         1 UNK         0.0600 
    151 H151        2.5143  -24.2101  -40.7645 H         1 UNK         0.0600 
    152 H152        2.9475  -22.5554  -40.3682 H         1 UNK         0.0600 
    153 H153        4.0013  -23.5196  -41.4033 H         1 UNK         0.0600 
    154 H154        3.5932  -21.2240  -42.3733 H         1 UNK         0.3000 
    155 H155        3.6002  -19.1940  -43.3199 H         1 UNK         0.0600 
    156 H156        4.5787  -18.7626  -45.5661 H         1 UNK         0.0600 
    157 H157        3.5413  -19.9941  -46.2796 H         1 UNK         0.0600 
    158 H158        4.7891  -20.4506  -45.1276 H         1 UNK         0.0600 
    159 H159        1.8155  -18.4547  -45.5454 H         1 UNK         0.3000 
    160 H160        0.6991  -16.2525  -44.9824 H         1 UNK         0.0600 
    161 H161       -1.2695  -18.5365  -44.4069 H         1 UNK         0.0600 
    162 H162       -0.3612  -18.2843  -45.8856 H         1 UNK         0.0600 
    163 H163       -1.6223  -17.1487  -45.4327 H         1 UNK         0.0600 
    164 H164       -0.1951  -15.0677  -43.4030 H         1 UNK         0.3000 
    165 H165       -2.4837  -15.5846  -40.7278 H         1 UNK         0.0600 
    166 H166        0.2949  -14.3197  -41.0213 H         1 UNK         0.0600 
    167 H167       -0.8980  -13.9249  -39.7850 H         1 UNK         0.0600 
    168 H168       -0.1650  -15.5221  -39.8213 H         1 UNK         0.0600 
    169 H169       -1.4309  -13.6355  -42.7446 H         1 UNK         0.3000 
    170 H170       -4.6753  -12.9170  -43.9192 H         1 UNK         0.0600 
    171 H171       -4.5476  -11.3063  -42.0112 H         1 UNK         0.0600 
    172 H172       -2.8406  -11.0330  -42.3385 H         1 UNK         0.0600 
    173 H173       -4.0598  -10.5444  -43.5166 H         1 UNK         0.0600 
    174 H174       -2.0755  -11.8637  -44.5306 H         1 UNK         0.3000 
    175 H175       -0.7826  -14.5134  -46.3150 H         1 UNK         0.0600 
    176 H176       -2.0223  -12.1660  -47.8396 H         1 UNK         0.0600 
    177 H177       -0.8314  -13.3165  -48.4466 H         1 UNK         0.0600 
    178 H178       -2.4622  -13.8502  -48.0961 H         1 UNK         0.0600 
    179 H179        0.0786  -11.8902  -46.5739 H         1 UNK         0.3000 
    180 H180        1.0737  -10.6749  -43.9841 H         1 UNK         0.0600 
    181 H181        3.1420  -12.9321  -43.9948 H         1 UNK         0.0600 
    182 H182        2.2858  -12.3007  -42.5947 H         1 UNK         0.0600 
    183 H183        3.4426  -11.2867  -43.4378 H         1 UNK         0.0600 
    184 H184        2.8582  -11.6498  -46.1427 H         1 UNK         0.3000 
    185 H185        1.8245   -9.2709  -48.4591 H         1 UNK         0.0600 
    186 H186        4.1114   -8.3059  -48.4221 H         1 UNK         0.0600 
    187 H187        3.1687   -7.6825  -47.0786 H         1 UNK         0.0600 
    188 H188        4.3763   -8.9297  -46.7929 H         1 UNK         0.0600 
    189 H189        4.1969  -10.8605  -48.3097 H         1 UNK         0.3000 
    190 H190        0.1683  -22.3913  -45.4430 H         1 UNK         0.3000 
    191 H191       -2.6433  -22.3641  -45.8639 H         1 UNK         0.0600 
    192 H192       -2.7452  -22.3924  -43.3763 H         1 UNK         0.0600 
    193 H193       -1.5446  -21.2430  -43.9467 H         1 UNK         0.0600 
    194 H194       -1.0349  -22.7985  -43.2931 H         1 UNK         0.0600 
    195 H195       -0.4457  -24.9656  -44.6800 H         1 UNK         0.3000 
    196 H196       -2.4332  -26.9547  -44.3033 H         1 UNK         0.0600 
    197 H197       -0.4760  -28.5175  -44.3070 H         1 UNK         0.0600 
    198 H198       -0.1787  -27.1057  -43.3052 H         1 UNK         0.0600 
    199 H199        0.5602  -27.2250  -44.9009 H         1 UNK         0.0600 
    200 H200       -0.4976  -26.0911  -47.1827 H         1 UNK         0.3000 
    201 H201       -1.5442  -28.1671  -48.8893 H         1 UNK         0.0600 
    202 H202        0.6514  -27.0557  -49.2777 H         1 UNK         0.0600 
    203 H203       -0.1585  -25.5130  -49.5481 H         1 UNK         0.0600 
    204 H204       -0.4005  -26.8478  -50.6683 H         1 UNK         0.0600 
    205 H205       -2.9576  -25.3345  -47.6950 H         1 UNK         0.3000 
    206 H206       -4.8267  -24.2562  -47.9040 H         1 UNK         0.0600 
    207 H207       -5.9777  -26.4284  -48.2417 H         1 UNK         0.0600 
    208 H208       -6.7655  -25.1442  -49.1455 H         1 UNK         0.0600 
    209 H209       -5.7498  -26.3045  -49.9857 H         1 UNK         0.0600 
    210 H210       -3.5025  -25.0693  -51.0837 H         1 UNK         0.3000 
    211 H211       -3.1052  -23.9469  -52.9686 H         1 UNK         0.0600 
    212 H212       -3.0788  -21.4124  -51.2416 H         1 UNK         0.0600 
    213 H213       -2.3193  -21.6127  -52.8140 H         1 UNK         0.0600 
    214 H214       -1.7219  -22.5177  -51.4326 H         1 UNK         0.0600 
    215 H215       -5.8756  -24.4413  -52.2981 H         1 UNK         0.3000 
    216 H216       -7.6035  -22.2873  -52.7027 H         1 UNK         0.0600 
    217 H217       -9.3367  -24.0663  -52.9714 H         1 UNK         0.0600 
    218 H218       -8.2560  -24.4193  -51.6332 H         1 UNK         0.0600 
    219 H219       -8.0751  -25.2779  -53.1640 H         1 UNK         0.0600 
    220 H220       -5.9436  -24.1645  -55.1264 H         1 UNK         0.3000 
    221 H221       -7.5895  -23.3408  -57.3883 H         1 UNK         0.0600 
    222 H222       -4.8033  -24.6161  -57.2446 H         1 UNK         0.0600 
    223 H223       -6.3291  -25.4902  -57.3890 H         1 UNK         0.0600 
    224 H224       -5.7841  -24.4527  -58.6960 H         1 UNK         0.0600 
    225 H225       -5.2945  -21.7053  -55.4509 H         1 UNK         0.3000 
    226 H226       -4.6925  -19.6932  -57.5617 H         1 UNK         0.0600 
    227 H227       -2.6895  -21.1213  -57.2454 H         1 UNK         0.0600 
    228 H228       -2.3991  -19.5266  -56.5802 H         1 UNK         0.0600 
    229 H229       -2.7461  -20.8857  -55.5045 H         1 UNK         0.0600 
    230 H230       -3.2438  -19.0891  -54.5981 H         1 UNK         0.3000 
    231 H231       -4.8590  -16.7544  -54.2097 H         1 UNK         0.0600 
    232 H232       -3.1623  -16.3106  -52.3989 H         1 UNK         0.0600 
    233 H233       -2.4219  -16.7085  -53.9402 H         1 UNK         0.0600 
    234 H234       -2.4915  -17.9172  -52.6600 H         1 UNK         0.0600 
    235 H235       -5.1541  -19.9231  -52.8574 H         1 UNK         0.3000 
    236 H236       -6.3356  -20.8638  -51.2428 H         1 UNK         0.0600 
    237 H237       -8.2219  -19.7811  -52.4654 H         1 UNK         0.0600 
    238 H238       -8.5744  -19.9825  -50.7563 H         1 UNK         0.0600 
    239 H239       -8.1379  -18.3966  -51.3775 H         1 UNK         0.0600 
    240 H240       -4.0796  -19.8454  -50.2876 H         1 UNK         0.3000 
    241 H241       -4.3558  -18.1860  -47.9773 H         1 UNK         0.0600 
    242 H242       -5.0408  -21.6175  -48.2400 H         1 UNK         0.3800 
    243 H243       -5.0728  -21.8801  -46.5075 H         1 UNK         0.3800 
    244 H244       -1.9526  -18.7904  -47.5618 H         1 UNK         0.0800 
    245 H245       -2.0268  -19.9671  -48.8461 H         1 UNK         0.0800 
    246 H246       -0.9366  -15.6626  -49.3028 H         1 UNK         0.0800 
    247 H247       -1.3907  -16.4332  -47.8040 H         1 UNK         0.0800 
@<TRIPOS>BOND
     1    1    2 1    
     2    1  127 1    
     3    1  128 1    
     4    1  129 1    
     5    2    3 2    
     6    2    4 am   BACKBONE|DICT|INTERRES
     7    4    5 1    
     8    4  130 1    
     9    5    6 1    
    10    5   65 1    
    11    5  131 1    
    12    6    7 1    
    13    6  132 1    
    14    6  133 1    
    15    7    8 1    
    16    8    9 1    
    17    8  134 1    
    18    8  135 1    
    19    9   10 ar   
    20    9   14 ar   
    21   10   11 ar   
    22   10  136 1    
    23   11   12 ar   
    24   11  126 1    
    25   12   13 ar   
    26   12  137 1    
    27   13   14 ar   
    28   13   15 1    
    29   14  138 1    
    30   15   16 1    
    31   15  139 1    
    32   15  140 1    
    33   16   17 1    
    34   17   18 1    
    35   17  141 1    
    36   17  142 1    
    37   18   19 1    
    38   18   67 1    
    39   18  143 1    
    40   19   20 am   BACKBONE|DICT|INTERRES
    41   19  144 1    
    42   20   21 2    
    43   20   22 1    
    44   22   23 1    
    45   22   24 1    
    46   22  145 1    
    47   23  146 1    
    48   23  147 1    
    49   23  148 1    
    50   24   25 am   BACKBONE|DICT|INTERRES
    51   24  149 1    
    52   25   26 2    
    53   25   27 1    
    54   27   28 1    
    55   27   29 1    
    56   27  150 1    
    57   28  151 1    
    58   28  152 1    
    59   28  153 1    
    60   29   30 am   BACKBONE|DICT|INTERRES
    61   29  154 1    
    62   30   31 2    
    63   30   32 1    
    64   32   33 1    
    65   32   34 1    
    66   32  155 1    
    67   33  156 1    
    68   33  157 1    
    69   33  158 1    
    70   34   35 am   BACKBONE|DICT|INTERRES
    71   34  159 1    
    72   35   36 2    
    73   35   37 1    
    74   37   38 1    
    75   37   39 1    
    76   37  160 1    
    77   38  161 1    
    78   38  162 1    
    79   38  163 1    
    80   39   40 am   BACKBONE|DICT|INTERRES
    81   39  164 1    
    82   40   41 2    
    83   40   42 1    
    84   42   43 1    
    85   42   44 1    
    86   42  165 1    
    87   43  166 1    
    88   43  167 1    
    89   43  168 1    
    90   44   45 am   BACKBONE|DICT|INTERRES
    91   44  169 1    
    92   45   46 2    
    93   45   47 1    
    94   47   48 1    
    95   47   49 1    
    96   47  170 1    
    97   48  171 1    
    98   48  172 1    
    99   48  173 1    
   100   49   50 am   BACKBONE|DICT|INTERRES
   101   49  174 1    
   102   50   51 2    
   103   50   52 1    
   104   52   53 1    
   105   52   54 1    
   106   52  175 1    
   107   53  176 1    
   108   53  177 1    
   109   53  178 1    
   110   54   55 am   BACKBONE|DICT|INTERRES
   111   54  179 1    
   112   55   56 2    
   113   55   57 1    
   114   57   58 1    
   115   57   59 1    
   116   57  180 1    
   117   58  181 1    
   118   58  182 1    
   119   58  183 1    
   120   59   60 am   BACKBONE|DICT|INTERRES
   121   59  184 1    
   122   60   61 2    
   123   60   62 1    
   124   62   63 1    
   125   62   64 1    
   126   62  185 1    
   127   63  186 1    
   128   63  187 1    
   129   63  188 1    
   130   64   65 am   BACKBONE|DICT|INTERRES
   131   64  189 1    
   132   65   66 2    
   133   67   68 2    
   134   67   69 am   BACKBONE|DICT|INTERRES
   135   69   70 1    
   136   69  190 1    
   137   70   71 1    
   138   70   72 1    
   139   70  191 1    
   140   71  192 1    
   141   71  193 1    
   142   71  194 1    
   143   72   73 2    
   144   72   74 am   BACKBONE|DICT|INTERRES
   145   74   75 1    
   146   74  195 1    
   147   75   76 1    
   148   75   77 1    
   149   75  196 1    
   150   76  197 1    
   151   76  198 1    
   152   76  199 1    
   153   77   78 2    
   154   77   79 am   BACKBONE|DICT|INTERRES
   155   79   80 1    
   156   79  200 1    
   157   80   81 1    
   158   80   82 1    
   159   80  201 1    
   160   81  202 1    
   161   81  203 1    
   162   81  204 1    
   163   82   83 2    
   164   82   84 am   BACKBONE|DICT|INTERRES
   165   84   85 1    
   166   84  205 1    
   167   85   86 1    
   168   85   87 1    
   169   85  206 1    
   170   86  207 1    
   171   86  208 1    
   172   86  209 1    
   173   87   88 2    
   174   87   89 am   BACKBONE|DICT|INTERRES
   175   89   90 1    
   176   89  210 1    
   177   90   91 1    
   178   90   92 1    
   179   90  211 1    
   180   91  212 1    
   181   91  213 1    
   182   91  214 1    
   183   92   93 2    
   184   92   94 am   BACKBONE|DICT|INTERRES
   185   94   95 1    
   186   94  215 1    
   187   95   96 1    
   188   95   97 1    
   189   95  216 1    
   190   96  217 1    
   191   96  218 1    
   192   96  219 1    
   193   97   98 2    
   194   97   99 am   BACKBONE|DICT|INTERRES
   195   99  100 1    
   196   99  220 1    
   197  100  101 1    
   198  100  102 1    
   199  100  221 1    
   200  101  222 1    
   201  101  223 1    
   202  101  224 1    
   203  102  103 2    
   204  102  104 am   BACKBONE|DICT|INTERRES
   205  104  105 1    
   206  104  225 1    
   207  105  106 1    
   208  105  107 1    
   209  105  226 1    
   210  106  227 1    
   211  106  228 1    
   212  106  229 1    
   213  107  108 2    
   214  107  109 am   BACKBONE|DICT|INTERRES
   215  109  110 1    
   216  109  230 1    
   217  110  111 1    
   218  110  112 1    
   219  110  231 1    
   220  111  232 1    
   221  111  233 1    
   222  111  234 1    
   223  112  113 2    
   224  112  114 am   BACKBONE|DICT|INTERRES
   225  114  115 1    
   226  114  235 1    
   227  115  116 1    
   228  115  117 1    
   229  115  236 1    
   230  116  237 1    
   231  116  238 1    
   232  116  239 1    
   233  117  118 2    
   234  117  119 am   BACKBONE|DICT|INTERRES
   235  119  120 1    
   236  119  240 1    
   237  120  121 1    
   238  120  124 1    
   239  120  241 1    
   240  121  122 am   BACKBONE|DICT|INTERRES
   241  121  123 2    
   242  122  242 1    
   243  122  243 1    
   244  124  125 1    
   245  124  244 1    
   246  124  245 1    
   247  125  126 1    
   248  126  246 1    
   249  126  247 1    
@<TRIPOS>SUBSTRUCTURE
     1 UNK         1 GROUP             0       ****    0 ROOT    
