@<TRIPOS>MOLECULE
3R540
247   249    1
SMALL
USER_CHARGES


@<TRIPOS>ATOM
      1 CA         -4.8849  -18.4021  -45.6466 C.3       0 UNK        -0.1800 
      2 C          -3.9901  -17.1880  -45.4425 C.2       0 UNK         0.5000 
      3 O          -4.2339  -16.3892  -44.5396 O.2       0 UNK        -0.5000 
      4 N          -2.9324  -17.0602  -46.2533 N.am      1 UNK        -0.5000 
      5 CA         -1.9530  -15.9615  -46.2421 C.3       1 UNK         0.1400 
      6 C6         -1.0125  -16.0260  -47.4710 C.3       23 UNK        -0.0398 
      7 S7         -0.2204  -17.6506  -47.7295 S.3       23 UNK        -0.2404 
      8 C8          0.5814  -17.3569  -49.3356 C.3       23 UNK        -0.0205 
      9 C9          1.1117  -18.6462  -49.9439 C.ar      23 UNK        -0.0193 
     10 C10         0.4230  -19.2736  -50.9860 C.ar      23 UNK        -0.1150 
     11 C11         0.9133  -20.4530  -51.5545 C.ar      23 UNK        -0.0193 
     12 C12         2.1102  -20.9986  -51.0805 C.ar      23 UNK        -0.1150 
     13 C13         2.8148  -20.3743  -50.0466 C.ar      23 UNK        -0.0193 
     14 C14         2.3079  -19.2010  -49.4832 C.ar      23 UNK        -0.1150 
     15 C15         4.1478  -20.9364  -49.5738 C.3       23 UNK        -0.0205 
     16 S16         3.9836  -22.5580  -48.7658 S.3       23 UNK        -0.2404 
     17 C17         3.2844  -22.1242  -47.1370 C.3       23 UNK        -0.0398 
     18 CA          2.2273  -23.1658  -46.6786 C.3       11 UNK         0.1400 
     19 N           2.3844  -23.5317  -45.2690 N.am      11 UNK        -0.5000 
     20 C           2.0819  -24.7370  -44.7646 C.2       10 UNK         0.5000 
     21 O           1.6991  -25.6875  -45.4469 O.2       10 UNK        -0.5000 
     22 CA          2.2180  -24.9191  -43.2397 C.3       10 UNK         0.1400 
     23 CB          3.5954  -25.5026  -42.8903 C.3       10 UNK        -0.1800 
     24 N           2.0195  -23.6837  -42.4810 N.am      10 UNK        -0.5000 
     25 C           0.8679  -23.0018  -42.4176 C.2       9 UNK         0.5000 
     26 O          -0.1668  -23.3513  -42.9814 O.2       9 UNK        -0.5000 
     27 CA          0.8948  -21.6716  -41.6458 C.3       9 UNK         0.1400 
     28 CB          0.5709  -21.8987  -40.1624 C.3       9 UNK        -0.1800 
     29 N           2.1647  -20.9475  -41.7610 N.am      9 UNK        -0.5000 
     30 C           2.7227  -20.5374  -42.9080 C.2       8 UNK         0.5000 
     31 O           2.2462  -20.7610  -44.0261 O.2       8 UNK        -0.5000 
     32 CA          4.0779  -19.8209  -42.7782 C.3       8 UNK         0.1400 
     33 CB          5.2221  -20.8400  -42.8933 C.3       8 UNK        -0.1800 
     34 N           4.2475  -18.8030  -43.8114 N.am      8 UNK        -0.5000 
     35 C           3.5948  -17.6356  -43.8442 C.2       7 UNK         0.5000 
     36 O           2.8484  -17.2350  -42.9468 O.2       7 UNK        -0.5000 
     37 CA          3.8110  -16.7852  -45.1033 C.3       7 UNK         0.1400 
     38 CB          3.2562  -17.5027  -46.3445 C.3       7 UNK        -0.1800 
     39 N           3.1515  -15.4940  -44.9410 N.am      7 UNK        -0.5000 
     40 C           3.4493  -14.3771  -45.6149 C.2       6 UNK         0.5000 
     41 O           4.3262  -14.3185  -46.4780 O.2       6 UNK        -0.5000 
     42 CA          2.6454  -13.1068  -45.2778 C.3       6 UNK         0.1400 
     43 CB          1.6689  -12.7555  -46.4103 C.3       6 UNK        -0.1800 
     44 N           1.8924  -13.2190  -44.0286 N.am      6 UNK        -0.5000 
     45 C           2.3950  -12.9480  -42.8159 C.2       5 UNK         0.5000 
     46 O           3.5687  -12.6228  -42.6278 O.2       5 UNK        -0.5000 
     47 CA          1.4254  -13.0600  -41.6194 C.3       5 UNK         0.1400 
     48 CB          1.8428  -12.1835  -40.4204 C.3       5 UNK        -0.1800 
     49 N           0.0251  -12.8157  -41.9828 N.am      5 UNK        -0.5000 
     50 C          -0.5184  -11.6935  -42.4833 C.2       4 UNK         0.5000 
     51 O           0.1064  -10.6456  -42.6504 O.2       4 UNK        -0.5000 
     52 CA         -2.0047  -11.7549  -42.8974 C.3       4 UNK         0.1400 
     53 CB         -2.1577  -11.4886  -44.4046 C.3       4 UNK        -0.1800 
     54 N          -2.6121  -13.0517  -42.5940 N.am      4 UNK        -0.5000 
     55 C          -3.1975  -13.3801  -41.4340 C.2       3 UNK         0.5000 
     56 O          -3.3950  -12.5843  -40.5157 O.2       3 UNK        -0.5000 
     57 CA         -3.5865  -14.8617  -41.2571 C.3       3 UNK         0.1400 
     58 CB         -5.0560  -15.0844  -41.6438 C.3       3 UNK        -0.1800 
     59 N          -2.7263  -15.7625  -42.0346 N.am      3 UNK        -0.5000 
     60 C          -1.4351  -15.9938  -41.7453 C.2       2 UNK         0.5000 
     61 O          -0.8719  -15.5148  -40.7620 O.2       2 UNK        -0.5000 
     62 CA         -0.6062  -16.8394  -42.7307 C.3       2 UNK         0.1400 
     63 CB         -0.4536  -18.2771  -42.2232 C.3       2 UNK        -0.1800 
     64 N          -1.1516  -16.8584  -44.0867 N.am      2 UNK        -0.5000 
     65 C          -1.1697  -15.8069  -44.9157 C.2       1 UNK         0.5000 
     66 O          -0.6440  -14.7265  -44.6387 O.2       1 UNK        -0.5000 
     67 C           0.7857  -22.6942  -46.9458 C.2       11 UNK         0.5000 
     68 O           0.1757  -23.1159  -47.9284 O.2       11 UNK        -0.5000 
     69 N           0.2454  -21.8726  -46.0317 N.am      12 UNK        -0.5000 
     70 CA         -1.1197  -21.3440  -46.0912 C.3       12 UNK         0.1400 
     71 CB         -1.3037  -20.2974  -44.9878 C.3       12 UNK        -0.1800 
     72 C          -2.2179  -22.4241  -46.0086 C.2       12 UNK         0.5000 
     73 O          -3.2945  -22.2367  -46.5801 O.2       12 UNK        -0.5000 
     74 N          -1.9063  -23.5492  -45.3455 N.am      13 UNK        -0.5000 
     75 CA         -2.7318  -24.7539  -45.1951 C.3       13 UNK         0.1400 
     76 CB         -1.9947  -25.7574  -44.2936 C.3       13 UNK        -0.1800 
     77 C          -3.1568  -25.4348  -46.5140 C.2       13 UNK         0.5000 
     78 O          -4.0645  -26.2664  -46.4931 O.2       13 UNK        -0.5000 
     79 N          -2.5468  -25.0446  -47.6417 N.am      14 UNK        -0.5000 
     80 CA         -2.9646  -25.3901  -49.0035 C.3       14 UNK         0.1400 
     81 CB         -1.7988  -25.0790  -49.9561 C.3       14 UNK        -0.1800 
     82 C          -4.2621  -24.6779  -49.4628 C.2       14 UNK         0.5000 
     83 O          -4.6509  -24.8399  -50.6198 O.2       14 UNK        -0.5000 
     84 N          -4.8952  -23.9063  -48.5636 N.am      15 UNK        -0.5000 
     85 CA         -6.0621  -23.0416  -48.7605 C.3       15 UNK         0.1400 
     86 CB         -7.2880  -23.8249  -49.2761 C.3       15 UNK        -0.1800 
     87 C          -5.6876  -21.8268  -49.6245 C.2       15 UNK         0.5000 
     88 O          -6.3505  -21.5359  -50.6227 O.2       15 UNK        -0.5000 
     89 N          -4.5883  -21.1731  -49.2253 N.am      16 UNK        -0.5000 
     90 CA         -3.9627  -20.0566  -49.9224 C.3       16 UNK         0.1400 
     91 CB         -2.6512  -19.6971  -49.2171 C.3       16 UNK        -0.1800 
     92 C          -4.8804  -18.8277  -50.0390 C.2       16 UNK         0.5000 
     93 O          -5.1542  -18.1669  -49.0358 O.2       16 UNK        -0.5000 
     94 N          -5.3082  -18.5443  -51.2707 N.am      17 UNK        -0.5000 
     95 CA         -6.0988  -17.3795  -51.6650 C.3       17 UNK         0.1400 
     96 CB         -7.4601  -17.8745  -52.1834 C.3       17 UNK        -0.1800 
     97 C          -5.3630  -16.5514  -52.7388 C.2       17 UNK         0.5000 
     98 O          -5.9564  -15.6307  -53.3019 O.2       17 UNK        -0.5000 
     99 N          -4.0986  -16.9097  -53.0199 N.am      18 UNK        -0.5000 
    100 CA        -3.2365  -16.4030  -54.0942 C.3       18 UNK         0.1400 
    101 CB        -2.9154  -14.9065  -53.8976 C.3       18 UNK        -0.1800 
    102 C         -3.7819  -16.7324  -55.5017 C.2       18 UNK         0.5000 
    103 O         -3.5668  -15.9696  -56.4459 O.2       18 UNK        -0.5000 
    104 N         -4.4775  -17.8712  -55.6148 N.am      19 UNK        -0.5000 
    105 CA        -5.0018  -18.4133  -56.8650 C.3       19 UNK         0.1400 
    106 CB        -6.2066  -19.3100  -56.5313 C.3       19 UNK        -0.1800 
    107 C         -3.9218  -19.2159  -57.6126 C.2       19 UNK         0.5000 
    108 O         -2.8769  -19.5384  -57.0410 O.2       19 UNK        -0.5000 
    109 N         -4.2186  -19.5924  -58.8639 N.am      20 UNK        -0.5000 
    110 CA        -3.3780  -20.4697  -59.6900 C.3       20 UNK         0.1400 
    111 CB        -3.9592  -20.5318  -61.1106 C.3       20 UNK        -0.1800 
    112 C         -3.2193  -21.8914  -59.1079 C.2       20 UNK         0.5000 
    113 O         -2.1931  -22.5326  -59.3338 O.2       20 UNK        -0.5000 
    114 N         -4.2235  -22.3334  -58.3393 N.am      21 UNK        -0.5000 
    115 CA        -4.2356  -23.5798  -57.5717 C.3       21 UNK         0.1400 
    116 CB        -5.6249  -24.2252  -57.7209 C.3       21 UNK        -0.1800 
    117 C         -3.8749  -23.3483  -56.0864 C.2       21 UNK         0.5000 
    118 O         -4.1810  -24.2012  -55.2517 O.2       21 UNK        -0.5000 
    119 N         -3.2537  -22.2012  -55.7738 N.am      22 UNK        -0.5000 
    120 CA        -2.9266  -21.6973  -54.4329 C.3       22 UNK         0.1400 
    121 C         -4.1871  -21.2152  -53.6679 C.2       22 UNK         0.5000 
    122 N         -5.0414  -22.1161  -53.2075 N.am      22 UNK        -0.7600 
    123 O         -4.3796  -20.0152  -53.4821 O.2       22 UNK        -0.5000 
    124 C124       -2.0209  -22.6588  -53.6113 C.3       23 UNK        -0.0398 
    125 S125       -1.3596  -21.9191  -52.0805 S.3       23 UNK        -0.2404 
    126 C126        0.1559  -21.1243  -52.6893 C.3       23 UNK        -0.0205 
    127 H127       -4.9979  -18.9482  -44.7103 H         1 UNK         0.0600 
    128 H128       -4.4787  -19.0872  -46.3909 H         1 UNK         0.0600 
    129 H129       -5.8727  -18.0855  -45.9811 H         1 UNK         0.0600 
    130 H130       -2.7835  -17.7480  -46.9773 H         1 UNK         0.3000 
    131 H131       -2.5313  -15.0400  -46.3362 H         1 UNK         0.0600 
    132 H132       -0.2391  -15.2599  -47.4202 H         1 UNK         0.0800 
    133 H133       -1.5933  -15.7948  -48.3651 H         1 UNK         0.0800 
    134 H134       -0.1293  -16.8878  -50.0177 H         1 UNK         0.0800 
    135 H135        1.3993  -16.6469  -49.2052 H         1 UNK         0.0800 
    136 H136       -0.4984  -18.8486  -51.3574 H         1 UNK         0.1150 
    137 H137        2.5010  -21.9058  -51.5196 H         1 UNK         0.1150 
    138 H138        2.8518  -18.7088  -48.6939 H         1 UNK         0.1150 
    139 H139        4.8057  -21.0438  -50.4372 H         1 UNK         0.0800 
    140 H140        4.6494  -20.2443  -48.8953 H         1 UNK         0.0800 
    141 H141        2.8846  -21.1081  -47.1486 H         1 UNK         0.0800 
    142 H142        4.1221  -22.0961  -46.4387 H         1 UNK         0.0800 
    143 H143        2.3684  -24.0759  -47.2663 H         1 UNK         0.0600 
    144 H144        2.6336  -22.7832  -44.6353 H         1 UNK         0.3000 
    145 H145        1.4529  -25.6322  -42.9253 H         1 UNK         0.0600 
    146 H146        4.4020  -24.8194  -43.1597 H         1 UNK         0.0600 
    147 H147        3.6757  -25.7145  -41.8239 H         1 UNK         0.0600 
    148 H148        3.7685  -26.4403  -43.4202 H         1 UNK         0.0600 
    149 H149        2.8211  -23.3177  -41.9893 H         1 UNK         0.3000 
    150 H150        0.1112  -21.0427  -42.0669 H         1 UNK         0.0600 
    151 H151        0.4851  -20.9521  -39.6285 H         1 UNK         0.0600 
    152 H152        1.3384  -22.4960  -39.6686 H         1 UNK         0.0600 
    153 H153       -0.3789  -22.4225  -40.0458 H         1 UNK         0.0600 
    154 H154        2.6341  -20.7375  -40.8918 H         1 UNK         0.3000 
    155 H155        4.1340  -19.3366  -41.8009 H         1 UNK         0.0600 
    156 H156        5.2116  -21.3522  -43.8566 H         1 UNK         0.0600 
    157 H157        5.1494  -21.6020  -42.1162 H         1 UNK         0.0600 
    158 H158        6.1930  -20.3570  -42.7812 H         1 UNK         0.0600 
    159 H159        4.8169  -19.0650  -44.6021 H         1 UNK         0.3000 
    160 H160        4.8847  -16.6243  -45.2207 H         1 UNK         0.0600 
    161 H161        2.2126  -17.7823  -46.2022 H         1 UNK         0.0600 
    162 H162        3.8131  -18.4167  -46.5520 H         1 UNK         0.0600 
    163 H163        3.3197  -16.8755  -47.2336 H         1 UNK         0.0600 
    164 H164        2.4599  -15.4643  -44.2035 H         1 UNK         0.3000 
    165 H165        3.3610  -12.2861  -45.1927 H         1 UNK         0.0600 
    166 H166        1.1621  -11.8107  -46.2125 H         1 UNK         0.0600 
    167 H167        2.1902  -12.6524  -47.3629 H         1 UNK         0.0600 
    168 H168        0.9063  -13.5219  -46.5330 H         1 UNK         0.0600 
    169 H169        0.9271  -13.5224  -44.1097 H         1 UNK         0.3000 
    170 H170        1.4758  -14.1003  -41.2953 H         1 UNK         0.0600 
    171 H171        2.8268  -12.4715  -40.0486 H         1 UNK         0.0600 
    172 H172        1.8911  -11.1274  -40.6866 H         1 UNK         0.0600 
    173 H173        1.1418  -12.2899  -39.5925 H         1 UNK         0.0600 
    174 H174       -0.5874  -13.6095  -41.8546 H         1 UNK         0.3000 
    175 H175       -2.5310  -10.9665  -42.3556 H         1 UNK         0.0600 
    176 H176       -1.7730  -10.5030  -44.6694 H         1 UNK         0.0600 
    177 H177       -1.6153  -12.2218  -45.0024 H         1 UNK         0.0600 
    178 H178       -3.2049  -11.5181  -44.7062 H         1 UNK         0.0600 
    179 H179       -2.4812  -13.7753  -43.2870 H         1 UNK         0.3000 
    180 H180       -3.4740  -15.1118  -40.2000 H         1 UNK         0.0600 
    181 H181       -5.2515  -14.7878  -42.6747 H         1 UNK         0.0600 
    182 H182       -5.7182  -14.4983  -41.0055 H         1 UNK         0.0600 
    183 H183       -5.3405  -16.1311  -41.5350 H         1 UNK         0.0600 
    184 H184       -3.1333  -16.1555  -42.8781 H         1 UNK         0.3000 
    185 H185        0.3864  -16.3888  -42.7754 H         1 UNK         0.0600 
    186 H186        0.2322  -18.8319  -42.8617 H         1 UNK         0.0600 
    187 H187       -0.0392  -18.2970  -41.2144 H         1 UNK         0.0600 
    188 H188       -1.4078  -18.8045  -42.2014 H         1 UNK         0.0600 
    189 H189       -1.6190  -17.7016  -44.3812 H         1 UNK         0.3000 
    190 H190        0.8220  -21.5568  -45.2590 H         1 UNK         0.3000 
    191 H191       -1.2232  -20.8423  -47.0527 H         1 UNK         0.0600 
    192 H192       -0.5635  -19.5029  -45.0820 H         1 UNK         0.0600 
    193 H193       -2.2914  -19.8406  -45.0441 H         1 UNK         0.0600 
    194 H194       -1.2035  -20.7418  -43.9981 H         1 UNK         0.0600 
    195 H195       -1.0275  -23.5598  -44.8392 H         1 UNK         0.3000 
    196 H196       -3.6506  -24.4530  -44.6884 H         1 UNK         0.0600 
    197 H197       -2.5625  -26.6821  -44.1821 H         1 UNK         0.0600 
    198 H198       -1.8467  -25.3543  -43.2922 H         1 UNK         0.0600 
    199 H199       -1.0174  -26.0189  -44.7006 H         1 UNK         0.0600 
    200 H200       -1.8011  -24.3635  -47.5692 H         1 UNK         0.3000 
    201 H201       -3.1585  -26.4637  -49.0419 H         1 UNK         0.0600 
    202 H202       -2.0382  -25.3540  -50.9840 H         1 UNK         0.0600 
    203 H203       -0.9003  -25.6284  -49.6744 H         1 UNK         0.0600 
    204 H204       -1.5548  -24.0164  -49.9485 H         1 UNK         0.0600 
    205 H205       -4.4401  -23.7966  -47.6667 H         1 UNK         0.3000 
    206 H206       -6.3191  -22.6497  -47.7752 H         1 UNK         0.0600 
    207 H207       -7.4996  -24.6872  -48.6440 H         1 UNK         0.0600 
    208 H208       -8.1769  -23.1932  -49.2738 H         1 UNK         0.0600 
    209 H209       -7.1499  -24.1813  -50.2970 H         1 UNK         0.0600 
    210 H210       -4.1258  -21.4905  -48.3813 H         1 UNK         0.3000 
    211 H211       -3.7075  -20.4007  -50.9239 H         1 UNK         0.0600 
    212 H212       -2.8102  -19.4741  -48.1629 H         1 UNK         0.0600 
    213 H213       -2.1967  -18.8184  -49.6737 H         1 UNK         0.0600 
    214 H214       -1.9293  -20.5109  -49.2894 H         1 UNK         0.0600 
    215 H215       -5.0520  -19.1717  -52.0326 H         1 UNK         0.3000 
    216 H216       -6.2665  -16.7204  -50.8111 H         1 UNK         0.0600 
    217 H217       -8.1099  -17.0397  -52.4487 H         1 UNK         0.0600 
    218 H218       -7.9790  -18.4610  -51.4248 H         1 UNK         0.0600 
    219 H219       -7.3465  -18.5005  -53.0696 H         1 UNK         0.0600 
    220 H220       -3.7242  -17.6915  -52.5023 H         1 UNK         0.3000 
    221 H221       -2.2970  -16.9505  -54.0065 H         1 UNK         0.0600 
    222 H222       -3.7921  -14.2777  -54.0538 H         1 UNK         0.0600 
    223 H223       -2.5371  -14.7130  -52.8939 H         1 UNK         0.0600 
    224 H224       -2.1499  -14.5766  -54.6007 H         1 UNK         0.0600 
    225 H225       -4.5463  -18.4760  -54.8034 H         1 UNK         0.3000 
    226 H226       -5.3365  -17.5949  -57.5057 H         1 UNK         0.0600 
    227 H227       -6.9579  -18.7623  -55.9616 H         1 UNK         0.0600 
    228 H228       -6.6933  -19.6743  -57.4365 H         1 UNK         0.0600 
    229 H229       -5.9137  -20.1804  -55.9431 H         1 UNK         0.0600 
    230 H230       -5.0918  -19.2922  -59.2737 H         1 UNK         0.3000 
    231 H231       -2.3820  -20.0253  -59.7462 H         1 UNK         0.0600 
    232 H232       -4.9671  -20.9487  -61.1158 H         1 UNK         0.0600 
    233 H233       -3.3423  -21.1566  -61.7580 H         1 UNK         0.0600 
    234 H234       -4.0021  -19.5410  -61.5634 H         1 UNK         0.0600 
    235 H235       -5.0230  -21.7297  -58.2157 H         1 UNK         0.3000 
    236 H236       -3.4963  -24.2743  -57.9753 H         1 UNK         0.0600 
    237 H237       -5.8738  -24.3856  -58.7701 H         1 UNK         0.0600 
    238 H238       -5.6633  -25.1983  -57.2298 H         1 UNK         0.0600 
    239 H239       -6.4061  -23.6035  -57.2816 H         1 UNK         0.0600 
    240 H240       -3.0649  -21.5413  -56.5190 H         1 UNK         0.3000 
    241 H241       -2.3336  -20.8014  -54.6219 H         1 UNK         0.0600 
    242 H242       -5.8098  -21.8282  -52.6150 H         1 UNK         0.3800 
    243 H243       -4.9000  -23.0964  -53.4079 H         1 UNK         0.3800 
    244 H244       -2.5663  -23.5593  -53.3270 H         1 UNK         0.0800 
    245 H245       -1.1862  -22.9990  -54.2251 H         1 UNK         0.0800 
    246 H246       -0.0992  -20.3809  -53.4458 H         1 UNK         0.0800 
    247 H247        0.7834  -21.8691  -53.1812 H         1 UNK         0.0800 
@<TRIPOS>BOND
     1    1    2 1    
     2    1  127 1    
     3    1  128 1    
     4    1  129 1    
     5    2    3 2    
     6    2    4 am   BACKBONE|DICT|INTERRES
     7    4    5 1    
     8    4  130 1    
     9    5    6 1    
    10    5   65 1    
    11    5  131 1    
    12    6    7 1    
    13    6  132 1    
    14    6  133 1    
    15    7    8 1    
    16    8    9 1    
    17    8  134 1    
    18    8  135 1    
    19    9   10 ar   
    20    9   14 ar   
    21   10   11 ar   
    22   10  136 1    
    23   11   12 ar   
    24   11  126 1    
    25   12   13 ar   
    26   12  137 1    
    27   13   14 ar   
    28   13   15 1    
    29   14  138 1    
    30   15   16 1    
    31   15  139 1    
    32   15  140 1    
    33   16   17 1    
    34   17   18 1    
    35   17  141 1    
    36   17  142 1    
    37   18   19 1    
    38   18   67 1    
    39   18  143 1    
    40   19   20 am   BACKBONE|DICT|INTERRES
    41   19  144 1    
    42   20   21 2    
    43   20   22 1    
    44   22   23 1    
    45   22   24 1    
    46   22  145 1    
    47   23  146 1    
    48   23  147 1    
    49   23  148 1    
    50   24   25 am   BACKBONE|DICT|INTERRES
    51   24  149 1    
    52   25   26 2    
    53   25   27 1    
    54   27   28 1    
    55   27   29 1    
    56   27  150 1    
    57   28  151 1    
    58   28  152 1    
    59   28  153 1    
    60   29   30 am   BACKBONE|DICT|INTERRES
    61   29  154 1    
    62   30   31 2    
    63   30   32 1    
    64   32   33 1    
    65   32   34 1    
    66   32  155 1    
    67   33  156 1    
    68   33  157 1    
    69   33  158 1    
    70   34   35 am   BACKBONE|DICT|INTERRES
    71   34  159 1    
    72   35   36 2    
    73   35   37 1    
    74   37   38 1    
    75   37   39 1    
    76   37  160 1    
    77   38  161 1    
    78   38  162 1    
    79   38  163 1    
    80   39   40 am   BACKBONE|DICT|INTERRES
    81   39  164 1    
    82   40   41 2    
    83   40   42 1    
    84   42   43 1    
    85   42   44 1    
    86   42  165 1    
    87   43  166 1    
    88   43  167 1    
    89   43  168 1    
    90   44   45 am   BACKBONE|DICT|INTERRES
    91   44  169 1    
    92   45   46 2    
    93   45   47 1    
    94   47   48 1    
    95   47   49 1    
    96   47  170 1    
    97   48  171 1    
    98   48  172 1    
    99   48  173 1    
   100   49   50 am   BACKBONE|DICT|INTERRES
   101   49  174 1    
   102   50   51 2    
   103   50   52 1    
   104   52   53 1    
   105   52   54 1    
   106   52  175 1    
   107   53  176 1    
   108   53  177 1    
   109   53  178 1    
   110   54   55 am   BACKBONE|DICT|INTERRES
   111   54  179 1    
   112   55   56 2    
   113   55   57 1    
   114   57   58 1    
   115   57   59 1    
   116   57  180 1    
   117   58  181 1    
   118   58  182 1    
   119   58  183 1    
   120   59   60 am   BACKBONE|DICT|INTERRES
   121   59  184 1    
   122   60   61 2    
   123   60   62 1    
   124   62   63 1    
   125   62   64 1    
   126   62  185 1    
   127   63  186 1    
   128   63  187 1    
   129   63  188 1    
   130   64   65 am   BACKBONE|DICT|INTERRES
   131   64  189 1    
   132   65   66 2    
   133   67   68 2    
   134   67   69 am   BACKBONE|DICT|INTERRES
   135   69   70 1    
   136   69  190 1    
   137   70   71 1    
   138   70   72 1    
   139   70  191 1    
   140   71  192 1    
   141   71  193 1    
   142   71  194 1    
   143   72   73 2    
   144   72   74 am   BACKBONE|DICT|INTERRES
   145   74   75 1    
   146   74  195 1    
   147   75   76 1    
   148   75   77 1    
   149   75  196 1    
   150   76  197 1    
   151   76  198 1    
   152   76  199 1    
   153   77   78 2    
   154   77   79 am   BACKBONE|DICT|INTERRES
   155   79   80 1    
   156   79  200 1    
   157   80   81 1    
   158   80   82 1    
   159   80  201 1    
   160   81  202 1    
   161   81  203 1    
   162   81  204 1    
   163   82   83 2    
   164   82   84 am   BACKBONE|DICT|INTERRES
   165   84   85 1    
   166   84  205 1    
   167   85   86 1    
   168   85   87 1    
   169   85  206 1    
   170   86  207 1    
   171   86  208 1    
   172   86  209 1    
   173   87   88 2    
   174   87   89 am   BACKBONE|DICT|INTERRES
   175   89   90 1    
   176   89  210 1    
   177   90   91 1    
   178   90   92 1    
   179   90  211 1    
   180   91  212 1    
   181   91  213 1    
   182   91  214 1    
   183   92   93 2    
   184   92   94 am   BACKBONE|DICT|INTERRES
   185   94   95 1    
   186   94  215 1    
   187   95   96 1    
   188   95   97 1    
   189   95  216 1    
   190   96  217 1    
   191   96  218 1    
   192   96  219 1    
   193   97   98 2    
   194   97   99 am   BACKBONE|DICT|INTERRES
   195   99  100 1    
   196   99  220 1    
   197  100  101 1    
   198  100  102 1    
   199  100  221 1    
   200  101  222 1    
   201  101  223 1    
   202  101  224 1    
   203  102  103 2    
   204  102  104 am   BACKBONE|DICT|INTERRES
   205  104  105 1    
   206  104  225 1    
   207  105  106 1    
   208  105  107 1    
   209  105  226 1    
   210  106  227 1    
   211  106  228 1    
   212  106  229 1    
   213  107  108 2    
   214  107  109 am   BACKBONE|DICT|INTERRES
   215  109  110 1    
   216  109  230 1    
   217  110  111 1    
   218  110  112 1    
   219  110  231 1    
   220  111  232 1    
   221  111  233 1    
   222  111  234 1    
   223  112  113 2    
   224  112  114 am   BACKBONE|DICT|INTERRES
   225  114  115 1    
   226  114  235 1    
   227  115  116 1    
   228  115  117 1    
   229  115  236 1    
   230  116  237 1    
   231  116  238 1    
   232  116  239 1    
   233  117  118 2    
   234  117  119 am   BACKBONE|DICT|INTERRES
   235  119  120 1    
   236  119  240 1    
   237  120  121 1    
   238  120  124 1    
   239  120  241 1    
   240  121  122 am   BACKBONE|DICT|INTERRES
   241  121  123 2    
   242  122  242 1    
   243  122  243 1    
   244  124  125 1    
   245  124  244 1    
   246  124  245 1    
   247  125  126 1    
   248  126  246 1    
   249  126  247 1    
@<TRIPOS>SUBSTRUCTURE
     1 UNK         1 GROUP             0       ****    0 ROOT    
