@<TRIPOS>MOLECULE
3R540
247   249    1
SMALL
USER_CHARGES


@<TRIPOS>ATOM
      1 CA          0.2186  -10.9445  -46.3407 C.3       0 UNK        -0.1800 
      2 C           1.6330  -11.3318  -46.7407 C.2       0 UNK         0.5000 
      3 O           2.4535  -10.4541  -47.0069 O.2       0 UNK        -0.5000 
      4 N           1.9277  -12.6369  -46.7839 N.am      1 UNK        -0.5000 
      5 CA          3.2112  -13.1906  -47.2322 C.3       1 UNK         0.1400 
      6 C6          3.1297  -14.7088  -47.5174 C.3       23 UNK        -0.0398 
      7 S7          2.0083  -15.1097  -48.9009 S.3       23 UNK        -0.2404 
      8 C8          0.8613  -16.2731  -48.1031 C.3       23 UNK        -0.0205 
      9 C9          0.1031  -17.0977  -49.1301 C.ar      23 UNK        -0.0193 
     10 C10        -1.2173  -16.7816  -49.4668 C.ar      23 UNK        -0.1150 
     11 C11        -1.9223  -17.5736  -50.3786 C.ar      23 UNK        -0.0193 
     12 C12        -1.2888  -18.6674  -50.9724 C.ar      23 UNK        -0.1150 
     13 C13         0.0268  -18.9961  -50.6413 C.ar      23 UNK        -0.0193 
     14 C14         0.7182  -18.2066  -49.7187 C.ar      23 UNK        -0.1150 
     15 C15         0.6821  -20.2292  -51.2481 C.3       23 UNK        -0.0205 
     16 S16        -0.1682  -21.7634  -50.7498 S.3       23 UNK        -0.2404 
     17 C17        -0.1407  -21.5854  -48.9342 C.3       23 UNK        -0.0398 
     18 CA         -0.1972  -22.9354  -48.1873 C.3       11 UNK         0.1400 
     19 N           0.3063  -22.8050  -46.8193 N.am      11 UNK        -0.5000 
     20 C           0.6313  -23.8274  -46.0181 C.2       10 UNK         0.5000 
     21 O           0.5712  -25.0088  -46.3555 O.2       10 UNK        -0.5000 
     22 CA          1.0444  -23.4617  -44.5813 C.3       10 UNK         0.1400 
     23 CB          2.5164  -23.0264  -44.5315 C.3       10 UNK        -0.1800 
     24 N           0.2037  -22.4041  -44.0166 N.am      10 UNK        -0.5000 
     25 C          -1.0973  -22.5535  -43.7316 C.2       9 UNK         0.5000 
     26 O          -1.7108  -23.6108  -43.8799 O.2       9 UNK        -0.5000 
     27 CA         -1.8490  -21.3019  -43.2394 C.3       9 UNK         0.1400 
     28 CB         -1.6951  -21.1460  -41.7192 C.3       9 UNK        -0.1800 
     29 N          -1.4449  -20.0534  -43.8956 N.am      9 UNK        -0.5000 
     30 C          -1.4878  -19.8147  -45.2151 C.2       8 UNK         0.5000 
     31 O          -1.7992  -20.6646  -46.0471 O.2       8 UNK        -0.5000 
     32 CA         -1.1358  -18.3973  -45.7009 C.3       8 UNK         0.1400 
     33 CB         -2.3939  -17.6836  -46.2187 C.3       8 UNK        -0.1800 
     34 N          -0.5185  -17.5638  -44.6690 N.am      8 UNK        -0.5000 
     35 C           0.7787  -17.5848  -44.3350 C.2       7 UNK         0.5000 
     36 O           1.5892  -18.3681  -44.8311 O.2       7 UNK        -0.5000 
     37 CA          1.2322  -16.5771  -43.2519 C.3       7 UNK         0.1400 
     38 CB          2.6972  -16.1285  -43.4209 C.3       7 UNK        -0.1800 
     39 N           0.3546  -15.4069  -43.0999 N.am      7 UNK        -0.5000 
     40 C           0.0409  -14.4963  -44.0353 C.2       6 UNK         0.5000 
     41 O           0.4512  -14.5154  -45.1948 O.2       6 UNK        -0.5000 
     42 CA         -0.8875  -13.3592  -43.5804 C.3       6 UNK         0.1400 
     43 CB         -2.3277  -13.8652  -43.4038 C.3       6 UNK        -0.1800 
     44 N          -0.4299  -12.7221  -42.3460 N.am      6 UNK        -0.5000 
     45 C           0.7124  -12.0333  -42.2261 C.2       5 UNK         0.5000 
     46 O           1.5129  -11.8504  -43.1500 O.2       5 UNK        -0.5000 
     47 CA          1.0076  -11.4634  -40.8325 C.3       5 UNK         0.1400 
     48 CB          1.5365  -12.5536  -39.8843 C.3       5 UNK        -0.1800 
     49 N           1.9988  -10.4047  -40.9628 N.am      5 UNK        -0.5000 
     50 C           2.1015   -9.3189  -40.1888 C.2       4 UNK         0.5000 
     51 O           1.3778   -9.1055  -39.2151 O.2       4 UNK        -0.5000 
     52 CA          3.1969   -8.2967  -40.5557 C.3       4 UNK         0.1400 
     53 CB          4.3584   -8.3711  -39.5525 C.3       4 UNK        -0.1800 
     54 N           3.7327   -8.4969  -41.9027 N.am      4 UNK        -0.5000 
     55 C           3.1362   -8.1330  -43.0429 C.2       3 UNK         0.5000 
     56 O           2.0767   -7.5076  -43.0881 O.2       3 UNK        -0.5000 
     57 CA          3.8206   -8.5693  -44.3529 C.3       3 UNK         0.1400 
     58 CB          5.0657   -7.7133  -44.6535 C.3       3 UNK        -0.1800 
     59 N           4.1206  -10.0068  -44.4188 N.am      3 UNK        -0.5000 
     60 C           4.9825  -10.7360  -43.6911 C.2       2 UNK         0.5000 
     61 O           5.7106  -10.2583  -42.8198 O.2       2 UNK        -0.5000 
     62 CA          5.0303  -12.2549  -43.9531 C.3       2 UNK         0.1400 
     63 CB          4.7759  -13.0532  -42.6640 C.3       2 UNK        -0.1800 
     64 N           4.0645  -12.6736  -44.9728 N.am      2 UNK        -0.5000 
     65 C           4.3712  -12.8836  -46.2610 C.2       1 UNK         0.5000 
     66 O           5.5185  -12.8219  -46.7051 O.2       1 UNK        -0.5000 
     67 C          -1.6154  -23.5381  -48.2026 C.2       11 UNK         0.5000 
     68 O          -1.8975  -24.4102  -49.0220 O.2       11 UNK        -0.5000 
     69 N          -2.4681  -23.1069  -47.2630 N.am      12 UNK        -0.5000 
     70 CA         -3.8137  -23.6376  -47.0591 C.3       12 UNK         0.1400 
     71 CB         -4.5475  -22.8122  -45.9936 C.3       12 UNK        -0.1800 
     72 C          -3.8181  -25.1357  -46.7059 C.2       12 UNK         0.5000 
     73 O          -4.6626  -25.8712  -47.2171 O.2       12 UNK        -0.5000 
     74 N          -2.8564  -25.5666  -45.8805 N.am      13 UNK        -0.5000 
     75 CA         -2.6293  -26.9720  -45.5555 C.3       13 UNK         0.1400 
     76 CB         -1.6959  -27.0719  -44.3387 C.3       13 UNK        -0.1800 
     77 C          -2.0697  -27.7681  -46.7502 C.2       13 UNK         0.5000 
     78 O          -2.5964  -28.8354  -47.0668 O.2       13 UNK        -0.5000 
     79 N          -1.0114  -27.2438  -47.3840 N.am      14 UNK        -0.5000 
     80 CA         -0.2701  -27.9200  -48.4501 C.3       14 UNK         0.1400 
     81 CB          1.0749  -27.2088  -48.6639 C.3       14 UNK        -0.1800 
     82 C          -1.0314  -28.0234  -49.7834 C.2       14 UNK         0.5000 
     83 O          -0.9553  -29.0632  -50.4394 O.2       14 UNK        -0.5000 
     84 N          -1.7276  -26.9483  -50.1701 N.am      15 UNK        -0.5000 
     85 CA         -2.3694  -26.7862  -51.4751 C.3       15 UNK         0.1400 
     86 CB         -1.7690  -25.5552  -52.1813 C.3       15 UNK        -0.1800 
     87 C          -3.9029  -26.7147  -51.3649 C.2       15 UNK         0.5000 
     88 O          -4.5371  -26.1007  -52.2219 O.2       15 UNK        -0.5000 
     89 N          -4.4722  -27.3552  -50.3313 N.am      16 UNK        -0.5000 
     90 CA         -5.9050  -27.6079  -50.1200 C.3       16 UNK         0.1400 
     91 CB         -6.3906  -28.6936  -51.1024 C.3       16 UNK        -0.1800 
     92 C          -6.7672  -26.3298  -50.1842 C.2       16 UNK         0.5000 
     93 O          -7.5397  -26.1427  -51.1260 O.2       16 UNK        -0.5000 
     94 N          -6.5763  -25.4596  -49.1852 N.am      17 UNK        -0.5000 
     95 CA         -7.1628  -24.1213  -49.0486 C.3       17 UNK         0.1400 
     96 CB         -8.7040  -24.1750  -48.9796 C.3       17 UNK        -0.1800 
     97 C          -6.6288  -23.1266  -50.1018 C.2       17 UNK         0.5000 
     98 O          -7.3439  -22.2028  -50.4921 O.2       17 UNK        -0.5000 
     99 N          -5.3664  -23.3282  -50.5137 N.am      18 UNK        -0.5000 
    100 CA        -4.6027  -22.5268  -51.4745 C.3       18 UNK         0.1400 
    101 CB        -4.3248  -21.1164  -50.9151 C.3       18 UNK        -0.1800 
    102 C         -5.2441  -22.5119  -52.8762 C.2       18 UNK         0.5000 
    103 O         -5.3662  -21.4510  -53.4970 O.2       18 UNK        -0.5000 
    104 N         -5.6430  -23.6989  -53.3534 N.am      19 UNK        -0.5000 
    105 CA        -6.2094  -23.9234  -54.6817 C.3       19 UNK         0.1400 
    106 CB        -6.6319  -25.3941  -54.8127 C.3       19 UNK        -0.1800 
    107 C         -5.2033  -23.5410  -55.7807 C.2       19 UNK         0.5000 
    108 O         -4.0309  -23.9112  -55.6885 O.2       19 UNK        -0.5000 
    109 N         -5.6692  -22.7574  -56.7617 N.am      20 UNK        -0.5000 
    110 CA        -4.9266  -22.1294  -57.8656 C.3       20 UNK         0.1400 
    111 CB        -4.2351  -23.1800  -58.7562 C.3       20 UNK        -0.1800 
    112 C         -3.9386  -21.0216  -57.4364 C.2       20 UNK         0.5000 
    113 O         -3.7451  -20.0732  -58.1980 O.2       20 UNK        -0.5000 
    114 N         -3.3469  -21.1371  -56.2396 N.am      21 UNK        -0.5000 
    115 CA        -2.4622  -20.1456  -55.6285 C.3       21 UNK         0.1400 
    116 CB        -1.7853  -20.7528  -54.3897 C.3       21 UNK        -0.1800 
    117 C         -3.2069  -18.8445  -55.2794 C.2       21 UNK         0.5000 
    118 O         -2.7642  -17.7683  -55.6838 O.2       21 UNK        -0.5000 
    119 N         -4.3405  -18.9797  -54.5805 N.am      22 UNK        -0.5000 
    120 CA        -5.2978  -17.8965  -54.3001 C.3       22 UNK         0.1400 
    121 C         -6.7568  -18.2947  -54.6569 C.2       22 UNK         0.5000 
    122 N         -7.1233  -19.5716  -54.6587 N.am      22 UNK        -0.7600 
    123 O         -7.5726  -17.4260  -54.9532 O.2       22 UNK        -0.5000 
    124 C124       -5.2262  -17.3819  -52.8378 C.3       23 UNK        -0.0398 
    125 S125       -3.5972  -16.6826  -52.3936 S.3       23 UNK        -0.2404 
    126 C126       -3.3825  -17.2940  -50.6927 C.3       23 UNK        -0.0205 
    127 H127        0.1955  -10.6265  -45.2985 H         1 UNK         0.0600 
    128 H128       -0.4724  -11.7768  -46.4738 H         1 UNK         0.0600 
    129 H129       -0.1336  -10.1176  -46.9572 H         1 UNK         0.0600 
    130 H130        1.2433  -13.3209  -46.4713 H         1 UNK         0.3000 
    131 H131        3.4637  -12.6946  -48.1721 H         1 UNK         0.0600 
    132 H132        4.1126  -15.1029  -47.7827 H         1 UNK         0.0800 
    133 H133        2.8215  -15.2460  -46.6204 H         1 UNK         0.0800 
    134 H134        1.4131  -16.9453  -47.4442 H         1 UNK         0.0800 
    135 H135        0.1664  -15.7204  -47.4706 H         1 UNK         0.0800 
    136 H136       -1.7015  -15.9340  -49.0029 H         1 UNK         0.1150 
    137 H137       -1.8293  -19.2809  -51.6773 H         1 UNK         0.1150 
    138 H138        1.7343  -18.4578  -49.4484 H         1 UNK         0.1150 
    139 H139        0.6717  -20.1483  -52.3351 H         1 UNK         0.0800 
    140 H140        1.7313  -20.2944  -50.9562 H         1 UNK         0.0800 
    141 H141       -0.9511  -20.9213  -48.6268 H         1 UNK         0.0800 
    142 H142        0.7840  -21.0699  -48.6711 H         1 UNK         0.0800 
    143 H143        0.4626  -23.6370  -48.7027 H         1 UNK         0.0600 
    144 H144        0.3166  -21.8729  -46.4324 H         1 UNK         0.3000 
    145 H145        0.9309  -24.3557  -43.9642 H         1 UNK         0.0600 
    146 H146        2.8377  -22.8417  -43.5062 H         1 UNK         0.0600 
    147 H147        3.1661  -23.8016  -44.9400 H         1 UNK         0.0600 
    148 H148        2.6892  -22.1157  -45.1064 H         1 UNK         0.0600 
    149 H149        0.6308  -21.5003  -43.8740 H         1 UNK         0.3000 
    150 H150       -2.9078  -21.4526  -43.4570 H         1 UNK         0.0600 
    151 H151       -2.0071  -22.0531  -41.1997 H         1 UNK         0.0600 
    152 H152       -2.3111  -20.3298  -41.3415 H         1 UNK         0.0600 
    153 H153       -0.6607  -20.9453  -41.4373 H         1 UNK         0.0600 
    154 H154       -1.1747  -19.2936  -43.2897 H         1 UNK         0.3000 
    155 H155       -0.4393  -18.5058  -46.5345 H         1 UNK         0.0600 
    156 H156       -3.1527  -17.5877  -45.4412 H         1 UNK         0.0600 
    157 H157       -2.8401  -18.2323  -47.0495 H         1 UNK         0.0600 
    158 H158       -2.1586  -16.6830  -46.5815 H         1 UNK         0.0600 
    159 H159       -1.1170  -16.8927  -44.2113 H         1 UNK         0.3000 
    160 H160        1.1706  -17.1229  -42.3095 H         1 UNK         0.0600 
    161 H161        2.8443  -15.5458  -44.3287 H         1 UNK         0.0600 
    162 H162        3.3746  -16.9820  -43.4628 H         1 UNK         0.0600 
    163 H163        3.0080  -15.5139  -42.5769 H         1 UNK         0.0600 
    164 H164       -0.0394  -15.2806  -42.1784 H         1 UNK         0.3000 
    165 H165       -0.8974  -12.6016  -44.3625 H         1 UNK         0.0600 
    166 H166       -3.0077  -13.0427  -43.1812 H         1 UNK         0.0600 
    167 H167       -2.6881  -14.3436  -44.3157 H         1 UNK         0.0600 
    168 H168       -2.4089  -14.5934  -42.5960 H         1 UNK         0.0600 
    169 H169       -1.0287  -12.8207  -41.5389 H         1 UNK         0.3000 
    170 H170        0.0798  -11.0484  -40.4330 H         1 UNK         0.0600 
    171 H171        2.4632  -12.9943  -40.2528 H         1 UNK         0.0600 
    172 H172        1.7323  -12.1496  -38.8909 H         1 UNK         0.0600 
    173 H173        0.8124  -13.3605  -39.7675 H         1 UNK         0.0600 
    174 H174        2.5790  -10.4775  -41.7880 H         1 UNK         0.3000 
    175 H175        2.7535   -7.3006  -40.4969 H         1 UNK         0.0600 
    176 H176        5.1136   -7.6148  -39.7672 H         1 UNK         0.0600 
    177 H177        4.8452   -9.3471  -39.5740 H         1 UNK         0.0600 
    178 H178        4.0086   -8.1998  -38.5336 H         1 UNK         0.0600 
    179 H179        4.5919   -9.0361  -41.9820 H         1 UNK         0.3000 
    180 H180        3.1028   -8.3861  -45.1541 H         1 UNK         0.0600 
    181 H181        5.8358   -7.8227  -43.8897 H         1 UNK         0.0600 
    182 H182        4.8054   -6.6553  -44.7016 H         1 UNK         0.0600 
    183 H183        5.5051   -7.9836  -45.6136 H         1 UNK         0.0600 
    184 H184        3.5772  -10.5043  -45.1135 H         1 UNK         0.3000 
    185 H185        6.0478  -12.4799  -44.2785 H         1 UNK         0.0600 
    186 H186        5.4574  -12.7516  -41.8677 H         1 UNK         0.0600 
    187 H187        3.7605  -12.9177  -42.2956 H         1 UNK         0.0600 
    188 H188        4.9342  -14.1180  -42.8316 H         1 UNK         0.0600 
    189 H189        3.0941  -12.7119  -44.6834 H         1 UNK         0.3000 
    190 H190       -2.1813  -22.3368  -46.6623 H         1 UNK         0.3000 
    191 H191       -4.3472  -23.5186  -48.0008 H         1 UNK         0.0600 
    192 H192       -4.5763  -21.7560  -46.2626 H         1 UNK         0.0600 
    193 H193       -5.5785  -23.1491  -45.8804 H         1 UNK         0.0600 
    194 H194       -4.0685  -22.8972  -45.0189 H         1 UNK         0.0600 
    195 H195       -2.2344  -24.8883  -45.4549 H         1 UNK         0.3000 
    196 H196       -3.5877  -27.4165  -45.2786 H         1 UNK         0.0600 
    197 H197       -1.5196  -28.1129  -44.0656 H         1 UNK         0.0600 
    198 H198       -2.1294  -26.5759  -43.4700 H         1 UNK         0.0600 
    199 H199       -0.7258  -26.6134  -44.5322 H         1 UNK         0.0600 
    200 H200       -0.6167  -26.3703  -47.0462 H         1 UNK         0.3000 
    201 H201       -0.0581  -28.9376  -48.1149 H         1 UNK         0.0600 
    202 H202        1.6735  -27.2153  -47.7528 H         1 UNK         0.0600 
    203 H203        0.9358  -26.1699  -48.9657 H         1 UNK         0.0600 
    204 H204        1.6609  -27.7016  -49.4407 H         1 UNK         0.0600 
    205 H205       -1.7498  -26.1237  -49.5712 H         1 UNK         0.3000 
    206 H206       -2.1620  -27.6506  -52.1084 H         1 UNK         0.0600 
    207 H207       -0.6894  -25.6558  -52.2920 H         1 UNK         0.0600 
    208 H208       -2.1842  -25.4276  -53.1820 H         1 UNK         0.0600 
    209 H209       -1.9590  -24.6370  -51.6277 H         1 UNK         0.0600 
    210 H210       -3.8512  -27.7781  -49.6554 H         1 UNK         0.3000 
    211 H211       -6.0071  -28.0077  -49.1098 H         1 UNK         0.0600 
    212 H212       -6.2996  -28.3712  -52.1405 H         1 UNK         0.0600 
    213 H213       -7.4386  -28.9389  -50.9262 H         1 UNK         0.0600 
    214 H214       -5.8180  -29.6137  -50.9868 H         1 UNK         0.0600 
    215 H215       -5.9048  -25.7140  -48.4601 H         1 UNK         0.3000 
    216 H216       -6.8181  -23.7450  -48.0851 H         1 UNK         0.0600 
    217 H217       -9.1139  -23.2059  -48.6932 H         1 UNK         0.0600 
    218 H218       -9.0412  -24.9001  -48.2391 H         1 UNK         0.0600 
    219 H219       -9.1473  -24.4418  -49.9391 H         1 UNK         0.0600 
    220 H220       -4.8959  -24.1529  -50.1709 H         1 UNK         0.3000 
    221 H221       -3.6387  -23.0214  -51.5920 H         1 UNK         0.0600 
    222 H222       -5.2431  -20.5512  -50.7562 H         1 UNK         0.0600 
    223 H223       -3.7890  -21.1662  -49.9669 H         1 UNK         0.0600 
    224 H224       -3.7094  -20.5410  -51.6048 H         1 UNK         0.0600 
    225 H225       -5.4345  -24.5364  -52.8150 H         1 UNK         0.3000 
    226 H226       -7.0995  -23.2976  -54.7723 H         1 UNK         0.0600 
    227 H227       -7.3485  -25.6690  -54.0381 H         1 UNK         0.0600 
    228 H228       -7.1041  -25.5811  -55.7778 H         1 UNK         0.0600 
    229 H229       -5.7768  -26.0661  -54.7282 H         1 UNK         0.0600 
    230 H230       -6.6431  -22.4909  -56.7173 H         1 UNK         0.3000 
    231 H231       -5.6847  -21.6378  -58.4774 H         1 UNK         0.0600 
    232 H232       -3.4218  -23.6870  -58.2368 H         1 UNK         0.0600 
    233 H233       -3.8082  -22.7128  -59.6445 H         1 UNK         0.0600 
    234 H234       -4.9420  -23.9371  -59.0954 H         1 UNK         0.0600 
    235 H235       -3.5308  -21.9821  -55.7106 H         1 UNK         0.3000 
    236 H236       -1.6821  -19.9002  -56.3521 H         1 UNK         0.0600 
    237 H237       -1.1797  -21.6194  -54.6553 H         1 UNK         0.0600 
    238 H238       -1.1240  -20.0259  -53.9184 H         1 UNK         0.0600 
    239 H239       -2.5116  -21.0713  -53.6425 H         1 UNK         0.0600 
    240 H240       -4.6279  -19.9085  -54.2880 H         1 UNK         0.3000 
    241 H241       -5.0702  -17.0512  -54.9525 H         1 UNK         0.0600 
    242 H242       -6.5002  -20.2989  -54.3173 H         1 UNK         0.3800 
    243 H243       -8.0742  -19.8037  -54.8960 H         1 UNK         0.3800 
    244 H244       -5.9685  -16.5990  -52.6724 H         1 UNK         0.0800 
    245 H245       -5.4852  -18.1927  -52.1558 H         1 UNK         0.0800 
    246 H246       -3.7991  -16.5640  -49.9971 H         1 UNK         0.0800 
    247 H247       -3.9435  -18.2156  -50.5390 H         1 UNK         0.0800 
@<TRIPOS>BOND
     1    1    2 1    
     2    1  127 1    
     3    1  128 1    
     4    1  129 1    
     5    2    3 2    
     6    2    4 am   BACKBONE|DICT|INTERRES
     7    4    5 1    
     8    4  130 1    
     9    5    6 1    
    10    5   65 1    
    11    5  131 1    
    12    6    7 1    
    13    6  132 1    
    14    6  133 1    
    15    7    8 1    
    16    8    9 1    
    17    8  134 1    
    18    8  135 1    
    19    9   10 ar   
    20    9   14 ar   
    21   10   11 ar   
    22   10  136 1    
    23   11   12 ar   
    24   11  126 1    
    25   12   13 ar   
    26   12  137 1    
    27   13   14 ar   
    28   13   15 1    
    29   14  138 1    
    30   15   16 1    
    31   15  139 1    
    32   15  140 1    
    33   16   17 1    
    34   17   18 1    
    35   17  141 1    
    36   17  142 1    
    37   18   19 1    
    38   18   67 1    
    39   18  143 1    
    40   19   20 am   BACKBONE|DICT|INTERRES
    41   19  144 1    
    42   20   21 2    
    43   20   22 1    
    44   22   23 1    
    45   22   24 1    
    46   22  145 1    
    47   23  146 1    
    48   23  147 1    
    49   23  148 1    
    50   24   25 am   BACKBONE|DICT|INTERRES
    51   24  149 1    
    52   25   26 2    
    53   25   27 1    
    54   27   28 1    
    55   27   29 1    
    56   27  150 1    
    57   28  151 1    
    58   28  152 1    
    59   28  153 1    
    60   29   30 am   BACKBONE|DICT|INTERRES
    61   29  154 1    
    62   30   31 2    
    63   30   32 1    
    64   32   33 1    
    65   32   34 1    
    66   32  155 1    
    67   33  156 1    
    68   33  157 1    
    69   33  158 1    
    70   34   35 am   BACKBONE|DICT|INTERRES
    71   34  159 1    
    72   35   36 2    
    73   35   37 1    
    74   37   38 1    
    75   37   39 1    
    76   37  160 1    
    77   38  161 1    
    78   38  162 1    
    79   38  163 1    
    80   39   40 am   BACKBONE|DICT|INTERRES
    81   39  164 1    
    82   40   41 2    
    83   40   42 1    
    84   42   43 1    
    85   42   44 1    
    86   42  165 1    
    87   43  166 1    
    88   43  167 1    
    89   43  168 1    
    90   44   45 am   BACKBONE|DICT|INTERRES
    91   44  169 1    
    92   45   46 2    
    93   45   47 1    
    94   47   48 1    
    95   47   49 1    
    96   47  170 1    
    97   48  171 1    
    98   48  172 1    
    99   48  173 1    
   100   49   50 am   BACKBONE|DICT|INTERRES
   101   49  174 1    
   102   50   51 2    
   103   50   52 1    
   104   52   53 1    
   105   52   54 1    
   106   52  175 1    
   107   53  176 1    
   108   53  177 1    
   109   53  178 1    
   110   54   55 am   BACKBONE|DICT|INTERRES
   111   54  179 1    
   112   55   56 2    
   113   55   57 1    
   114   57   58 1    
   115   57   59 1    
   116   57  180 1    
   117   58  181 1    
   118   58  182 1    
   119   58  183 1    
   120   59   60 am   BACKBONE|DICT|INTERRES
   121   59  184 1    
   122   60   61 2    
   123   60   62 1    
   124   62   63 1    
   125   62   64 1    
   126   62  185 1    
   127   63  186 1    
   128   63  187 1    
   129   63  188 1    
   130   64   65 am   BACKBONE|DICT|INTERRES
   131   64  189 1    
   132   65   66 2    
   133   67   68 2    
   134   67   69 am   BACKBONE|DICT|INTERRES
   135   69   70 1    
   136   69  190 1    
   137   70   71 1    
   138   70   72 1    
   139   70  191 1    
   140   71  192 1    
   141   71  193 1    
   142   71  194 1    
   143   72   73 2    
   144   72   74 am   BACKBONE|DICT|INTERRES
   145   74   75 1    
   146   74  195 1    
   147   75   76 1    
   148   75   77 1    
   149   75  196 1    
   150   76  197 1    
   151   76  198 1    
   152   76  199 1    
   153   77   78 2    
   154   77   79 am   BACKBONE|DICT|INTERRES
   155   79   80 1    
   156   79  200 1    
   157   80   81 1    
   158   80   82 1    
   159   80  201 1    
   160   81  202 1    
   161   81  203 1    
   162   81  204 1    
   163   82   83 2    
   164   82   84 am   BACKBONE|DICT|INTERRES
   165   84   85 1    
   166   84  205 1    
   167   85   86 1    
   168   85   87 1    
   169   85  206 1    
   170   86  207 1    
   171   86  208 1    
   172   86  209 1    
   173   87   88 2    
   174   87   89 am   BACKBONE|DICT|INTERRES
   175   89   90 1    
   176   89  210 1    
   177   90   91 1    
   178   90   92 1    
   179   90  211 1    
   180   91  212 1    
   181   91  213 1    
   182   91  214 1    
   183   92   93 2    
   184   92   94 am   BACKBONE|DICT|INTERRES
   185   94   95 1    
   186   94  215 1    
   187   95   96 1    
   188   95   97 1    
   189   95  216 1    
   190   96  217 1    
   191   96  218 1    
   192   96  219 1    
   193   97   98 2    
   194   97   99 am   BACKBONE|DICT|INTERRES
   195   99  100 1    
   196   99  220 1    
   197  100  101 1    
   198  100  102 1    
   199  100  221 1    
   200  101  222 1    
   201  101  223 1    
   202  101  224 1    
   203  102  103 2    
   204  102  104 am   BACKBONE|DICT|INTERRES
   205  104  105 1    
   206  104  225 1    
   207  105  106 1    
   208  105  107 1    
   209  105  226 1    
   210  106  227 1    
   211  106  228 1    
   212  106  229 1    
   213  107  108 2    
   214  107  109 am   BACKBONE|DICT|INTERRES
   215  109  110 1    
   216  109  230 1    
   217  110  111 1    
   218  110  112 1    
   219  110  231 1    
   220  111  232 1    
   221  111  233 1    
   222  111  234 1    
   223  112  113 2    
   224  112  114 am   BACKBONE|DICT|INTERRES
   225  114  115 1    
   226  114  235 1    
   227  115  116 1    
   228  115  117 1    
   229  115  236 1    
   230  116  237 1    
   231  116  238 1    
   232  116  239 1    
   233  117  118 2    
   234  117  119 am   BACKBONE|DICT|INTERRES
   235  119  120 1    
   236  119  240 1    
   237  120  121 1    
   238  120  124 1    
   239  120  241 1    
   240  121  122 am   BACKBONE|DICT|INTERRES
   241  121  123 2    
   242  122  242 1    
   243  122  243 1    
   244  124  125 1    
   245  124  244 1    
   246  124  245 1    
   247  125  126 1    
   248  126  246 1    
   249  126  247 1    
@<TRIPOS>SUBSTRUCTURE
     1 UNK         1 GROUP             0       ****    0 ROOT    
