@<TRIPOS>MOLECULE
3R540
247   249    1
SMALL
USER_CHARGES


@<TRIPOS>ATOM
      1 CA          3.8267  -13.5869  -48.1361 C.3       0 UNK        -0.1800 
      2 C           2.4223  -14.0906  -47.8456 C.2       0 UNK         0.5000 
      3 O           2.2013  -14.7650  -46.8402 O.2       0 UNK        -0.5000 
      4 N           1.4743  -13.7556  -48.7307 N.am      1 UNK        -0.5000 
      5 CA          0.0961  -14.2727  -48.7797 C.3       1 UNK         0.1400 
      6 C6         -0.6340  -13.8654  -50.0837 C.3       23 UNK        -0.0398 
      7 S7          0.3331  -14.1847  -51.6120 S.3       23 UNK        -0.2404 
      8 C8         -0.1133  -15.9032  -52.0649 C.3       23 UNK        -0.0205 
      9 C9          0.9883  -16.9415  -51.8339 C.ar      23 UNK        -0.0193 
     10 C10         1.0928  -18.0451  -52.6879 C.ar      23 UNK        -0.1150 
     11 C11         2.0546  -19.0393  -52.4656 C.ar      23 UNK        -0.0193 
     12 C12         2.9032  -18.9383  -51.3581 C.ar      23 UNK        -0.1150 
     13 C13         2.8050  -17.8486  -50.4898 C.ar      23 UNK        -0.0193 
     14 C14         1.8714  -16.8459  -50.7561 C.ar      23 UNK        -0.1150 
     15 C15         3.6963  -17.7441  -49.2588 C.3       23 UNK        -0.0205 
     16 S16         3.0381  -18.6749  -47.8318 S.3       23 UNK        -0.2404 
     17 C17         1.3820  -17.9370  -47.5903 C.3       23 UNK        -0.0398 
     18 CA          0.2569  -18.9239  -47.9808 C.3       11 UNK         0.1400 
     19 N           0.2152  -20.0592  -47.0572 N.am      11 UNK        -0.5000 
     20 C          -0.3916  -21.2235  -47.3084 C.2       10 UNK         0.5000 
     21 O          -1.1452  -21.3914  -48.2634 O.2       10 UNK        -0.5000 
     22 CA         -0.1170  -22.3859  -46.3402 C.3       10 UNK         0.1400 
     23 CB          1.2658  -22.9966  -46.6139 C.3       10 UNK        -0.1800 
     24 N          -0.1809  -21.9300  -44.9532 N.am      10 UNK        -0.5000 
     25 C          -1.0824  -22.3470  -44.0532 C.2       9 UNK         0.5000 
     26 O          -1.8476  -23.2944  -44.2365 O.2       9 UNK        -0.5000 
     27 CA         -1.1840  -21.5465  -42.7341 C.3       9 UNK         0.1400 
     28 CB         -0.3130  -22.1927  -41.6462 C.3       9 UNK        -0.1800 
     29 N          -0.8182  -20.1311  -42.8469 N.am      9 UNK        -0.5000 
     30 C          -1.2910  -19.2626  -43.7519 C.2       8 UNK         0.5000 
     31 O          -2.1576  -19.5370  -44.5807 O.2       8 UNK        -0.5000 
     32 CA         -0.6229  -17.8786  -43.8112 C.3       8 UNK         0.1400 
     33 CB         -1.4171  -16.8658  -42.9757 C.3       8 UNK        -0.1800 
     34 N           0.7831  -17.8594  -43.3996 N.am      8 UNK        -0.5000 
     35 C           1.7756  -18.6206  -43.8872 C.2       7 UNK         0.5000 
     36 O           1.6117  -19.5301  -44.7014 O.2       7 UNK        -0.5000 
     37 CA          3.1806  -18.3338  -43.3406 C.3       7 UNK         0.1400 
     38 CB          3.7269  -17.0058  -43.8923 C.3       7 UNK        -0.1800 
     39 N           3.1612  -18.2992  -41.8801 N.am      7 UNK        -0.5000 
     40 C           3.1554  -19.3925  -41.1042 C.2       6 UNK         0.5000 
     41 O           3.2689  -20.5399  -41.5358 O.2       6 UNK        -0.5000 
     42 CA          2.9752  -19.1707  -39.5905 C.3       6 UNK         0.1400 
     43 CB          4.3394  -19.0006  -38.9049 C.3       6 UNK        -0.1800 
     44 N           2.1332  -18.0159  -39.2743 N.am      6 UNK        -0.5000 
     45 C           0.8203  -17.9321  -39.5325 C.2       5 UNK         0.5000 
     46 O           0.1636  -18.8314  -40.0588 O.2       5 UNK        -0.5000 
     47 CA          0.1411  -16.5944  -39.1771 C.3       5 UNK         0.1400 
     48 CB         -0.3026  -16.5910  -37.7066 C.3       5 UNK        -0.1800 
     49 N           0.9818  -15.4182  -39.4331 N.am      5 UNK        -0.5000 
     50 C           1.4774  -15.0806  -40.6305 C.2       4 UNK         0.5000 
     51 O           1.3188  -15.7528  -41.6520 O.2       4 UNK        -0.5000 
     52 CA          2.3325  -13.8124  -40.6993 C.3       4 UNK         0.1400 
     53 CB          3.7726  -14.1167  -40.2437 C.3       4 UNK        -0.1800 
     54 N           2.3256  -13.3446  -42.0815 N.am      4 UNK        -0.5000 
     55 C           2.7278  -12.1451  -42.5100 C.2       3 UNK         0.5000 
     56 O           3.1487  -11.2569  -41.7675 O.2       3 UNK        -0.5000 
     57 CA          2.6528  -11.8939  -44.0271 C.3       3 UNK         0.1400 
     58 CB          3.9303  -12.3981  -44.7140 C.3       3 UNK        -0.1800 
     59 N           1.4798  -12.4921  -44.6758 N.am      3 UNK        -0.5000 
     60 C           0.2248  -12.0404  -44.5199 C.2       2 UNK         0.5000 
     61 O          -0.0695  -11.1148  -43.7620 O.2       2 UNK        -0.5000 
     62 CA         -0.8662  -12.6964  -45.3892 C.3       2 UNK         0.1400 
     63 CB         -2.1491  -11.8485  -45.5015 C.3       2 UNK        -0.1800 
     64 N          -0.3356  -12.9852  -46.7204 N.am      2 UNK        -0.5000 
     65 C          -0.7493  -13.9758  -47.5193 C.2       1 UNK         0.5000 
     66 O          -1.7317  -14.6754  -47.2768 O.2       1 UNK        -0.5000 
     67 C          -1.1042  -18.2170  -48.1765 C.2       11 UNK         0.5000 
     68 O          -1.3336  -17.6711  -49.2556 O.2       11 UNK        -0.5000 
     69 N          -2.0050  -18.2611  -47.1827 N.am      12 UNK        -0.5000 
     70 CA         -3.3656  -17.7283  -47.3211 C.3       12 UNK         0.1400 
     71 CB         -3.8859  -17.2050  -45.9749 C.3       12 UNK        -0.1800 
     72 C          -4.3209  -18.7791  -47.9107 C.2       12 UNK         0.5000 
     73 O          -5.2630  -18.4106  -48.6102 O.2       12 UNK        -0.5000 
     74 N          -4.0433  -20.0699  -47.6727 N.am      13 UNK        -0.5000 
     75 CA         -4.7338  -21.1873  -48.3221 C.3       13 UNK         0.1400 
     76 CB         -4.3635  -22.5028  -47.6222 C.3       13 UNK        -0.1800 
     77 C          -4.4202  -21.2434  -49.8296 C.2       13 UNK         0.5000 
     78 O          -5.3082  -21.5244  -50.6338 O.2       13 UNK        -0.5000 
     79 N          -3.1745  -20.9069  -50.1881 N.am      14 UNK        -0.5000 
     80 CA         -2.7193  -20.7064  -51.5591 C.3       14 UNK         0.1400 
     81 CB         -1.2119  -20.4487  -51.5619 C.3       14 UNK        -0.1800 
     82 C          -3.4711  -19.5635  -52.2630 C.2       14 UNK         0.5000 
     83 O          -3.9371  -19.7465  -53.3887 O.2       14 UNK        -0.5000 
     84 N          -3.6165  -18.4271  -51.5629 N.am      15 UNK        -0.5000 
     85 CA         -4.3760  -17.2576  -52.0129 C.3       15 UNK         0.1400 
     86 CB         -4.1940  -16.1056  -51.0136 C.3       15 UNK        -0.1800 
     87 C          -5.8731  -17.5556  -52.2179 C.2       15 UNK         0.5000 
     88 O          -6.4695  -17.0455  -53.1669 O.2       15 UNK        -0.5000 
     89 N          -6.4424  -18.4147  -51.3619 N.am      16 UNK        -0.5000 
     90 CA         -7.8168  -18.9181  -51.4190 C.3       16 UNK         0.1400 
     91 CB         -8.2121  -19.4315  -50.0225 C.3       16 UNK        -0.1800 
     92 C          -8.0279  -19.9808  -52.5236 C.2       16 UNK         0.5000 
     93 O          -8.6145  -21.0326  -52.2650 O.2       16 UNK        -0.5000 
     94 N          -7.5586  -19.6742  -53.7412 N.am      17 UNK        -0.5000 
     95 CA         -7.6615  -20.4639  -54.9716 C.3       17 UNK         0.1400 
     96 CB         -9.1266  -20.5180  -55.4541 C.3       17 UNK        -0.1800 
     97 C          -7.0057  -21.8577  -54.8673 C.2       17 UNK         0.5000 
     98 O          -7.5768  -22.8414  -55.3423 O.2       17 UNK        -0.5000 
     99 N          -5.8077  -21.9051  -54.2641 N.am      18 UNK        -0.5000 
    100 CA        -4.9649  -23.0899  -54.0727 C.3       18 UNK         0.1400 
    101 CB        -4.3944  -23.5763  -55.4211 C.3       18 UNK        -0.1800 
    102 C         -5.6656  -24.2054  -53.2712 C.2       18 UNK         0.5000 
    103 O         -5.7632  -25.3433  -53.7378 O.2       18 UNK        -0.5000 
    104 N         -6.1501  -23.8603  -52.0710 N.am      19 UNK        -0.5000 
    105 CA        -6.8411  -24.7576  -51.1438 C.3       19 UNK         0.1400 
    106 CB        -7.6583  -23.9165  -50.1464 C.3       19 UNK        -0.1800 
    107 C         -5.8565  -25.7178  -50.4438 C.2       19 UNK         0.5000 
    108 O         -5.6034  -25.5850  -49.2461 O.2       19 UNK        -0.5000 
    109 N         -5.3061  -26.6570  -51.2252 N.am      20 UNK        -0.5000 
    110 CA        -4.3143  -27.6701  -50.8462 C.3       20 UNK         0.1400 
    111 CB        -4.8865  -28.6457  -49.7955 C.3       20 UNK        -0.1800 
    112 C         -2.9519  -27.0668  -50.4390 C.2       20 UNK         0.5000 
    113 O         -2.2591  -27.6218  -49.5839 O.2       20 UNK        -0.5000 
    114 N         -2.5800  -25.9534  -51.0801 N.am      21 UNK        -0.5000 
    115 CA        -1.2988  -25.2745  -50.9309 C.3       21 UNK         0.1400 
    116 CB        -1.3886  -24.2242  -49.8140 C.3       21 UNK        -0.1800 
    117 C         -0.9428  -24.6297  -52.2756 C.2       21 UNK         0.5000 
    118 O         -1.8350  -24.1062  -52.9471 O.2       21 UNK        -0.5000 
    119 N          0.3435  -24.6966  -52.6417 N.am      22 UNK        -0.5000 
    120 CA         0.9242  -24.1886  -53.9017 C.3       22 UNK         0.1400 
    121 C          0.4132  -24.8983  -55.1966 C.2       22 UNK         0.5000 
    122 N         -0.1862  -26.0799  -55.1119 N.am      22 UNK        -0.7600 
    123 O          0.5923  -24.3936  -56.3019 O.2       22 UNK        -0.5000 
    124 C124        0.8799  -22.6386  -54.0148 C.3       23 UNK        -0.0398 
    125 S125        1.7631  -21.8031  -52.6515 S.3       23 UNK        -0.2404 
    126 C126        2.1861  -20.2104  -53.4313 C.3       23 UNK        -0.0205 
    127 H127        3.8491  -12.4974  -48.1493 H         1 UNK         0.0600 
    128 H128        4.1676  -13.9519  -49.1051 H         1 UNK         0.0600 
    129 H129        4.5275  -13.9373  -47.3781 H         1 UNK         0.0600 
    130 H130        1.7341  -13.1836  -49.5225 H         1 UNK         0.3000 
    131 H131        0.1619  -15.3563  -48.8066 H         1 UNK         0.0600 
    132 H132       -1.5966  -14.3714  -50.1557 H         1 UNK         0.0800 
    133 H133       -0.8616  -12.7984  -50.0613 H         1 UNK         0.0800 
    134 H134       -0.3965  -15.9016  -53.1184 H         1 UNK         0.0800 
    135 H135       -0.9976  -16.2199  -51.5149 H         1 UNK         0.0800 
    136 H136        0.4191  -18.1324  -53.5286 H         1 UNK         0.1150 
    137 H137        3.6332  -19.7127  -51.1687 H         1 UNK         0.1150 
    138 H138        1.8245  -15.9959  -50.1004 H         1 UNK         0.1150 
    139 H139        4.6917  -18.1220  -49.4960 H         1 UNK         0.0800 
    140 H140        3.8303  -16.7001  -48.9722 H         1 UNK         0.0800 
    141 H141        1.3272  -17.0242  -48.1690 H         1 UNK         0.0800 
    142 H142        1.2788  -17.6157  -46.5547 H         1 UNK         0.0800 
    143 H143        0.5121  -19.3276  -48.9638 H         1 UNK         0.0600 
    144 H144        0.8219  -19.9772  -46.2443 H         1 UNK         0.3000 
    145 H145       -0.8706  -23.1520  -46.5338 H         1 UNK         0.0600 
    146 H146        1.4443  -23.8629  -45.9770 H         1 UNK         0.0600 
    147 H147        1.3470  -23.3306  -47.6492 H         1 UNK         0.0600 
    148 H148        2.0675  -22.2787  -46.4349 H         1 UNK         0.0600 
    149 H149        0.4056  -21.1384  -44.7106 H         1 UNK         0.3000 
    150 H150       -2.2257  -21.5850  -42.4105 H         1 UNK         0.0600 
    151 H151       -0.5706  -23.2438  -41.5097 H         1 UNK         0.0600 
    152 H152       -0.4497  -21.6968  -40.6848 H         1 UNK         0.0600 
    153 H153        0.7468  -22.1427  -41.9003 H         1 UNK         0.0600 
    154 H154       -0.1280  -19.7931  -42.1885 H         1 UNK         0.3000 
    155 H155       -0.6493  -17.5468  -44.8498 H         1 UNK         0.0600 
    156 H156       -1.3814  -17.1144  -41.9162 H         1 UNK         0.0600 
    157 H157       -2.4672  -16.8479  -43.2683 H         1 UNK         0.0600 
    158 H158       -1.0278  -15.8554  -43.1011 H         1 UNK         0.0600 
    159 H159        1.0243  -17.1384  -42.7215 H         1 UNK         0.3000 
    160 H160        3.8443  -19.1346  -43.6742 H         1 UNK         0.0600 
    161 H161        4.7450  -16.8262  -43.5471 H         1 UNK         0.0600 
    162 H162        3.1185  -16.1525  -43.5928 H         1 UNK         0.0600 
    163 H163        3.7510  -17.0191  -44.9831 H         1 UNK         0.0600 
    164 H164        3.0077  -17.3991  -41.4491 H         1 UNK         0.3000 
    165 H165        2.4946  -20.0619  -39.1811 H         1 UNK         0.0600 
    166 H166        4.2302  -18.9211  -37.8232 H         1 UNK         0.0600 
    167 H167        4.9852  -19.8571  -39.1029 H         1 UNK         0.0600 
    168 H168        4.8594  -18.1088  -39.2573 H         1 UNK         0.0600 
    169 H169        2.5873  -17.2260  -38.8405 H         1 UNK         0.3000 
    170 H170       -0.7523  -16.5017  -39.7957 H         1 UNK         0.0600 
    171 H171       -0.9463  -17.4450  -37.4910 H         1 UNK         0.0600 
    172 H172        0.5494  -16.6424  -37.0276 H         1 UNK         0.0600 
    173 H173       -0.8694  -15.6911  -37.4674 H         1 UNK         0.0600 
    174 H174        1.1692  -14.8211  -38.6404 H         1 UNK         0.3000 
    175 H175        1.8869  -13.0496  -40.0577 H         1 UNK         0.0600 
    176 H176        3.7904  -14.5030  -39.2240 H         1 UNK         0.0600 
    177 H177        4.3937  -13.2212  -40.2563 H         1 UNK         0.0600 
    178 H178        4.2472  -14.8600  -40.8859 H         1 UNK         0.0600 
    179 H179        1.9561  -14.0175  -42.7411 H         1 UNK         0.3000 
    180 H180        2.6040  -10.8123  -44.1714 H         1 UNK         0.0600 
    181 H181        3.9825  -13.4878  -44.7235 H         1 UNK         0.0600 
    182 H182        4.8229  -12.0301  -44.2060 H         1 UNK         0.0600 
    183 H183        3.9817  -12.0449  -45.7425 H         1 UNK         0.0600 
    184 H184        1.6490  -13.2822  -45.2877 H         1 UNK         0.3000 
    185 H185       -1.1189  -13.6383  -44.8974 H         1 UNK         0.0600 
    186 H186       -2.5783  -11.6513  -44.5185 H         1 UNK         0.0600 
    187 H187       -1.9514  -10.8869  -45.9760 H         1 UNK         0.0600 
    188 H188       -2.9130  -12.3601  -46.0872 H         1 UNK         0.0600 
    189 H189        0.4792  -12.4548  -46.9961 H         1 UNK         0.3000 
    190 H190       -1.8048  -18.7707  -46.3286 H         1 UNK         0.3000 
    191 H191       -3.3513  -16.8766  -48.0044 H         1 UNK         0.0600 
    192 H192       -4.0563  -18.0059  -45.2567 H         1 UNK         0.0600 
    193 H193       -4.8366  -16.6876  -46.1084 H         1 UNK         0.0600 
    194 H194       -3.1895  -16.4899  -45.5376 H         1 UNK         0.0600 
    195 H195       -3.2437  -20.2980  -47.1002 H         1 UNK         0.3000 
    196 H196       -5.8089  -21.0355  -48.2086 H         1 UNK         0.0600 
    197 H197       -4.9257  -23.3347  -48.0447 H         1 UNK         0.0600 
    198 H198       -4.5940  -22.4634  -46.5576 H         1 UNK         0.0600 
    199 H199       -3.3057  -22.7413  -47.7265 H         1 UNK         0.0600 
    200 H200       -2.4754  -20.8026  -49.4574 H         1 UNK         0.3000 
    201 H201       -2.8963  -21.6312  -52.1038 H         1 UNK         0.0600 
    202 H202       -0.6743  -21.2721  -51.0921 H         1 UNK         0.0600 
    203 H203       -0.9486  -19.5343  -51.0332 H         1 UNK         0.0600 
    204 H204       -0.8441  -20.3513  -52.5830 H         1 UNK         0.0600 
    205 H205       -3.1793  -18.3620  -50.6535 H         1 UNK         0.3000 
    206 H206       -3.9592  -16.9473  -52.9731 H         1 UNK         0.0600 
    207 H207       -3.1437  -15.9337  -50.7921 H         1 UNK         0.0600 
    208 H208       -4.6012  -15.1770  -51.4150 H         1 UNK         0.0600 
    209 H209       -4.7019  -16.3004  -50.0695 H         1 UNK         0.0600 
    210 H210       -5.8802  -18.7551  -50.5902 H         1 UNK         0.3000 
    211 H211       -8.4752  -18.0808  -51.6586 H         1 UNK         0.0600 
    212 H212       -7.6171  -20.2973  -49.7314 H         1 UNK         0.0600 
    213 H213       -9.2608  -19.7294  -49.9955 H         1 UNK         0.0600 
    214 H214       -8.0751  -18.6606  -49.2640 H         1 UNK         0.0600 
    215 H215       -7.0940  -18.7757  -53.8316 H         1 UNK         0.3000 
    216 H216       -7.0904  -19.9213  -55.7263 H         1 UNK         0.0600 
    217 H217       -9.1990  -20.9904  -56.4344 H         1 UNK         0.0600 
    218 H218       -9.5485  -19.5172  -55.5466 H         1 UNK         0.0600 
    219 H219       -9.7575  -21.0861  -54.7697 H         1 UNK         0.0600 
    220 H220       -5.4167  -21.0389  -53.9062 H         1 UNK         0.3000 
    221 H221       -4.1202  -22.7717  -53.4684 H         1 UNK         0.0600 
    222 H222       -3.6836  -24.3899  -55.2699 H         1 UNK         0.0600 
    223 H223       -3.8620  -22.7754  -55.9340 H         1 UNK         0.0600 
    224 H224       -5.1759  -23.9426  -56.0874 H         1 UNK         0.0600 
    225 H225       -5.9879  -22.9159  -51.7282 H         1 UNK         0.3000 
    226 H226       -7.5471  -25.3671  -51.7117 H         1 UNK         0.0600 
    227 H227       -8.2196  -24.5566  -49.4648 H         1 UNK         0.0600 
    228 H228       -7.0226  -23.2711  -49.5405 H         1 UNK         0.0600 
    229 H229       -8.3787  -23.2828  -50.6636 H         1 UNK         0.0600 
    230 H230       -5.5384  -26.6155  -52.2135 H         1 UNK         0.3000 
    231 H231       -4.1212  -28.2486  -51.7506 H         1 UNK         0.0600 
    232 H232       -5.8437  -29.0555  -50.1175 H         1 UNK         0.0600 
    233 H233       -5.0355  -28.1623  -48.8297 H         1 UNK         0.0600 
    234 H234       -4.2120  -29.4878  -49.6365 H         1 UNK         0.0600 
    235 H235       -3.1796  -25.5670  -51.7971 H         1 UNK         0.3000 
    236 H236       -0.5251  -26.0025  -50.6775 H         1 UNK         0.0600 
    237 H237       -1.5977  -24.6863  -48.8493 H         1 UNK         0.0600 
    238 H238       -0.4520  -23.6738  -49.7175 H         1 UNK         0.0600 
    239 H239       -2.1772  -23.4994  -50.0134 H         1 UNK         0.0600 
    240 H240        1.0008  -25.1469  -52.0213 H         1 UNK         0.3000 
    241 H241        1.9778  -24.4662  -53.8569 H         1 UNK         0.0600 
    242 H242       -0.5014  -26.5361  -55.9535 H         1 UNK         0.3800 
    243 H243       -0.3295  -26.5214  -54.2184 H         1 UNK         0.3800 
    244 H244        1.3393  -22.3191  -54.9515 H         1 UNK         0.0800 
    245 H245       -0.1506  -22.2824  -54.0427 H         1 UNK         0.0800 
    246 H246        3.2093  -20.2580  -53.8061 H         1 UNK         0.0800 
    247 H247        1.5497  -20.0441  -54.3016 H         1 UNK         0.0800 
@<TRIPOS>BOND
     1    1    2 1    
     2    1  127 1    
     3    1  128 1    
     4    1  129 1    
     5    2    3 2    
     6    2    4 am   BACKBONE|DICT|INTERRES
     7    4    5 1    
     8    4  130 1    
     9    5    6 1    
    10    5   65 1    
    11    5  131 1    
    12    6    7 1    
    13    6  132 1    
    14    6  133 1    
    15    7    8 1    
    16    8    9 1    
    17    8  134 1    
    18    8  135 1    
    19    9   10 ar   
    20    9   14 ar   
    21   10   11 ar   
    22   10  136 1    
    23   11   12 ar   
    24   11  126 1    
    25   12   13 ar   
    26   12  137 1    
    27   13   14 ar   
    28   13   15 1    
    29   14  138 1    
    30   15   16 1    
    31   15  139 1    
    32   15  140 1    
    33   16   17 1    
    34   17   18 1    
    35   17  141 1    
    36   17  142 1    
    37   18   19 1    
    38   18   67 1    
    39   18  143 1    
    40   19   20 am   BACKBONE|DICT|INTERRES
    41   19  144 1    
    42   20   21 2    
    43   20   22 1    
    44   22   23 1    
    45   22   24 1    
    46   22  145 1    
    47   23  146 1    
    48   23  147 1    
    49   23  148 1    
    50   24   25 am   BACKBONE|DICT|INTERRES
    51   24  149 1    
    52   25   26 2    
    53   25   27 1    
    54   27   28 1    
    55   27   29 1    
    56   27  150 1    
    57   28  151 1    
    58   28  152 1    
    59   28  153 1    
    60   29   30 am   BACKBONE|DICT|INTERRES
    61   29  154 1    
    62   30   31 2    
    63   30   32 1    
    64   32   33 1    
    65   32   34 1    
    66   32  155 1    
    67   33  156 1    
    68   33  157 1    
    69   33  158 1    
    70   34   35 am   BACKBONE|DICT|INTERRES
    71   34  159 1    
    72   35   36 2    
    73   35   37 1    
    74   37   38 1    
    75   37   39 1    
    76   37  160 1    
    77   38  161 1    
    78   38  162 1    
    79   38  163 1    
    80   39   40 am   BACKBONE|DICT|INTERRES
    81   39  164 1    
    82   40   41 2    
    83   40   42 1    
    84   42   43 1    
    85   42   44 1    
    86   42  165 1    
    87   43  166 1    
    88   43  167 1    
    89   43  168 1    
    90   44   45 am   BACKBONE|DICT|INTERRES
    91   44  169 1    
    92   45   46 2    
    93   45   47 1    
    94   47   48 1    
    95   47   49 1    
    96   47  170 1    
    97   48  171 1    
    98   48  172 1    
    99   48  173 1    
   100   49   50 am   BACKBONE|DICT|INTERRES
   101   49  174 1    
   102   50   51 2    
   103   50   52 1    
   104   52   53 1    
   105   52   54 1    
   106   52  175 1    
   107   53  176 1    
   108   53  177 1    
   109   53  178 1    
   110   54   55 am   BACKBONE|DICT|INTERRES
   111   54  179 1    
   112   55   56 2    
   113   55   57 1    
   114   57   58 1    
   115   57   59 1    
   116   57  180 1    
   117   58  181 1    
   118   58  182 1    
   119   58  183 1    
   120   59   60 am   BACKBONE|DICT|INTERRES
   121   59  184 1    
   122   60   61 2    
   123   60   62 1    
   124   62   63 1    
   125   62   64 1    
   126   62  185 1    
   127   63  186 1    
   128   63  187 1    
   129   63  188 1    
   130   64   65 am   BACKBONE|DICT|INTERRES
   131   64  189 1    
   132   65   66 2    
   133   67   68 2    
   134   67   69 am   BACKBONE|DICT|INTERRES
   135   69   70 1    
   136   69  190 1    
   137   70   71 1    
   138   70   72 1    
   139   70  191 1    
   140   71  192 1    
   141   71  193 1    
   142   71  194 1    
   143   72   73 2    
   144   72   74 am   BACKBONE|DICT|INTERRES
   145   74   75 1    
   146   74  195 1    
   147   75   76 1    
   148   75   77 1    
   149   75  196 1    
   150   76  197 1    
   151   76  198 1    
   152   76  199 1    
   153   77   78 2    
   154   77   79 am   BACKBONE|DICT|INTERRES
   155   79   80 1    
   156   79  200 1    
   157   80   81 1    
   158   80   82 1    
   159   80  201 1    
   160   81  202 1    
   161   81  203 1    
   162   81  204 1    
   163   82   83 2    
   164   82   84 am   BACKBONE|DICT|INTERRES
   165   84   85 1    
   166   84  205 1    
   167   85   86 1    
   168   85   87 1    
   169   85  206 1    
   170   86  207 1    
   171   86  208 1    
   172   86  209 1    
   173   87   88 2    
   174   87   89 am   BACKBONE|DICT|INTERRES
   175   89   90 1    
   176   89  210 1    
   177   90   91 1    
   178   90   92 1    
   179   90  211 1    
   180   91  212 1    
   181   91  213 1    
   182   91  214 1    
   183   92   93 2    
   184   92   94 am   BACKBONE|DICT|INTERRES
   185   94   95 1    
   186   94  215 1    
   187   95   96 1    
   188   95   97 1    
   189   95  216 1    
   190   96  217 1    
   191   96  218 1    
   192   96  219 1    
   193   97   98 2    
   194   97   99 am   BACKBONE|DICT|INTERRES
   195   99  100 1    
   196   99  220 1    
   197  100  101 1    
   198  100  102 1    
   199  100  221 1    
   200  101  222 1    
   201  101  223 1    
   202  101  224 1    
   203  102  103 2    
   204  102  104 am   BACKBONE|DICT|INTERRES
   205  104  105 1    
   206  104  225 1    
   207  105  106 1    
   208  105  107 1    
   209  105  226 1    
   210  106  227 1    
   211  106  228 1    
   212  106  229 1    
   213  107  108 2    
   214  107  109 am   BACKBONE|DICT|INTERRES
   215  109  110 1    
   216  109  230 1    
   217  110  111 1    
   218  110  112 1    
   219  110  231 1    
   220  111  232 1    
   221  111  233 1    
   222  111  234 1    
   223  112  113 2    
   224  112  114 am   BACKBONE|DICT|INTERRES
   225  114  115 1    
   226  114  235 1    
   227  115  116 1    
   228  115  117 1    
   229  115  236 1    
   230  116  237 1    
   231  116  238 1    
   232  116  239 1    
   233  117  118 2    
   234  117  119 am   BACKBONE|DICT|INTERRES
   235  119  120 1    
   236  119  240 1    
   237  120  121 1    
   238  120  124 1    
   239  120  241 1    
   240  121  122 am   BACKBONE|DICT|INTERRES
   241  121  123 2    
   242  122  242 1    
   243  122  243 1    
   244  124  125 1    
   245  124  244 1    
   246  124  245 1    
   247  125  126 1    
   248  126  246 1    
   249  126  247 1    
@<TRIPOS>SUBSTRUCTURE
     1 UNK         1 GROUP             0       ****    0 ROOT    
