@<TRIPOS>MOLECULE
3R540
247   249    1
SMALL
USER_CHARGES


@<TRIPOS>ATOM
      1 CA          0.1369  -15.2390  -50.2860 C.3       0 UNK        -0.1800 
      2 C           1.0075  -14.5617  -49.2375 C.2       0 UNK         0.5000 
      3 O           0.5757  -14.4008  -48.0978 O.2       0 UNK        -0.5000 
      4 N           2.2360  -14.1826  -49.6204 N.am      1 UNK        -0.5000 
      5 CA          3.2694  -13.5664  -48.7698 C.3       1 UNK         0.1400 
      6 C6          3.8174  -14.5139  -47.6651 C.3       23 UNK        -0.0398 
      7 S7          4.5889  -16.0179  -48.3543 S.3       23 UNK        -0.2404 
      8 C8          3.2826  -17.2442  -48.0502 C.3       23 UNK        -0.0205 
      9 C9          3.4415  -18.4685  -48.9342 C.ar      23 UNK        -0.0193 
     10 C10         3.2277  -18.3649  -50.3116 C.ar      23 UNK        -0.1150 
     11 C11         3.3908  -19.4773  -51.1397 C.ar      23 UNK        -0.0193 
     12 C12         3.7473  -20.7067  -50.5737 C.ar      23 UNK        -0.1150 
     13 C13         3.9411  -20.8331  -49.1928 C.ar      23 UNK        -0.0193 
     14 C14         3.7963  -19.7016  -48.3809 C.ar      23 UNK        -0.1150 
     15 C15         4.3778  -22.1782  -48.6124 C.3       23 UNK        -0.0205 
     16 S16         3.6654  -22.5742  -46.9763 S.3       23 UNK        -0.2404 
     17 C17         1.9905  -23.1549  -47.4039 C.3       23 UNK        -0.0398 
     18 CA          1.3819  -24.0255  -46.2755 C.3       11 UNK         0.1400 
     19 N           1.0869  -23.2515  -45.0617 N.am      11 UNK        -0.5000 
     20 C           0.8584  -23.7891  -43.8536 C.2       10 UNK         0.5000 
     21 O           0.9838  -24.9893  -43.6074 O.2       10 UNK        -0.5000 
     22 CA          0.3704  -22.8423  -42.7396 C.3       10 UNK         0.1400 
     23 CB          1.5570  -22.2539  -41.9619 C.3       10 UNK        -0.1800 
     24 N          -0.4817  -21.7617  -43.2416 N.am      10 UNK        -0.5000 
     25 C          -1.7112  -21.9370  -43.7491 C.2       9 UNK         0.5000 
     26 O          -2.2866  -23.0239  -43.7800 O.2       9 UNK        -0.5000 
     27 CA         -2.4017  -20.7053  -44.3635 C.3       9 UNK         0.1400 
     28 CB         -3.1906  -19.9295  -43.2997 C.3       9 UNK        -0.1800 
     29 N          -1.4685  -19.8018  -45.0352 N.am      9 UNK        -0.5000 
     30 C          -0.7481  -20.1167  -46.1206 C.2       8 UNK         0.5000 
     31 O          -0.8207  -21.2004  -46.7000 O.2       8 UNK        -0.5000 
     32 CA          0.2615  -19.0583  -46.6028 C.3       8 UNK         0.1400 
     33 CB         -0.4366  -17.9467  -47.3998 C.3       8 UNK        -0.1800 
     34 N           1.0011  -18.4703  -45.4866 N.am      8 UNK        -0.5000 
     35 C           1.8572  -19.1521  -44.7124 C.2       7 UNK         0.5000 
     36 O           2.1516  -20.3312  -44.8967 O.2       7 UNK        -0.5000 
     37 CA          2.4345  -18.4079  -43.4974 C.3       7 UNK         0.1400 
     38 CB          3.6875  -17.6078  -43.8857 C.3       7 UNK        -0.1800 
     39 N           1.4406  -17.5229  -42.8874 N.am      7 UNK        -0.5000 
     40 C           0.3923  -17.9630  -42.1733 C.2       6 UNK         0.5000 
     41 O           0.1960  -19.1508  -41.9197 O.2       6 UNK        -0.5000 
     42 CA         -0.6336  -16.9149  -41.6988 C.3       6 UNK         0.1400 
     43 CB         -0.2253  -16.3406  -40.3344 C.3       6 UNK        -0.1800 
     44 N          -0.8119  -15.8178  -42.6494 N.am      6 UNK        -0.5000 
     45 C          -1.2794  -15.9542  -43.8985 C.2       5 UNK         0.5000 
     46 O          -1.7033  -17.0176  -44.3486 O.2       5 UNK        -0.5000 
     47 CA         -1.2110  -14.7149  -44.8136 C.3       5 UNK         0.1400 
     48 CB         -2.5786  -14.0222  -44.8911 C.3       5 UNK        -0.1800 
     49 N          -0.1994  -13.7361  -44.4036 N.am      5 UNK        -0.5000 
     50 C           1.1202  -13.9601  -44.3540 C.2       4 UNK         0.5000 
     51 O           1.6287  -15.0459  -44.6374 O.2       4 UNK        -0.5000 
     52 CA          1.9978  -12.7922  -43.8593 C.3       4 UNK         0.1400 
     53 CB          3.5038  -13.0920  -43.9566 C.3       4 UNK        -0.1800 
     54 N           1.7036  -11.5394  -44.5596 N.am      4 UNK        -0.5000 
     55 C           0.7096  -10.6974  -44.2401 C.2       3 UNK         0.5000 
     56 O          -0.1012  -10.9273  -43.3417 O.2       3 UNK        -0.5000 
     57 CA          0.5805   -9.3908  -45.0469 C.3       3 UNK         0.1400 
     58 CB          1.2162   -8.2231  -44.2771 C.3       3 UNK        -0.1800 
     59 N           1.1848   -9.4641  -46.3760 N.am      3 UNK        -0.5000 
     60 C           0.6634  -10.1255  -47.4167 C.2       2 UNK         0.5000 
     61 O          -0.4123  -10.7241  -47.3753 O.2       2 UNK        -0.5000 
     62 CA          1.4779  -10.1295  -48.7275 C.3       2 UNK         0.1400 
     63 CB          2.5856   -9.0528  -48.7887 C.3       2 UNK        -0.1800 
     64 N           2.0370  -11.4538  -49.0102 N.am      2 UNK        -0.5000 
     65 C           2.8436  -12.1822  -48.2217 C.2       1 UNK         0.5000 
     66 O           3.2553  -11.7940  -47.1264 O.2       1 UNK        -0.5000 
     67 C           0.1511  -24.8250  -46.7677 C.2       11 UNK         0.5000 
     68 O           0.3373  -25.8569  -47.4131 O.2       11 UNK        -0.5000 
     69 N          -1.0636  -24.3690  -46.4160 N.am      12 UNK        -0.5000 
     70 CA         -2.3565  -25.0531  -46.5581 C.3       12 UNK         0.1400 
     71 CB         -2.4339  -26.2470  -45.5847 C.3       12 UNK        -0.1800 
     72 C          -2.6831  -25.4399  -48.0142 C.2       12 UNK         0.5000 
     73 O          -3.0167  -26.5912  -48.2999 O.2       12 UNK        -0.5000 
     74 N          -2.5570  -24.4496  -48.8997 N.am      13 UNK        -0.5000 
     75 CA         -2.7969  -24.5045  -50.3414 C.3       13 UNK         0.1400 
     76 CB         -1.9157  -25.5592  -51.0425 C.3       13 UNK        -0.1800 
     77 C          -2.5152  -23.1192  -50.9317 C.2       13 UNK         0.5000 
     78 O          -3.2929  -22.6310  -51.7499 O.2       13 UNK        -0.5000 
     79 N          -1.4178  -22.4956  -50.4729 N.am      14 UNK        -0.5000 
     80 CA         -1.0284  -21.1185  -50.7836 C.3       14 UNK         0.1400 
     81 CB          0.2971  -20.8133  -50.0802 C.3       14 UNK        -0.1800 
     82 C          -2.1139  -20.1122  -50.3701 C.2       14 UNK         0.5000 
     83 O          -2.4973  -19.2610  -51.1709 O.2       14 UNK        -0.5000 
     84 N          -2.6336  -20.3174  -49.1581 N.am      15 UNK        -0.5000 
     85 CA         -3.9508  -19.9184  -48.6925 C.3       15 UNK         0.1400 
     86 CB         -3.8612  -18.6287  -47.8624 C.3       15 UNK        -0.1800 
     87 C          -4.4871  -21.0988  -47.8650 C.2       15 UNK         0.5000 
     88 O          -3.7172  -22.0052  -47.5283 O.2       15 UNK        -0.5000 
     89 N          -5.7888  -21.0640  -47.5527 N.am      16 UNK        -0.5000 
     90 CA         -6.5459  -22.0880  -46.8198 C.3       16 UNK         0.1400 
     91 CB         -5.9824  -22.2658  -45.3913 C.3       16 UNK        -0.1800 
     92 C          -6.6566  -23.4342  -47.5731 C.2       16 UNK         0.5000 
     93 O          -6.1455  -23.5785  -48.6862 O.2       16 UNK        -0.5000 
     94 N          -7.3757  -24.3867  -46.9600 N.am      17 UNK        -0.5000 
     95 CA         -7.6851  -25.7551  -47.4090 C.3       17 UNK         0.1400 
     96 CB         -6.4018  -26.5788  -47.6258 C.3       17 UNK        -0.1800 
     97 C          -8.6156  -25.8446  -48.6377 C.2       17 UNK         0.5000 
     98 O          -9.5304  -26.6695  -48.6448 O.2       17 UNK        -0.5000 
     99 N          -8.3842  -24.9923  -49.6368 N.am      18 UNK        -0.5000 
    100 CA        -9.1660  -24.8341  -50.8565 C.3       18 UNK         0.1400 
    101 CB        -8.7334  -25.8885  -51.8979 C.3       18 UNK        -0.1800 
    102 C         -9.0114  -23.3772  -51.3316 C.2       18 UNK         0.5000 
    103 O         -8.9211  -22.4737  -50.4957 O.2       18 UNK        -0.5000 
    104 N         -8.9749  -23.1596  -52.6526 N.am      19 UNK        -0.5000 
    105 CA        -8.6376  -21.8744  -53.2656 C.3       19 UNK         0.1400 
    106 CB        -8.9564  -21.9324  -54.7674 C.3       19 UNK        -0.1800 
    107 C         -7.1523  -21.5355  -53.0370 C.2       19 UNK         0.5000 
    108 O         -6.3081  -22.4294  -53.1220 O.2       19 UNK        -0.5000 
    109 N         -6.8690  -20.2594  -52.7521 N.am      20 UNK        -0.5000 
    110 CA        -5.5349  -19.7405  -52.4582 C.3       20 UNK         0.1400 
    111 CB        -5.6810  -18.3362  -51.8443 C.3       20 UNK        -0.1800 
    112 C         -4.6430  -19.7214  -53.7124 C.2       20 UNK         0.5000 
    113 O         -4.7703  -18.8151  -54.5387 O.2       20 UNK        -0.5000 
    114 N         -3.7606  -20.7203  -53.8353 N.am      21 UNK        -0.5000 
    115 CA        -2.8561  -20.9123  -54.9706 C.3       21 UNK         0.1400 
    116 CB        -2.1819  -22.2876  -54.8465 C.3       21 UNK        -0.1800 
    117 C         -1.7916  -19.8090  -55.1240 C.2       21 UNK         0.5000 
    118 O         -1.3024  -19.6031  -56.2357 O.2       21 UNK        -0.5000 
    119 N         -1.4593  -19.1240  -54.0231 N.am      22 UNK        -0.5000 
    120 CA        -0.4958  -18.0118  -53.9779 C.3       22 UNK         0.1400 
    121 C         -1.1886  -16.6250  -53.8319 C.2       22 UNK         0.5000 
    122 N         -2.5123  -16.5255  -53.8971 N.am      22 UNK        -0.7600 
    123 O         -0.5129  -15.6108  -53.6860 O.2       22 UNK        -0.5000 
    124 C124        0.5942  -18.2418  -52.8958 C.3       23 UNK        -0.0398 
    125 S125        1.5398  -19.7803  -53.1963 S.3       23 UNK        -0.2404 
    126 C126        3.2200  -19.3441  -52.6471 C.3       23 UNK        -0.0205 
    127 H127       -0.1736  -16.2255  -49.9424 H         1 UNK         0.0600 
    128 H128        0.6680  -15.3632  -51.2295 H         1 UNK         0.0600 
    129 H129       -0.7578  -14.6458  -50.4745 H         1 UNK         0.0600 
    130 H130        2.5191  -14.3471  -50.5762 H         1 UNK         0.3000 
    131 H131        4.1026  -13.3487  -49.4397 H         1 UNK         0.0600 
    132 H132        4.5938  -14.0118  -47.0864 H         1 UNK         0.0800 
    133 H133        3.0345  -14.7823  -46.9544 H         1 UNK         0.0800 
    134 H134        3.2856  -17.5173  -46.9952 H         1 UNK         0.0800 
    135 H135        2.3136  -16.7995  -48.2534 H         1 UNK         0.0800 
    136 H136        2.9566  -17.4102  -50.7395 H         1 UNK         0.1150 
    137 H137        3.8799  -21.5666  -51.2152 H         1 UNK         0.1150 
    138 H138        3.9658  -19.7780  -47.3160 H         1 UNK         0.1150 
    139 H139        4.1506  -22.9895  -49.3055 H         1 UNK         0.0800 
    140 H140        5.4636  -22.1598  -48.5128 H         1 UNK         0.0800 
    141 H141        1.3652  -22.2881  -47.6054 H         1 UNK         0.0800 
    142 H142        2.0533  -23.7200  -48.3356 H         1 UNK         0.0800 
    143 H143        2.1301  -24.7744  -46.0060 H         1 UNK         0.0600 
    144 H144        1.0337  -22.2454  -45.1681 H         1 UNK         0.3000 
    145 H145       -0.2240  -23.4363  -42.0422 H         1 UNK         0.0600 
    146 H146        1.2172  -21.6316  -41.1340 H         1 UNK         0.0600 
    147 H147        2.1972  -21.6451  -42.5992 H         1 UNK         0.0600 
    148 H148        2.1761  -23.0462  -41.5396 H         1 UNK         0.0600 
    149 H149       -0.1055  -20.8225  -43.1863 H         1 UNK         0.3000 
    150 H150       -3.1095  -21.0651  -45.1110 H         1 UNK         0.0600 
    151 H151       -3.9289  -20.5712  -42.8172 H         1 UNK         0.0600 
    152 H152       -3.7275  -19.0901  -43.7421 H         1 UNK         0.0600 
    153 H153       -2.5362  -19.5368  -42.5215 H         1 UNK         0.0600 
    154 H154       -1.3951  -18.8600  -44.6592 H         1 UNK         0.3000 
    155 H155        0.9860  -19.5471  -47.2566 H         1 UNK         0.0600 
    156 H156       -0.8040  -18.3234  -48.3531 H         1 UNK         0.0600 
    157 H157        0.2377  -17.1229  -47.6164 H         1 UNK         0.0600 
    158 H158       -1.2859  -17.5273  -46.8629 H         1 UNK         0.0600 
    159 H159        0.7985  -17.5085  -45.2534 H         1 UNK         0.3000 
    160 H160        2.7308  -19.1543  -42.7573 H         1 UNK         0.0600 
    161 H161        3.4756  -16.8579  -44.6472 H         1 UNK         0.0600 
    162 H162        4.4586  -18.2672  -44.2863 H         1 UNK         0.0600 
    163 H163        4.1126  -17.0965  -43.0221 H         1 UNK         0.0600 
    164 H164        1.5067  -16.5401  -43.1234 H         1 UNK         0.3000 
    165 H165       -1.5954  -17.4189  -41.5846 H         1 UNK         0.0600 
    166 H166       -0.9822  -15.6557  -39.9519 H         1 UNK         0.0600 
    167 H167       -0.1056  -17.1356  -39.5970 H         1 UNK         0.0600 
    168 H168        0.7204  -15.8001  -40.3910 H         1 UNK         0.0600 
    169 H169       -0.4943  -14.9058  -42.3575 H         1 UNK         0.3000 
    170 H170       -0.9464  -15.0649  -45.8135 H         1 UNK         0.0600 
    171 H171       -3.3510  -14.7185  -45.2207 H         1 UNK         0.0600 
    172 H172       -2.8839  -13.6250  -43.9223 H         1 UNK         0.0600 
    173 H173       -2.5608  -13.1968  -45.6033 H         1 UNK         0.0600 
    174 H174       -0.5304  -12.8181  -44.1303 H         1 UNK         0.3000 
    175 H175        1.7705  -12.6624  -42.7992 H         1 UNK         0.0600 
    176 H176        3.8149  -13.2653  -44.9848 H         1 UNK         0.0600 
    177 H177        4.0965  -12.2665  -43.5625 H         1 UNK         0.0600 
    178 H178        3.7651  -13.9815  -43.3818 H         1 UNK         0.0600 
    179 H179        2.2788  -11.3383  -45.3715 H         1 UNK         0.3000 
    180 H180       -0.4850   -9.1809  -45.1630 H         1 UNK         0.0600 
    181 H181        1.0694   -7.2783  -44.8009 H         1 UNK         0.0600 
    182 H182        2.2883   -8.3683  -44.1384 H         1 UNK         0.0600 
    183 H183        0.7686   -8.1171  -43.2878 H         1 UNK         0.0600 
    184 H184        2.0845   -9.0204  -46.4910 H         1 UNK         0.3000 
    185 H185        0.7676   -9.9140  -49.5270 H         1 UNK         0.0600 
    186 H186        3.0548   -9.0374  -49.7725 H         1 UNK         0.0600 
    187 H187        2.1759   -8.0568  -48.6159 H         1 UNK         0.0600 
    188 H188        3.3737   -9.2222  -48.0545 H         1 UNK         0.0600 
    189 H189        1.7257  -11.8814  -49.8707 H         1 UNK         0.3000 
    190 H190       -1.1024  -23.4814  -45.9313 H         1 UNK         0.3000 
    191 H191       -3.1193  -24.3358  -46.2523 H         1 UNK         0.0600 
    192 H192       -3.4242  -26.7031  -45.6027 H         1 UNK         0.0600 
    193 H193       -2.2419  -25.9289  -44.5597 H         1 UNK         0.0600 
    194 H194       -1.7095  -27.0222  -45.8364 H         1 UNK         0.0600 
    195 H195       -2.4129  -23.5209  -48.5211 H         1 UNK         0.3000 
    196 H196       -3.8503  -24.7392  -50.5068 H         1 UNK         0.0600 
    197 H197       -2.0053  -25.4839  -52.1272 H         1 UNK         0.0600 
    198 H198       -2.2080  -26.5734  -50.7729 H         1 UNK         0.0600 
    199 H199       -0.8620  -25.4363  -50.7899 H         1 UNK         0.0600 
    200 H200       -0.8159  -22.9984  -49.8385 H         1 UNK         0.3000 
    201 H201       -0.8834  -21.0414  -51.8621 H         1 UNK         0.0600 
    202 H202        0.2228  -20.9599  -49.0077 H         1 UNK         0.0600 
    203 H203        0.6092  -19.7824  -50.2387 H         1 UNK         0.0600 
    204 H204        1.0898  -21.4615  -50.4510 H         1 UNK         0.0600 
    205 H205       -2.2360  -21.0507  -48.5803 H         1 UNK         0.3000 
    206 H206       -4.6131  -19.7628  -49.5435 H         1 UNK         0.0600 
    207 H207       -3.3610  -17.8353  -48.4178 H         1 UNK         0.0600 
    208 H208       -4.8549  -18.2639  -47.6020 H         1 UNK         0.0600 
    209 H209       -3.3208  -18.7855  -46.9298 H         1 UNK         0.0600 
    210 H210       -6.3418  -20.2931  -47.8986 H         1 UNK         0.3000 
    211 H211       -7.5611  -21.6981  -46.7330 H         1 UNK         0.0600 
    212 H212       -5.0262  -22.7902  -45.3907 H         1 UNK         0.0600 
    213 H213       -6.6644  -22.8392  -44.7633 H         1 UNK         0.0600 
    214 H214       -5.8341  -21.3027  -44.9027 H         1 UNK         0.0600 
    215 H215       -7.7900  -24.1458  -46.0705 H         1 UNK         0.3000 
    216 H216       -8.2257  -26.2151  -46.5803 H         1 UNK         0.0600 
    217 H217       -5.7631  -26.5568  -46.7430 H         1 UNK         0.0600 
    218 H218       -5.8187  -26.2107  -48.4703 H         1 UNK         0.0600 
    219 H219       -6.6402  -27.6233  -47.8295 H         1 UNK         0.0600 
    220 H220       -7.6203  -24.3289  -49.5182 H         1 UNK         0.3000 
    221 H221      -10.2225  -24.9798  -50.6232 H         1 UNK         0.0600 
    222 H222       -9.3662  -25.8567  -52.7854 H         1 UNK         0.0600 
    223 H223       -7.7000  -25.7393  -52.2141 H         1 UNK         0.0600 
    224 H224       -8.8119  -26.8975  -51.4926 H         1 UNK         0.0600 
    225 H225       -9.0179  -23.9540  -53.2736 H         1 UNK         0.3000 
    226 H226       -9.2575  -21.1002  -52.8082 H         1 UNK         0.0600 
    227 H227      -10.0114  -22.1466  -54.9395 H         1 UNK         0.0600 
    228 H228       -8.7355  -20.9793  -55.2498 H         1 UNK         0.0600 
    229 H229       -8.3700  -22.7000  -55.2744 H         1 UNK         0.0600 
    230 H230       -7.6196  -19.5845  -52.7386 H         1 UNK         0.3000 
    231 H231       -5.0705  -20.3929  -51.7166 H         1 UNK         0.0600 
    232 H232       -4.7069  -17.8979  -51.6256 H         1 UNK         0.0600 
    233 H233       -6.2382  -18.3702  -50.9082 H         1 UNK         0.0600 
    234 H234       -6.2001  -17.6524  -52.5169 H         1 UNK         0.0600 
    235 H235       -3.7254  -21.4342  -53.1088 H         1 UNK         0.3000 
    236 H236       -3.4624  -20.9108  -55.8787 H         1 UNK         0.0600 
    237 H237       -1.5457  -22.3443  -53.9625 H         1 UNK         0.0600 
    238 H238       -2.9214  -23.0858  -54.7789 H         1 UNK         0.0600 
    239 H239       -1.5554  -22.4959  -55.7146 H         1 UNK         0.0600 
    240 H240       -1.9408  -19.3223  -53.1528 H         1 UNK         0.3000 
    241 H241        0.0266  -17.9505  -54.9340 H         1 UNK         0.0600 
    242 H242       -2.9415  -15.6180  -53.8126 H         1 UNK         0.3800 
    243 H243       -3.0881  -17.3381  -54.0682 H         1 UNK         0.3800 
    244 H244        0.1431  -18.2812  -51.9046 H         1 UNK         0.0800 
    245 H245        1.2919  -17.4034  -52.8796 H         1 UNK         0.0800 
    246 H246        3.9275  -20.0069  -53.1475 H         1 UNK         0.0800 
    247 H247        3.4740  -18.3359  -52.9772 H         1 UNK         0.0800 
@<TRIPOS>BOND
     1    1    2 1    
     2    1  127 1    
     3    1  128 1    
     4    1  129 1    
     5    2    3 2    
     6    2    4 am   BACKBONE|DICT|INTERRES
     7    4    5 1    
     8    4  130 1    
     9    5    6 1    
    10    5   65 1    
    11    5  131 1    
    12    6    7 1    
    13    6  132 1    
    14    6  133 1    
    15    7    8 1    
    16    8    9 1    
    17    8  134 1    
    18    8  135 1    
    19    9   10 ar   
    20    9   14 ar   
    21   10   11 ar   
    22   10  136 1    
    23   11   12 ar   
    24   11  126 1    
    25   12   13 ar   
    26   12  137 1    
    27   13   14 ar   
    28   13   15 1    
    29   14  138 1    
    30   15   16 1    
    31   15  139 1    
    32   15  140 1    
    33   16   17 1    
    34   17   18 1    
    35   17  141 1    
    36   17  142 1    
    37   18   19 1    
    38   18   67 1    
    39   18  143 1    
    40   19   20 am   BACKBONE|DICT|INTERRES
    41   19  144 1    
    42   20   21 2    
    43   20   22 1    
    44   22   23 1    
    45   22   24 1    
    46   22  145 1    
    47   23  146 1    
    48   23  147 1    
    49   23  148 1    
    50   24   25 am   BACKBONE|DICT|INTERRES
    51   24  149 1    
    52   25   26 2    
    53   25   27 1    
    54   27   28 1    
    55   27   29 1    
    56   27  150 1    
    57   28  151 1    
    58   28  152 1    
    59   28  153 1    
    60   29   30 am   BACKBONE|DICT|INTERRES
    61   29  154 1    
    62   30   31 2    
    63   30   32 1    
    64   32   33 1    
    65   32   34 1    
    66   32  155 1    
    67   33  156 1    
    68   33  157 1    
    69   33  158 1    
    70   34   35 am   BACKBONE|DICT|INTERRES
    71   34  159 1    
    72   35   36 2    
    73   35   37 1    
    74   37   38 1    
    75   37   39 1    
    76   37  160 1    
    77   38  161 1    
    78   38  162 1    
    79   38  163 1    
    80   39   40 am   BACKBONE|DICT|INTERRES
    81   39  164 1    
    82   40   41 2    
    83   40   42 1    
    84   42   43 1    
    85   42   44 1    
    86   42  165 1    
    87   43  166 1    
    88   43  167 1    
    89   43  168 1    
    90   44   45 am   BACKBONE|DICT|INTERRES
    91   44  169 1    
    92   45   46 2    
    93   45   47 1    
    94   47   48 1    
    95   47   49 1    
    96   47  170 1    
    97   48  171 1    
    98   48  172 1    
    99   48  173 1    
   100   49   50 am   BACKBONE|DICT|INTERRES
   101   49  174 1    
   102   50   51 2    
   103   50   52 1    
   104   52   53 1    
   105   52   54 1    
   106   52  175 1    
   107   53  176 1    
   108   53  177 1    
   109   53  178 1    
   110   54   55 am   BACKBONE|DICT|INTERRES
   111   54  179 1    
   112   55   56 2    
   113   55   57 1    
   114   57   58 1    
   115   57   59 1    
   116   57  180 1    
   117   58  181 1    
   118   58  182 1    
   119   58  183 1    
   120   59   60 am   BACKBONE|DICT|INTERRES
   121   59  184 1    
   122   60   61 2    
   123   60   62 1    
   124   62   63 1    
   125   62   64 1    
   126   62  185 1    
   127   63  186 1    
   128   63  187 1    
   129   63  188 1    
   130   64   65 am   BACKBONE|DICT|INTERRES
   131   64  189 1    
   132   65   66 2    
   133   67   68 2    
   134   67   69 am   BACKBONE|DICT|INTERRES
   135   69   70 1    
   136   69  190 1    
   137   70   71 1    
   138   70   72 1    
   139   70  191 1    
   140   71  192 1    
   141   71  193 1    
   142   71  194 1    
   143   72   73 2    
   144   72   74 am   BACKBONE|DICT|INTERRES
   145   74   75 1    
   146   74  195 1    
   147   75   76 1    
   148   75   77 1    
   149   75  196 1    
   150   76  197 1    
   151   76  198 1    
   152   76  199 1    
   153   77   78 2    
   154   77   79 am   BACKBONE|DICT|INTERRES
   155   79   80 1    
   156   79  200 1    
   157   80   81 1    
   158   80   82 1    
   159   80  201 1    
   160   81  202 1    
   161   81  203 1    
   162   81  204 1    
   163   82   83 2    
   164   82   84 am   BACKBONE|DICT|INTERRES
   165   84   85 1    
   166   84  205 1    
   167   85   86 1    
   168   85   87 1    
   169   85  206 1    
   170   86  207 1    
   171   86  208 1    
   172   86  209 1    
   173   87   88 2    
   174   87   89 am   BACKBONE|DICT|INTERRES
   175   89   90 1    
   176   89  210 1    
   177   90   91 1    
   178   90   92 1    
   179   90  211 1    
   180   91  212 1    
   181   91  213 1    
   182   91  214 1    
   183   92   93 2    
   184   92   94 am   BACKBONE|DICT|INTERRES
   185   94   95 1    
   186   94  215 1    
   187   95   96 1    
   188   95   97 1    
   189   95  216 1    
   190   96  217 1    
   191   96  218 1    
   192   96  219 1    
   193   97   98 2    
   194   97   99 am   BACKBONE|DICT|INTERRES
   195   99  100 1    
   196   99  220 1    
   197  100  101 1    
   198  100  102 1    
   199  100  221 1    
   200  101  222 1    
   201  101  223 1    
   202  101  224 1    
   203  102  103 2    
   204  102  104 am   BACKBONE|DICT|INTERRES
   205  104  105 1    
   206  104  225 1    
   207  105  106 1    
   208  105  107 1    
   209  105  226 1    
   210  106  227 1    
   211  106  228 1    
   212  106  229 1    
   213  107  108 2    
   214  107  109 am   BACKBONE|DICT|INTERRES
   215  109  110 1    
   216  109  230 1    
   217  110  111 1    
   218  110  112 1    
   219  110  231 1    
   220  111  232 1    
   221  111  233 1    
   222  111  234 1    
   223  112  113 2    
   224  112  114 am   BACKBONE|DICT|INTERRES
   225  114  115 1    
   226  114  235 1    
   227  115  116 1    
   228  115  117 1    
   229  115  236 1    
   230  116  237 1    
   231  116  238 1    
   232  116  239 1    
   233  117  118 2    
   234  117  119 am   BACKBONE|DICT|INTERRES
   235  119  120 1    
   236  119  240 1    
   237  120  121 1    
   238  120  124 1    
   239  120  241 1    
   240  121  122 am   BACKBONE|DICT|INTERRES
   241  121  123 2    
   242  122  242 1    
   243  122  243 1    
   244  124  125 1    
   245  124  244 1    
   246  124  245 1    
   247  125  126 1    
   248  126  246 1    
   249  126  247 1    
@<TRIPOS>SUBSTRUCTURE
     1 UNK         1 GROUP             0       ****    0 ROOT    
