@<TRIPOS>MOLECULE
3R540
247   249    1
SMALL
USER_CHARGES


@<TRIPOS>ATOM
      1 CA         -2.9217  -13.9309  -41.1683 C.3       0 UNK        -0.1800 
      2 C          -1.7474  -13.0766  -41.6234 C.2       0 UNK         0.5000 
      3 O          -1.0484  -12.4967  -40.7931 O.2       0 UNK        -0.5000 
      4 N          -1.5122  -13.0126  -42.9389 N.am      1 UNK        -0.5000 
      5 CA         -0.4568  -12.2440  -43.6139 C.3       1 UNK         0.1400 
      6 C6         -0.8459  -11.9279  -45.0824 C.3       23 UNK        -0.0398 
      7 S7         -1.2641  -13.4101  -46.0727 S.3       23 UNK        -0.2404 
      8 C8         -3.0268  -13.1049  -46.4020 C.3       23 UNK        -0.0205 
      9 C9         -3.6287  -14.2105  -47.2520 C.ar      23 UNK        -0.0193 
     10 C10        -3.6799  -14.0829  -48.6432 C.ar      23 UNK        -0.1150 
     11 C11        -4.2223  -15.0979  -49.4383 C.ar      23 UNK        -0.0193 
     12 C12        -4.7242  -16.2477  -48.8133 C.ar      23 UNK        -0.1150 
     13 C13        -4.6787  -16.3891  -47.4228 C.ar      23 UNK        -0.0193 
     14 C14        -4.1312  -15.3645  -46.6474 C.ar      23 UNK        -0.1150 
     15 C15        -5.2137  -17.6501  -46.7589 C.3       23 UNK        -0.0205 
     16 S16        -4.3352  -19.1284  -47.3489 S.3       23 UNK        -0.2404 
     17 C17        -4.5460  -20.2665  -45.9448 C.3       23 UNK        -0.0398 
     18 CA         -3.8812  -21.6300  -46.2344 C.3       11 UNK         0.1400 
     19 N          -2.4341  -21.5269  -46.4852 N.am      11 UNK        -0.5000 
     20 C          -1.6398  -22.5320  -46.8849 C.2       10 UNK         0.5000 
     21 O          -2.0502  -23.6724  -47.1005 O.2       10 UNK        -0.5000 
     22 CA         -0.1425  -22.2321  -47.0494 C.3       10 UNK         0.1400 
     23 CB          0.1585  -21.7448  -48.4744 C.3       10 UNK        -0.1800 
     24 N           0.3162  -21.2479  -46.0700 N.am      10 UNK        -0.5000 
     25 C           0.5874  -21.5375  -44.7886 C.2       9 UNK         0.5000 
     26 O           0.5610  -22.6794  -44.3301 O.2       9 UNK        -0.5000 
     27 CA          0.9120  -20.3586  -43.8510 C.3       9 UNK         0.1400 
     28 CB          2.4267  -20.1109  -43.7923 C.3       9 UNK        -0.1800 
     29 N           0.2294  -19.1241  -44.2411 N.am      9 UNK        -0.5000 
     30 C          -1.0885  -18.9174  -44.0992 C.2       8 UNK         0.5000 
     31 O          -1.8514  -19.7313  -43.5777 O.2       8 UNK        -0.5000 
     32 CA         -1.6632  -17.6044  -44.6713 C.3       8 UNK         0.1400 
     33 CB         -1.7267  -16.5234  -43.5829 C.3       8 UNK        -0.1800 
     34 N          -0.9308  -17.0742  -45.8233 N.am      8 UNK        -0.5000 
     35 C          -0.7049  -17.7289  -46.9718 C.2       7 UNK         0.5000 
     36 O          -1.0807  -18.8799  -47.1854 O.2       7 UNK        -0.5000 
     37 CA          0.1697  -17.0114  -48.0155 C.3       7 UNK         0.1400 
     38 CB         -0.6877  -16.1582  -48.9594 C.3       7 UNK        -0.1800 
     39 N           1.2067  -16.1758  -47.4037 N.am      7 UNK        -0.5000 
     40 C           2.2121  -16.6412  -46.6479 C.2       6 UNK         0.5000 
     41 O           2.3632  -17.8366  -46.3947 O.2       6 UNK        -0.5000 
     42 CA          3.1697  -15.6138  -46.0121 C.3       6 UNK         0.1400 
     43 CB          4.6476  -16.0437  -46.1060 C.3       6 UNK        -0.1800 
     44 N           2.9828  -14.2330  -46.4700 N.am      6 UNK        -0.5000 
     45 C           3.2552  -13.7131  -47.6776 C.2       5 UNK         0.5000 
     46 O           3.6832  -14.3684  -48.6272 O.2       5 UNK        -0.5000 
     47 CA          3.0174  -12.2046  -47.8558 C.3       5 UNK         0.1400 
     48 CB          1.6207  -11.9285  -48.4352 C.3       5 UNK        -0.1800 
     49 N           3.1876  -11.4853  -46.5931 N.am      5 UNK        -0.5000 
     50 C           3.7347  -10.2720  -46.4648 C.2       4 UNK         0.5000 
     51 O           4.0793   -9.5650  -47.4128 O.2       4 UNK        -0.5000 
     52 CA          3.9613   -9.7791  -45.0235 C.3       4 UNK         0.1400 
     53 CB          2.6683   -9.1840  -44.4442 C.3       4 UNK        -0.1800 
     54 N           4.4447  -10.8372  -44.1336 N.am      4 UNK        -0.5000 
     55 C           5.6316  -11.4525  -44.2217 C.2       3 UNK         0.5000 
     56 O           6.4837  -11.1602  -45.0613 O.2       3 UNK        -0.5000 
     57 CA          5.9268  -12.5989  -43.2282 C.3       3 UNK         0.1400 
     58 CB          6.7051  -12.0847  -42.0018 C.3       3 UNK        -0.1800 
     59 N           4.7550  -13.3955  -42.8297 N.am      3 UNK        -0.5000 
     60 C           3.6959  -13.0208  -42.0999 C.2       2 UNK         0.5000 
     61 O           3.5630  -11.9053  -41.5922 O.2       2 UNK        -0.5000 
     62 CA          2.5565  -14.0486  -41.9757 C.3       2 UNK         0.1400 
     63 CB          2.4846  -14.6214  -40.5529 C.3       2 UNK        -0.1800 
     64 N           1.2635  -13.4578  -42.3215 N.am      2 UNK        -0.5000 
     65 C           0.9523  -12.8768  -43.4876 C.2       1 UNK         0.5000 
     66 O           1.7361  -12.8285  -44.4398 O.2       1 UNK        -0.5000 
     67 C          -4.2313  -22.6631  -45.1435 C.2       11 UNK         0.5000 
     68 O          -5.2678  -23.3195  -45.2471 O.2       11 UNK        -0.5000 
     69 N          -3.3273  -22.8521  -44.1717 N.am      12 UNK        -0.5000 
     70 CA         -3.3906  -23.9029  -43.1520 C.3       12 UNK         0.1400 
     71 CB         -2.2895  -23.6461  -42.1122 C.3       12 UNK        -0.1800 
     72 C          -3.2752  -25.3367  -43.7192 C.2       12 UNK         0.5000 
     73 O          -3.7083  -26.2805  -43.0579 O.2       12 UNK        -0.5000 
     74 N          -2.7199  -25.4744  -44.9307 N.am      13 UNK        -0.5000 
     75 CA         -2.5822  -26.7188  -45.6868 C.3       13 UNK         0.1400 
     76 CB         -1.1046  -26.8897  -46.0854 C.3       13 UNK        -0.1800 
     77 C          -3.5180  -26.7152  -46.9139 C.2       13 UNK         0.5000 
     78 O          -3.1582  -27.2526  -47.9632 O.2       13 UNK        -0.5000 
     79 N          -4.6947  -26.0831  -46.7749 N.am      14 UNK        -0.5000 
     80 CA         -5.7443  -25.9333  -47.7916 C.3       14 UNK         0.1400 
     81 CB         -6.3818  -27.2988  -48.1244 C.3       14 UNK        -0.1800 
     82 C          -5.2523  -25.1787  -49.0438 C.2       14 UNK         0.5000 
     83 O          -5.5194  -25.5978  -50.1706 O.2       14 UNK        -0.5000 
     84 N          -4.4992  -24.0954  -48.8085 N.am      15 UNK        -0.5000 
     85 CA         -3.8142  -23.2585  -49.8006 C.3       15 UNK         0.1400 
     86 CB         -4.8256  -22.5213  -50.6981 C.3       15 UNK        -0.1800 
     87 C          -2.7598  -24.0625  -50.5834 C.2       15 UNK         0.5000 
     88 O          -2.6996  -23.9743  -51.8092 O.2       15 UNK        -0.5000 
     89 N          -1.9824  -24.8698  -49.8449 N.am      16 UNK        -0.5000 
     90 CA         -1.0202  -25.8666  -50.3283 C.3       16 UNK         0.1400 
     91 CB          0.2148  -25.1750  -50.9420 C.3       16 UNK        -0.1800 
     92 C          -1.6783  -26.8817  -51.2868 C.2       16 UNK         0.5000 
     93 O          -1.1837  -27.0993  -52.3927 O.2       16 UNK        -0.5000 
     94 N          -2.8248  -27.4345  -50.8633 N.am      17 UNK        -0.5000 
     95 CA         -3.7355  -28.2782  -51.6489 C.3       17 UNK         0.1400 
     96 CB         -3.1129  -29.6684  -51.8912 C.3       17 UNK        -0.1800 
     97 C          -4.2011  -27.5833  -52.9502 C.2       17 UNK         0.5000 
     98 O          -4.1471  -28.1721  -54.0313 O.2       17 UNK        -0.5000 
     99 N          -4.6140  -26.3173  -52.8041 N.am      18 UNK        -0.5000 
    100 CA        -5.0538  -25.3659  -53.8300 C.3       18 UNK         0.1400 
    101 CB        -6.3167  -25.8788  -54.5513 C.3       18 UNK        -0.1800 
    102 C         -3.9650  -24.9002  -54.8239 C.2       18 UNK         0.5000 
    103 O         -4.2927  -24.1674  -55.7588 O.2       18 UNK        -0.5000 
    104 N         -2.6963  -25.2840  -54.6197 N.am      19 UNK        -0.5000 
    105 CA        -1.5732  -24.8814  -55.4719 C.3       19 UNK         0.1400 
    106 CB        -0.3939  -25.8407  -55.2551 C.3       19 UNK        -0.1800 
    107 C         -1.1221  -23.4256  -55.2418 C.2       19 UNK         0.5000 
    108 O         -0.5384  -22.8285  -56.1471 O.2       19 UNK        -0.5000 
    109 N         -1.3938  -22.8822  -54.0494 N.am      20 UNK        -0.5000 
    110 CA        -1.0256  -21.5353  -53.6167 C.3       20 UNK         0.1400 
    111 CB        -0.0575  -21.6422  -52.4243 C.3       20 UNK        -0.1800 
    112 C         -2.2829  -20.7134  -53.2782 C.2       20 UNK         0.5000 
    113 O         -2.2601  -19.9043  -52.3490 O.2       20 UNK        -0.5000 
    114 N         -3.3673  -20.9234  -54.0381 N.am      21 UNK        -0.5000 
    115 CA        -4.6668  -20.2575  -53.8958 C.3       21 UNK         0.1400 
    116 CB        -5.7390  -21.1248  -54.5792 C.3       21 UNK        -0.1800 
    117 C         -4.6600  -18.7959  -54.3992 C.2       21 UNK         0.5000 
    118 O         -5.4507  -18.4330  -55.2717 O.2       21 UNK        -0.5000 
    119 N         -3.7549  -17.9889  -53.8341 N.am      22 UNK        -0.5000 
    120 CA        -3.5702  -16.5441  -54.0643 C.3       22 UNK         0.1400 
    121 C         -3.0673  -16.1551  -55.4892 C.2       22 UNK         0.5000 
    122 N         -2.5787  -17.0864  -56.2989 N.am      22 UNK        -0.7600 
    123 O         -3.0852  -14.9840  -55.8593 O.2       22 UNK        -0.5000 
    124 C124       -4.7878  -15.6861  -53.6105 C.3       23 UNK        -0.0398 
    125 S125       -5.3156  -16.0244  -51.8946 S.3       23 UNK        -0.2404 
    126 C126       -4.1923  -14.9283  -50.9592 C.3       23 UNK        -0.0205 
    127 H127       -3.5921  -13.3437  -40.5408 H         1 UNK         0.0600 
    128 H128       -2.5637  -14.7801  -40.5864 H         1 UNK         0.0600 
    129 H129       -3.4964  -14.3136  -42.0121 H         1 UNK         0.0600 
    130 H130       -2.1036  -13.5385  -43.5649 H         1 UNK         0.3000 
    131 H131       -0.3787  -11.2831  -43.1012 H         1 UNK         0.0600 
    132 H132       -0.0527  -11.3775  -45.5912 H         1 UNK         0.0800 
    133 H133       -1.6983  -11.2474  -45.0810 H         1 UNK         0.0800 
    134 H134       -3.1400  -12.1440  -46.9066 H         1 UNK         0.0800 
    135 H135       -3.5689  -13.0245  -45.4587 H         1 UNK         0.0800 
    136 H136       -3.2766  -13.1952  -49.1105 H         1 UNK         0.1150 
    137 H137       -5.1330  -17.0574  -49.3995 H         1 UNK         0.1150 
    138 H138       -4.0888  -15.4656  -45.5725 H         1 UNK         0.1150 
    139 H139       -5.1210  -17.5780  -45.6744 H         1 UNK         0.0800 
    140 H140       -6.2779  -17.7522  -46.9748 H         1 UNK         0.0800 
    141 H141       -5.6165  -20.3879  -45.7675 H         1 UNK         0.0800 
    142 H142       -4.1285  -19.8148  -45.0444 H         1 UNK         0.0800 
    143 H143       -4.3317  -22.0008  -47.1540 H         1 UNK         0.0600 
    144 H144       -2.0325  -20.5978  -46.4208 H         1 UNK         0.3000 
    145 H145        0.4024  -23.1660  -46.8948 H         1 UNK         0.0600 
    146 H146       -0.3888  -20.8362  -48.7246 H         1 UNK         0.0600 
    147 H147        1.2216  -21.5446  -48.6080 H         1 UNK         0.0600 
    148 H148       -0.1246  -22.5012  -49.2056 H         1 UNK         0.0600 
    149 H149        0.2956  -20.2787  -46.3628 H         1 UNK         0.3000 
    150 H150        0.5763  -20.6311  -42.8480 H         1 UNK         0.0600 
    151 H151        2.9493  -20.9929  -43.4200 H         1 UNK         0.0600 
    152 H152        2.6680  -19.2839  -43.1244 H         1 UNK         0.0600 
    153 H153        2.8373  -19.8810  -44.7757 H         1 UNK         0.0600 
    154 H154        0.7859  -18.4325  -44.7251 H         1 UNK         0.3000 
    155 H155       -2.6807  -17.8139  -45.0032 H         1 UNK         0.0600 
    156 H156       -2.2685  -16.8798  -42.7057 H         1 UNK         0.0600 
    157 H157       -2.2469  -15.6381  -43.9454 H         1 UNK         0.0600 
    158 H158       -0.7314  -16.2197  -43.2553 H         1 UNK         0.0600 
    159 H159       -0.5839  -16.1297  -45.7439 H         1 UNK         0.3000 
    160 H160        0.6655  -17.7817  -48.6101 H         1 UNK         0.0600 
    161 H161       -0.0916  -15.7521  -49.7765 H         1 UNK         0.0600 
    162 H162       -1.1476  -15.3228  -48.4337 H         1 UNK         0.0600 
    163 H163       -1.4907  -16.7493  -49.4028 H         1 UNK         0.0600 
    164 H164        1.1437  -15.1806  -47.5573 H         1 UNK         0.3000 
    165 H165        2.9077  -15.6012  -44.9541 H         1 UNK         0.0600 
    166 H166        4.9698  -16.1664  -47.1402 H         1 UNK         0.0600 
    167 H167        5.3032  -15.3117  -45.6345 H         1 UNK         0.0600 
    168 H168        4.8105  -16.9969  -45.6016 H         1 UNK         0.0600 
    169 H169        2.5472  -13.6306  -45.7743 H         1 UNK         0.3000 
    170 H170        3.7641  -11.8560  -48.5725 H         1 UNK         0.0600 
    171 H171        0.8342  -12.2523  -47.7556 H         1 UNK         0.0600 
    172 H172        1.4778  -10.8656  -48.6300 H         1 UNK         0.0600 
    173 H173        1.4769  -12.4551  -49.3795 H         1 UNK         0.0600 
    174 H174        2.9105  -11.9718  -45.7478 H         1 UNK         0.3000 
    175 H175        4.7179   -8.9924  -45.0536 H         1 UNK         0.0600 
    176 H176        1.8789   -9.9320  -44.3663 H         1 UNK         0.0600 
    177 H177        2.8363   -8.7702  -43.4497 H         1 UNK         0.0600 
    178 H178        2.2943   -8.3758  -45.0740 H         1 UNK         0.0600 
    179 H179        3.8341  -11.1167  -43.3733 H         1 UNK         0.3000 
    180 H180        6.5807  -13.2950  -43.7560 H         1 UNK         0.0600 
    181 H181        6.1386  -11.3436  -41.4377 H         1 UNK         0.0600 
    182 H182        7.6397  -11.6123  -42.3069 H         1 UNK         0.0600 
    183 H183        6.9596  -12.9004  -41.3252 H         1 UNK         0.0600 
    184 H184        4.7449  -14.3295  -43.2135 H         1 UNK         0.3000 
    185 H185        2.7394  -14.8725  -42.6671 H         1 UNK         0.0600 
    186 H186        1.7103  -15.3848  -40.4737 H         1 UNK         0.0600 
    187 H187        3.4300  -15.0861  -40.2702 H         1 UNK         0.0600 
    188 H188        2.2666  -13.8450  -39.8182 H         1 UNK         0.0600 
    189 H189        0.5849  -13.3758  -41.5728 H         1 UNK         0.3000 
    190 H190       -2.5080  -22.2598  -44.1591 H         1 UNK         0.3000 
    191 H191       -4.3586  -23.8263  -42.6526 H         1 UNK         0.0600 
    192 H192       -1.2955  -23.7132  -42.5558 H         1 UNK         0.0600 
    193 H193       -2.3911  -22.6573  -41.6642 H         1 UNK         0.0600 
    194 H194       -2.3375  -24.3760  -41.3030 H         1 UNK         0.0600 
    195 H195       -2.4239  -24.6423  -45.4299 H         1 UNK         0.3000 
    196 H196       -2.8689  -27.5743  -45.0726 H         1 UNK         0.0600 
    197 H197       -0.4583  -26.8844  -45.2076 H         1 UNK         0.0600 
    198 H198       -0.7713  -26.0917  -46.7498 H         1 UNK         0.0600 
    199 H199       -0.9419  -27.8373  -46.6003 H         1 UNK         0.0600 
    200 H200       -4.8825  -25.6312  -45.8896 H         1 UNK         0.3000 
    201 H201       -6.5186  -25.3078  -47.3449 H         1 UNK         0.0600 
    202 H202       -7.2380  -27.1782  -48.7890 H         1 UNK         0.0600 
    203 H203       -6.7395  -27.7964  -47.2231 H         1 UNK         0.0600 
    204 H204       -5.6774  -27.9680  -48.6193 H         1 UNK         0.0600 
    205 H205       -4.2632  -23.9049  -47.8452 H         1 UNK         0.3000 
    206 H206       -3.2627  -22.4920  -49.2581 H         1 UNK         0.0600 
    207 H207       -5.5163  -21.9236  -50.1035 H         1 UNK         0.0600 
    208 H208       -5.4129  -23.2046  -51.3097 H         1 UNK         0.0600 
    209 H209       -4.3066  -21.8417  -51.3704 H         1 UNK         0.0600 
    210 H210       -2.1178  -24.8465  -48.8406 H         1 UNK         0.3000 
    211 H211       -0.6890  -26.4320  -49.4561 H         1 UNK         0.0600 
    212 H212        0.6820  -24.4948  -50.2312 H         1 UNK         0.0600 
    213 H213        0.9691  -25.9084  -51.2289 H         1 UNK         0.0600 
    214 H214       -0.0413  -24.6063  -51.8360 H         1 UNK         0.0600 
    215 H215       -3.1268  -27.2213  -49.9160 H         1 UNK         0.3000 
    216 H216       -4.6290  -28.4169  -51.0384 H         1 UNK         0.0600 
    217 H217       -3.8247  -30.3345  -52.3801 H         1 UNK         0.0600 
    218 H218       -2.2282  -29.6123  -52.5261 H         1 UNK         0.0600 
    219 H219       -2.8221  -30.1379  -50.9515 H         1 UNK         0.0600 
    220 H220       -4.6544  -25.9558  -51.8543 H         1 UNK         0.3000 
    221 H221       -5.3406  -24.4696  -53.2808 H         1 UNK         0.0600 
    222 H222       -6.1015  -26.7411  -55.1826 H         1 UNK         0.0600 
    223 H223       -7.0882  -26.1676  -53.8375 H         1 UNK         0.0600 
    224 H224       -6.7436  -25.1059  -55.1915 H         1 UNK         0.0600 
    225 H225       -2.4783  -25.8600  -53.8156 H         1 UNK         0.3000 
    226 H226       -1.8870  -24.9699  -56.5141 H         1 UNK         0.0600 
    227 H227       -0.6992  -26.8806  -55.3737 H         1 UNK         0.0600 
    228 H228        0.4003  -25.6488  -55.9775 H         1 UNK         0.0600 
    229 H229        0.0386  -25.7269  -54.2608 H         1 UNK         0.0600 
    230 H230       -1.9061  -23.4327  -53.3606 H         1 UNK         0.3000 
    231 H231       -0.5137  -21.0005  -54.4186 H         1 UNK         0.0600 
    232 H232        0.2973  -20.6588  -52.1134 H         1 UNK         0.0600 
    233 H233        0.8196  -22.2367  -52.6801 H         1 UNK         0.0600 
    234 H234       -0.5370  -22.1061  -51.5627 H         1 UNK         0.0600 
    235 H235       -3.2948  -21.6007  -54.7841 H         1 UNK         0.3000 
    236 H236       -4.9181  -20.2073  -52.8354 H         1 UNK         0.0600 
    237 H237       -5.7805  -22.1195  -54.1357 H         1 UNK         0.0600 
    238 H238       -6.7305  -20.6832  -54.4714 H         1 UNK         0.0600 
    239 H239       -5.5425  -21.2419  -55.6456 H         1 UNK         0.0600 
    240 H240       -3.1380  -18.4085  -53.1438 H         1 UNK         0.3000 
    241 H241       -2.7376  -16.2713  -53.4158 H         1 UNK         0.0600 
    242 H242       -2.5591  -18.0520  -56.0143 H         1 UNK         0.3800 
    243 H243       -2.2458  -16.8244  -57.2137 H         1 UNK         0.3800 
    244 H244       -4.5648  -14.6213  -53.6958 H         1 UNK         0.0800 
    245 H245       -5.6396  -15.8665  -54.2677 H         1 UNK         0.0800 
    246 H246       -3.1689  -15.1020  -51.2935 H         1 UNK         0.0800 
    247 H247       -4.4339  -13.8949  -51.2129 H         1 UNK         0.0800 
@<TRIPOS>BOND
     1    1    2 1    
     2    1  127 1    
     3    1  128 1    
     4    1  129 1    
     5    2    3 2    
     6    2    4 am   BACKBONE|DICT|INTERRES
     7    4    5 1    
     8    4  130 1    
     9    5    6 1    
    10    5   65 1    
    11    5  131 1    
    12    6    7 1    
    13    6  132 1    
    14    6  133 1    
    15    7    8 1    
    16    8    9 1    
    17    8  134 1    
    18    8  135 1    
    19    9   10 ar   
    20    9   14 ar   
    21   10   11 ar   
    22   10  136 1    
    23   11   12 ar   
    24   11  126 1    
    25   12   13 ar   
    26   12  137 1    
    27   13   14 ar   
    28   13   15 1    
    29   14  138 1    
    30   15   16 1    
    31   15  139 1    
    32   15  140 1    
    33   16   17 1    
    34   17   18 1    
    35   17  141 1    
    36   17  142 1    
    37   18   19 1    
    38   18   67 1    
    39   18  143 1    
    40   19   20 am   BACKBONE|DICT|INTERRES
    41   19  144 1    
    42   20   21 2    
    43   20   22 1    
    44   22   23 1    
    45   22   24 1    
    46   22  145 1    
    47   23  146 1    
    48   23  147 1    
    49   23  148 1    
    50   24   25 am   BACKBONE|DICT|INTERRES
    51   24  149 1    
    52   25   26 2    
    53   25   27 1    
    54   27   28 1    
    55   27   29 1    
    56   27  150 1    
    57   28  151 1    
    58   28  152 1    
    59   28  153 1    
    60   29   30 am   BACKBONE|DICT|INTERRES
    61   29  154 1    
    62   30   31 2    
    63   30   32 1    
    64   32   33 1    
    65   32   34 1    
    66   32  155 1    
    67   33  156 1    
    68   33  157 1    
    69   33  158 1    
    70   34   35 am   BACKBONE|DICT|INTERRES
    71   34  159 1    
    72   35   36 2    
    73   35   37 1    
    74   37   38 1    
    75   37   39 1    
    76   37  160 1    
    77   38  161 1    
    78   38  162 1    
    79   38  163 1    
    80   39   40 am   BACKBONE|DICT|INTERRES
    81   39  164 1    
    82   40   41 2    
    83   40   42 1    
    84   42   43 1    
    85   42   44 1    
    86   42  165 1    
    87   43  166 1    
    88   43  167 1    
    89   43  168 1    
    90   44   45 am   BACKBONE|DICT|INTERRES
    91   44  169 1    
    92   45   46 2    
    93   45   47 1    
    94   47   48 1    
    95   47   49 1    
    96   47  170 1    
    97   48  171 1    
    98   48  172 1    
    99   48  173 1    
   100   49   50 am   BACKBONE|DICT|INTERRES
   101   49  174 1    
   102   50   51 2    
   103   50   52 1    
   104   52   53 1    
   105   52   54 1    
   106   52  175 1    
   107   53  176 1    
   108   53  177 1    
   109   53  178 1    
   110   54   55 am   BACKBONE|DICT|INTERRES
   111   54  179 1    
   112   55   56 2    
   113   55   57 1    
   114   57   58 1    
   115   57   59 1    
   116   57  180 1    
   117   58  181 1    
   118   58  182 1    
   119   58  183 1    
   120   59   60 am   BACKBONE|DICT|INTERRES
   121   59  184 1    
   122   60   61 2    
   123   60   62 1    
   124   62   63 1    
   125   62   64 1    
   126   62  185 1    
   127   63  186 1    
   128   63  187 1    
   129   63  188 1    
   130   64   65 am   BACKBONE|DICT|INTERRES
   131   64  189 1    
   132   65   66 2    
   133   67   68 2    
   134   67   69 am   BACKBONE|DICT|INTERRES
   135   69   70 1    
   136   69  190 1    
   137   70   71 1    
   138   70   72 1    
   139   70  191 1    
   140   71  192 1    
   141   71  193 1    
   142   71  194 1    
   143   72   73 2    
   144   72   74 am   BACKBONE|DICT|INTERRES
   145   74   75 1    
   146   74  195 1    
   147   75   76 1    
   148   75   77 1    
   149   75  196 1    
   150   76  197 1    
   151   76  198 1    
   152   76  199 1    
   153   77   78 2    
   154   77   79 am   BACKBONE|DICT|INTERRES
   155   79   80 1    
   156   79  200 1    
   157   80   81 1    
   158   80   82 1    
   159   80  201 1    
   160   81  202 1    
   161   81  203 1    
   162   81  204 1    
   163   82   83 2    
   164   82   84 am   BACKBONE|DICT|INTERRES
   165   84   85 1    
   166   84  205 1    
   167   85   86 1    
   168   85   87 1    
   169   85  206 1    
   170   86  207 1    
   171   86  208 1    
   172   86  209 1    
   173   87   88 2    
   174   87   89 am   BACKBONE|DICT|INTERRES
   175   89   90 1    
   176   89  210 1    
   177   90   91 1    
   178   90   92 1    
   179   90  211 1    
   180   91  212 1    
   181   91  213 1    
   182   91  214 1    
   183   92   93 2    
   184   92   94 am   BACKBONE|DICT|INTERRES
   185   94   95 1    
   186   94  215 1    
   187   95   96 1    
   188   95   97 1    
   189   95  216 1    
   190   96  217 1    
   191   96  218 1    
   192   96  219 1    
   193   97   98 2    
   194   97   99 am   BACKBONE|DICT|INTERRES
   195   99  100 1    
   196   99  220 1    
   197  100  101 1    
   198  100  102 1    
   199  100  221 1    
   200  101  222 1    
   201  101  223 1    
   202  101  224 1    
   203  102  103 2    
   204  102  104 am   BACKBONE|DICT|INTERRES
   205  104  105 1    
   206  104  225 1    
   207  105  106 1    
   208  105  107 1    
   209  105  226 1    
   210  106  227 1    
   211  106  228 1    
   212  106  229 1    
   213  107  108 2    
   214  107  109 am   BACKBONE|DICT|INTERRES
   215  109  110 1    
   216  109  230 1    
   217  110  111 1    
   218  110  112 1    
   219  110  231 1    
   220  111  232 1    
   221  111  233 1    
   222  111  234 1    
   223  112  113 2    
   224  112  114 am   BACKBONE|DICT|INTERRES
   225  114  115 1    
   226  114  235 1    
   227  115  116 1    
   228  115  117 1    
   229  115  236 1    
   230  116  237 1    
   231  116  238 1    
   232  116  239 1    
   233  117  118 2    
   234  117  119 am   BACKBONE|DICT|INTERRES
   235  119  120 1    
   236  119  240 1    
   237  120  121 1    
   238  120  124 1    
   239  120  241 1    
   240  121  122 am   BACKBONE|DICT|INTERRES
   241  121  123 2    
   242  122  242 1    
   243  122  243 1    
   244  124  125 1    
   245  124  244 1    
   246  124  245 1    
   247  125  126 1    
   248  126  246 1    
   249  126  247 1    
@<TRIPOS>SUBSTRUCTURE
     1 UNK         1 GROUP             0       ****    0 ROOT    
