@<TRIPOS>MOLECULE
3R540
247   249    1
SMALL
USER_CHARGES


@<TRIPOS>ATOM
      1 CA          2.0896   -9.6608  -47.7274 C.3       0 UNK        -0.1800 
      2 C           0.9478   -9.8954  -48.7148 C.2       0 UNK         0.5000 
      3 O           0.3967   -8.9301  -49.2391 O.2       0 UNK        -0.5000 
      4 N           0.5605  -11.1441  -49.0086 N.am      1 UNK        -0.5000 
      5 CA          1.0803  -12.3926  -48.4354 C.3       1 UNK         0.1400 
      6 C6          0.8832  -13.5885  -49.3993 C.3       23 UNK        -0.0398 
      7 S7         -0.8573  -13.8749  -49.8875 S.3       23 UNK        -0.2404 
      8 C8         -1.1934  -15.4794  -49.0939 C.3       23 UNK        -0.0205 
      9 C9         -0.4597  -16.6246  -49.7787 C.ar      23 UNK        -0.0193 
     10 C10        -0.6942  -16.9003  -51.1275 C.ar      23 UNK        -0.1150 
     11 C11        -0.0472  -17.9628  -51.7620 C.ar      23 UNK        -0.0193 
     12 C12         0.8479  -18.7538  -51.0369 C.ar      23 UNK        -0.1150 
     13 C13         1.0970  -18.4877  -49.6857 C.ar      23 UNK        -0.0193 
     14 C14         0.4437  -17.4171  -49.0661 C.ar      23 UNK        -0.1150 
     15 C15         2.0997  -19.3214  -48.8963 C.3       23 UNK        -0.0205 
     16 S16         1.8056  -21.1191  -48.9939 S.3       23 UNK        -0.2404 
     17 C17         0.1049  -21.2889  -48.3571 C.3       23 UNK        -0.0398 
     18 CA         -0.0680  -22.5949  -47.5415 C.3       11 UNK         0.1400 
     19 N           0.4727  -22.4903  -46.1819 N.am      11 UNK        -0.5000 
     20 C           0.5954  -23.5177  -45.3294 C.2       10 UNK         0.5000 
     21 O           0.3156  -24.6802  -45.6178 O.2       10 UNK        -0.5000 
     22 CA          1.0513  -23.1920  -43.8959 C.3       10 UNK         0.1400 
     23 CB          2.5720  -22.9876  -43.8290 C.3       10 UNK        -0.1800 
     24 N           0.3581  -22.0307  -43.3355 N.am      10 UNK        -0.5000 
     25 C          -0.9621  -21.9841  -43.1024 C.2       9 UNK         0.5000 
     26 O          -1.7225  -22.9311  -43.2986 O.2       9 UNK        -0.5000 
     27 CA         -1.5436  -20.6490  -42.6048 C.3       9 UNK         0.1400 
     28 CB         -1.3297  -20.4942  -41.0919 C.3       9 UNK        -0.1800 
     29 N          -0.9905  -19.4914  -43.3075 N.am      9 UNK        -0.5000 
     30 C          -1.1257  -19.2661  -44.6223 C.2       8 UNK         0.5000 
     31 O          -1.7776  -19.9872  -45.3760 O.2       8 UNK        -0.5000 
     32 CA         -0.3384  -18.0834  -45.2131 C.3       8 UNK         0.1400 
     33 CB         -1.0470  -16.7449  -44.9589 C.3       8 UNK        -0.1800 
     34 N           1.0356  -18.0204  -44.7149 N.am      8 UNK        -0.5000 
     35 C           1.9457  -18.9911  -44.8776 C.2       7 UNK         0.5000 
     36 O           1.7362  -20.0256  -45.5082 O.2       7 UNK        -0.5000 
     37 CA          3.2966  -18.7987  -44.1740 C.3       7 UNK         0.1400 
     38 CB          4.2075  -17.8578  -44.9772 C.3       7 UNK        -0.1800 
     39 N           3.1188  -18.2917  -42.8140 N.am      7 UNK        -0.5000 
     40 C           2.6354  -19.0222  -41.7989 C.2       6 UNK         0.5000 
     41 O           2.3310  -20.2108  -41.8978 O.2       6 UNK        -0.5000 
     42 CA          2.4231  -18.2945  -40.4583 C.3       6 UNK         0.1400 
     43 CB          3.7305  -18.2480  -39.6537 C.3       6 UNK        -0.1800 
     44 N           1.9078  -16.9349  -40.6268 N.am      6 UNK        -0.5000 
     45 C           0.6898  -16.6441  -41.1041 C.2       5 UNK         0.5000 
     46 O          -0.1393  -17.4940  -41.4242 O.2       5 UNK        -0.5000 
     47 CA          0.3564  -15.1551  -41.3033 C.3       5 UNK         0.1400 
     48 CB         -0.2089  -14.5486  -40.0110 C.3       5 UNK        -0.1800 
     49 N           1.4824  -14.3408  -41.7663 N.am      5 UNK        -0.5000 
     50 C           2.1925  -14.5566  -42.8816 C.2       4 UNK         0.5000 
     51 O           2.0551  -15.5497  -43.5971 O.2       4 UNK        -0.5000 
     52 CA          3.1754  -13.4406  -43.2742 C.3       4 UNK         0.1400 
     53 CB          4.1039  -13.8409  -44.4347 C.3       4 UNK        -0.1800 
     54 N           2.3956  -12.2699  -43.6646 N.am      4 UNK        -0.5000 
     55 C           2.0012  -11.2964  -42.8312 C.2       3 UNK         0.5000 
     56 O           2.3779  -11.2098  -41.6619 O.2       3 UNK        -0.5000 
     57 CA          0.9770  -10.2783  -43.3726 C.3       3 UNK         0.1400 
     58 CB          1.6898   -9.0233  -43.8986 C.3       3 UNK        -0.1800 
     59 N           0.1236  -10.8312  -44.4275 N.am      3 UNK        -0.5000 
     60 C          -0.7755  -11.8116  -44.2521 C.2       2 UNK         0.5000 
     61 O          -1.0532  -12.2952  -43.1546 O.2       2 UNK        -0.5000 
     62 CA         -1.4633  -12.3646  -45.5162 C.3       2 UNK         0.1400 
     63 CB         -2.8652  -11.7586  -45.6768 C.3       2 UNK        -0.1800 
     64 N          -0.7091  -12.1514  -46.7561 N.am      2 UNK        -0.5000 
     65 C           0.4862  -12.6900  -47.0412 C.2       1 UNK         0.5000 
     66 O           1.1306  -13.3686  -46.2440 O.2       1 UNK        -0.5000 
     67 C          -1.5355  -23.0692  -47.5362 C.2       11 UNK         0.5000 
     68 O          -1.8704  -23.9933  -48.2790 O.2       11 UNK        -0.5000 
     69 N          -2.3699  -22.4772  -46.6689 N.am      12 UNK        -0.5000 
     70 CA         -3.7743  -22.8481  -46.4868 C.3       12 UNK         0.1400 
     71 CB         -4.4553  -21.8538  -45.5358 C.3       12 UNK        -0.1800 
     72 C          -3.9654  -24.2964  -46.0002 C.2       12 UNK         0.5000 
     73 O          -4.8735  -24.9771  -46.4765 O.2       12 UNK        -0.5000 
     74 N          -3.0959  -24.7488  -45.0866 N.am      13 UNK        -0.5000 
     75 CA         -3.0514  -26.1269  -44.5997 C.3       13 UNK         0.1400 
     76 CB         -2.1594  -26.2027  -43.3511 C.3       13 UNK        -0.1800 
     77 C          -2.5710  -27.1210  -45.6732 C.2       13 UNK         0.5000 
     78 O          -3.1060  -28.2278  -45.7505 O.2       13 UNK        -0.5000 
     79 N          -1.5779  -26.7146  -46.4774 N.am      14 UNK        -0.5000 
     80 CA         -1.0120  -27.5093  -47.5668 C.3       14 UNK         0.1400 
     81 CB          0.2867  -26.8607  -48.0707 C.3       14 UNK        -0.1800 
     82 C          -2.0001  -27.7274  -48.7255 C.2       14 UNK         0.5000 
     83 O          -2.1251  -28.8580  -49.1995 O.2       14 UNK        -0.5000 
     84 N          -2.6909  -26.6612  -49.1502 N.am      15 UNK        -0.5000 
     85 CA         -3.6983  -26.7135  -50.2070 C.3       15 UNK         0.1400 
     86 CB         -3.0360  -26.8143  -51.5958 C.3       15 UNK        -0.1800 
     87 C          -4.6499  -25.5144  -50.1226 C.2       15 UNK         0.5000 
     88 O          -5.8444  -25.7020  -49.8889 O.2       15 UNK        -0.5000 
     89 N          -4.1098  -24.3098  -50.3309 N.am      16 UNK        -0.5000 
     90 CA         -4.8315  -23.0435  -50.3758 C.3       16 UNK         0.1400 
     91 CB         -5.6807  -22.9543  -51.6570 C.3       16 UNK        -0.1800 
     92 C          -3.8139  -21.8969  -50.3358 C.2       16 UNK         0.5000 
     93 O          -2.6634  -22.0868  -50.7369 O.2       16 UNK        -0.5000 
     94 N          -4.2668  -20.7289  -49.8736 N.am      17 UNK        -0.5000 
     95 CA         -3.5140  -19.4811  -49.8688 C.3       17 UNK         0.1400 
     96 CB         -3.1519  -19.1066  -48.4232 C.3       17 UNK        -0.1800 
     97 C          -4.3958  -18.4062  -50.5165 C.2       17 UNK         0.5000 
     98 O          -5.5713  -18.2915  -50.1626 O.2       17 UNK        -0.5000 
     99 N          -3.8098  -17.6594  -51.4598 N.am      18 UNK        -0.5000 
    100 CA        -4.4047  -16.5836  -52.2631 C.3       18 UNK         0.1400 
    101 CB        -4.7866  -15.3836  -51.3720 C.3       18 UNK        -0.1800 
    102 C         -5.5607  -17.0403  -53.1822 C.2       18 UNK         0.5000 
    103 O         -6.3822  -16.2155  -53.5862 O.2       18 UNK        -0.5000 
    104 N         -5.5986  -18.3353  -53.5161 N.am      19 UNK        -0.5000 
    105 CA        -6.6139  -18.9839  -54.3390 C.3       19 UNK         0.1400 
    106 CB        -7.9296  -19.1136  -53.5447 C.3       19 UNK        -0.1800 
    107 C         -6.1033  -20.3690  -54.7610 C.2       19 UNK         0.5000 
    108 O         -5.1064  -20.8424  -54.2079 O.2       19 UNK        -0.5000 
    109 N         -6.8201  -20.9918  -55.7088 N.am      20 UNK        -0.5000 
    110 CA        -6.6893  -22.3727  -56.1914 C.3       20 UNK         0.1400 
    111 CB        -7.3266  -23.3453  -55.1768 C.3       20 UNK        -0.1800 
    112 C         -5.2480  -22.7570  -56.5808 C.2       20 UNK         0.5000 
    113 O         -4.8242  -22.4584  -57.6984 O.2       20 UNK        -0.5000 
    114 N         -4.5163  -23.3777  -55.6444 N.am      21 UNK        -0.5000 
    115 CA        -3.1124  -23.7818  -55.7585 C.3       21 UNK         0.1400 
    116 CB        -2.6950  -24.4767  -54.4538 C.3       21 UNK        -0.1800 
    117 C         -2.1421  -22.6293  -56.0885 C.2       21 UNK         0.5000 
    118 O         -1.0967  -22.8775  -56.6910 O.2       21 UNK        -0.5000 
    119 N         -2.5142  -21.3966  -55.7217 N.am      22 UNK        -0.5000 
    120 CA        -1.8150  -20.1628  -56.1124 C.3       22 UNK         0.1400 
    121 C         -1.9884  -19.7675  -57.6108 C.2       22 UNK         0.5000 
    122 N         -2.8827  -20.3815  -58.3772 N.am      22 UNK        -0.7600 
    123 O         -1.2870  -18.8822  -58.0926 O.2       22 UNK        -0.5000 
    124 C124       -2.1955  -18.9760  -55.1950 C.3       23 UNK        -0.0398 
    125 S125       -1.7899  -19.2789  -53.4427 S.3       23 UNK        -0.2404 
    126 C126       -0.3139  -18.2376  -53.2321 C.3       23 UNK        -0.0205 
    127 H127        2.0995   -8.6219  -47.3969 H         1 UNK         0.0600 
    128 H128        3.0473   -9.8701  -48.2038 H         1 UNK         0.0600 
    129 H129        2.0004  -10.2852  -46.8409 H         1 UNK         0.0600 
    130 H130       -0.1816  -11.2714  -49.6829 H         1 UNK         0.3000 
    131 H131        2.1575  -12.2821  -48.2968 H         1 UNK         0.0600 
    132 H132        1.4528  -13.4110  -50.3124 H         1 UNK         0.0800 
    133 H133        1.3087  -14.4971  -48.9695 H         1 UNK         0.0800 
    134 H134       -2.2650  -15.6764  -49.1347 H         1 UNK         0.0800 
    135 H135       -0.9342  -15.4208  -48.0355 H         1 UNK         0.0800 
    136 H136       -1.3762  -16.2748  -51.6857 H         1 UNK         0.1150 
    137 H137        1.3547  -19.5748  -51.5243 H         1 UNK         0.1150 
    138 H138        0.6484  -17.1907  -48.0302 H         1 UNK         0.1150 
    139 H139        3.0995  -19.1129  -49.2786 H         1 UNK         0.0800 
    140 H140        2.1086  -19.0207  -47.8501 H         1 UNK         0.0800 
    141 H141       -0.5571  -21.2698  -49.2251 H         1 UNK         0.0800 
    142 H142       -0.1573  -20.4194  -47.7525 H         1 UNK         0.0800 
    143 H143        0.4958  -23.3825  -48.0463 H         1 UNK         0.0600 
    144 H144        0.7782  -21.5668  -45.8820 H         1 UNK         0.3000 
    145 H145        0.8050  -24.0528  -43.2706 H         1 UNK         0.0600 
    146 H146        2.9030  -22.8268  -42.8029 H         1 UNK         0.0600 
    147 H147        3.0987  -23.8647  -44.2068 H         1 UNK         0.0600 
    148 H148        2.8946  -22.1329  -44.4222 H         1 UNK         0.0600 
    149 H149        0.9274  -21.2212  -43.1168 H         1 UNK         0.3000 
    150 H150       -2.6188  -20.6664  -42.7931 H         1 UNK         0.0600 
    151 H151       -1.7370  -21.3484  -40.5497 H         1 UNK         0.0600 
    152 H152       -1.8285  -19.6019  -40.7136 H         1 UNK         0.0600 
    153 H153       -0.2716  -20.4182  -40.8402 H         1 UNK         0.0600 
    154 H154       -0.4772  -18.8212  -42.7411 H         1 UNK         0.3000 
    155 H155       -0.2917  -18.2418  -46.2906 H         1 UNK         0.0600 
    156 H156       -1.1444  -16.5379  -43.8934 H         1 UNK         0.0600 
    157 H157       -2.0499  -16.7481  -45.3873 H         1 UNK         0.0600 
    158 H158       -0.5000  -15.9169  -45.4113 H         1 UNK         0.0600 
    159 H159        1.3080  -17.1803  -44.2102 H         1 UNK         0.3000 
    160 H160        3.7881  -19.7722  -44.1154 H         1 UNK         0.0600 
    161 H161        5.1698  -17.7222  -44.4836 H         1 UNK         0.0600 
    162 H162        3.7589  -16.8743  -45.1157 H         1 UNK         0.0600 
    163 H163        4.4049  -18.2662  -45.9691 H         1 UNK         0.0600 
    164 H164        3.2589  -17.3004  -42.6791 H         1 UNK         0.3000 
    165 H165        1.6902  -18.8654  -39.8840 H         1 UNK         0.0600 
    166 H166        3.5724  -17.8060  -38.6698 H         1 UNK         0.0600 
    167 H167        4.1279  -19.2519  -39.4977 H         1 UNK         0.0600 
    168 H168        4.4989  -17.6663  -40.1644 H         1 UNK         0.0600 
    169 H169        2.5291  -16.1741  -40.3946 H         1 UNK         0.3000 
    170 H170       -0.4182  -15.0944  -42.0700 H         1 UNK         0.0600 
    171 H171       -1.0638  -15.1225  -39.6509 H         1 UNK         0.0600 
    172 H172        0.5357  -14.5312  -39.2142 H         1 UNK         0.0600 
    173 H173       -0.5515  -13.5264  -40.1745 H         1 UNK         0.0600 
    174 H174        1.6498  -13.4816  -41.2602 H         1 UNK         0.3000 
    175 H175        3.7998  -13.2143  -42.4074 H         1 UNK         0.0600 
    176 H176        3.5448  -14.1100  -45.3314 H         1 UNK         0.0600 
    177 H177        4.7802  -13.0269  -44.6954 H         1 UNK         0.0600 
    178 H178        4.7183  -14.6993  -44.1613 H         1 UNK         0.0600 
    179 H179        1.9685  -12.3271  -44.5817 H         1 UNK         0.3000 
    180 H180        0.3333   -9.9826  -42.5415 H         1 UNK         0.0600 
    181 H181        2.3867   -9.2600  -44.7026 H         1 UNK         0.0600 
    182 H182        2.2624   -8.5423  -43.1045 H         1 UNK         0.0600 
    183 H183        0.9768   -8.2889  -44.2737 H         1 UNK         0.0600 
    184 H184        0.2633  -10.4767  -45.3608 H         1 UNK         0.3000 
    185 H185       -1.5714  -13.4424  -45.3769 H         1 UNK         0.0600 
    186 H186       -3.4681  -11.9241  -44.7827 H         1 UNK         0.0600 
    187 H187       -2.8208  -10.6825  -45.8486 H         1 UNK         0.0600 
    188 H188       -3.3974  -12.2118  -46.5135 H         1 UNK         0.0600 
    189 H189       -1.1606  -11.5956  -47.4682 H         1 UNK         0.3000 
    190 H190       -2.0316  -21.7025  -46.1025 H         1 UNK         0.3000 
    191 H191       -4.2616  -22.7656  -47.4580 H         1 UNK         0.0600 
    192 H192       -3.9886  -21.8565  -44.5507 H         1 UNK         0.0600 
    193 H193       -5.5094  -22.0994  -45.4018 H         1 UNK         0.0600 
    194 H194       -4.4052  -20.8376  -45.9272 H         1 UNK         0.0600 
    195 H195       -2.4207  -24.1026  -44.6878 H         1 UNK         0.3000 
    196 H196       -4.0636  -26.4155  -44.3086 H         1 UNK         0.0600 
    197 H197       -2.1192  -27.2200  -42.9600 H         1 UNK         0.0600 
    198 H198       -2.5414  -25.5630  -42.5554 H         1 UNK         0.0600 
    199 H199       -1.1367  -25.8922  -43.5671 H         1 UNK         0.0600 
    200 H200       -1.1466  -25.8115  -46.3050 H         1 UNK         0.3000 
    201 H201       -0.7568  -28.4910  -47.1622 H         1 UNK         0.0600 
    202 H202        1.0283  -26.7944  -47.2746 H         1 UNK         0.0600 
    203 H203        0.1149  -25.8544  -48.4525 H         1 UNK         0.0600 
    204 H204        0.7284  -27.4467  -48.8775 H         1 UNK         0.0600 
    205 H205       -2.5298  -25.7552  -48.7143 H         1 UNK         0.3000 
    206 H206       -4.3078  -27.6076  -50.0573 H         1 UNK         0.0600 
    207 H207       -3.7880  -26.7949  -52.3851 H         1 UNK         0.0600 
    208 H208       -2.3428  -25.9919  -51.7754 H         1 UNK         0.0600 
    209 H209       -2.4809  -27.7455  -51.7067 H         1 UNK         0.0600 
    210 H210       -3.1079  -24.2129  -50.4521 H         1 UNK         0.3000 
    211 H211       -5.4803  -22.9742  -49.5007 H         1 UNK         0.0600 
    212 H212       -5.0608  -23.0668  -52.5466 H         1 UNK         0.0600 
    213 H213       -6.1858  -21.9902  -51.7305 H         1 UNK         0.0600 
    214 H214       -6.4521  -23.7234  -51.6847 H         1 UNK         0.0600 
    215 H215       -5.2423  -20.6317  -49.6248 H         1 UNK         0.3000 
    216 H216       -2.5906  -19.5824  -50.4437 H         1 UNK         0.0600 
    217 H217       -2.5736  -18.1835  -48.3889 H         1 UNK         0.0600 
    218 H218       -2.5485  -19.8851  -47.9601 H         1 UNK         0.0600 
    219 H219       -4.0393  -18.9639  -47.8057 H         1 UNK         0.0600 
    220 H220       -2.8549  -17.8891  -51.7036 H         1 UNK         0.3000 
    221 H221       -3.6159  -16.2472  -52.9372 H         1 UNK         0.0600 
    222 H222       -5.6035  -15.6271  -50.6925 H         1 UNK         0.0600 
    223 H223       -3.9387  -15.0511  -50.7741 H         1 UNK         0.0600 
    224 H224       -5.1055  -14.5319  -51.9738 H         1 UNK         0.0600 
    225 H225       -4.8752  -18.9629  -53.1866 H         1 UNK         0.3000 
    226 H226       -6.7782  -18.3883  -55.2390 H         1 UNK         0.0600 
    227 H227       -8.7006  -19.6165  -54.1292 H         1 UNK         0.0600 
    228 H228       -7.7856  -19.6871  -52.6280 H         1 UNK         0.0600 
    229 H229       -8.3281  -18.1381  -53.2667 H         1 UNK         0.0600 
    230 H230       -7.5889  -20.4802  -56.1185 H         1 UNK         0.3000 
    231 H231       -7.2749  -22.4353  -57.1100 H         1 UNK         0.0600 
    232 H232       -8.3942  -23.1513  -55.0734 H         1 UNK         0.0600 
    233 H233       -6.8836  -23.2568  -54.1864 H         1 UNK         0.0600 
    234 H234       -7.2188  -24.3815  -55.5003 H         1 UNK         0.0600 
    235 H235       -4.9456  -23.5234  -54.7433 H         1 UNK         0.3000 
    236 H236       -3.0456  -24.5062  -56.5725 H         1 UNK         0.0600 
    237 H237       -3.3157  -25.3512  -54.2621 H         1 UNK         0.0600 
    238 H238       -1.6604  -24.8185  -54.5041 H         1 UNK         0.0600 
    239 H239       -2.7785  -23.8074  -53.5960 H         1 UNK         0.0600 
    240 H240       -3.3787  -21.2815  -55.2027 H         1 UNK         0.3000 
    241 H241       -0.7461  -20.3415  -55.9801 H         1 UNK         0.0600 
    242 H242       -3.4771  -21.1220  -58.0161 H         1 UNK         0.3800 
    243 H243       -2.9692  -20.1092  -59.3434 H         1 UNK         0.3800 
    244 H244       -1.7013  -18.0601  -55.5229 H         1 UNK         0.0800 
    245 H245       -3.2654  -18.7766  -55.2668 H         1 UNK         0.0800 
    246 H246        0.5441  -18.7285  -53.6938 H         1 UNK         0.0800 
    247 H247       -0.4450  -17.2882  -53.7533 H         1 UNK         0.0800 
@<TRIPOS>BOND
     1    1    2 1    
     2    1  127 1    
     3    1  128 1    
     4    1  129 1    
     5    2    3 2    
     6    2    4 am   BACKBONE|DICT|INTERRES
     7    4    5 1    
     8    4  130 1    
     9    5    6 1    
    10    5   65 1    
    11    5  131 1    
    12    6    7 1    
    13    6  132 1    
    14    6  133 1    
    15    7    8 1    
    16    8    9 1    
    17    8  134 1    
    18    8  135 1    
    19    9   10 ar   
    20    9   14 ar   
    21   10   11 ar   
    22   10  136 1    
    23   11   12 ar   
    24   11  126 1    
    25   12   13 ar   
    26   12  137 1    
    27   13   14 ar   
    28   13   15 1    
    29   14  138 1    
    30   15   16 1    
    31   15  139 1    
    32   15  140 1    
    33   16   17 1    
    34   17   18 1    
    35   17  141 1    
    36   17  142 1    
    37   18   19 1    
    38   18   67 1    
    39   18  143 1    
    40   19   20 am   BACKBONE|DICT|INTERRES
    41   19  144 1    
    42   20   21 2    
    43   20   22 1    
    44   22   23 1    
    45   22   24 1    
    46   22  145 1    
    47   23  146 1    
    48   23  147 1    
    49   23  148 1    
    50   24   25 am   BACKBONE|DICT|INTERRES
    51   24  149 1    
    52   25   26 2    
    53   25   27 1    
    54   27   28 1    
    55   27   29 1    
    56   27  150 1    
    57   28  151 1    
    58   28  152 1    
    59   28  153 1    
    60   29   30 am   BACKBONE|DICT|INTERRES
    61   29  154 1    
    62   30   31 2    
    63   30   32 1    
    64   32   33 1    
    65   32   34 1    
    66   32  155 1    
    67   33  156 1    
    68   33  157 1    
    69   33  158 1    
    70   34   35 am   BACKBONE|DICT|INTERRES
    71   34  159 1    
    72   35   36 2    
    73   35   37 1    
    74   37   38 1    
    75   37   39 1    
    76   37  160 1    
    77   38  161 1    
    78   38  162 1    
    79   38  163 1    
    80   39   40 am   BACKBONE|DICT|INTERRES
    81   39  164 1    
    82   40   41 2    
    83   40   42 1    
    84   42   43 1    
    85   42   44 1    
    86   42  165 1    
    87   43  166 1    
    88   43  167 1    
    89   43  168 1    
    90   44   45 am   BACKBONE|DICT|INTERRES
    91   44  169 1    
    92   45   46 2    
    93   45   47 1    
    94   47   48 1    
    95   47   49 1    
    96   47  170 1    
    97   48  171 1    
    98   48  172 1    
    99   48  173 1    
   100   49   50 am   BACKBONE|DICT|INTERRES
   101   49  174 1    
   102   50   51 2    
   103   50   52 1    
   104   52   53 1    
   105   52   54 1    
   106   52  175 1    
   107   53  176 1    
   108   53  177 1    
   109   53  178 1    
   110   54   55 am   BACKBONE|DICT|INTERRES
   111   54  179 1    
   112   55   56 2    
   113   55   57 1    
   114   57   58 1    
   115   57   59 1    
   116   57  180 1    
   117   58  181 1    
   118   58  182 1    
   119   58  183 1    
   120   59   60 am   BACKBONE|DICT|INTERRES
   121   59  184 1    
   122   60   61 2    
   123   60   62 1    
   124   62   63 1    
   125   62   64 1    
   126   62  185 1    
   127   63  186 1    
   128   63  187 1    
   129   63  188 1    
   130   64   65 am   BACKBONE|DICT|INTERRES
   131   64  189 1    
   132   65   66 2    
   133   67   68 2    
   134   67   69 am   BACKBONE|DICT|INTERRES
   135   69   70 1    
   136   69  190 1    
   137   70   71 1    
   138   70   72 1    
   139   70  191 1    
   140   71  192 1    
   141   71  193 1    
   142   71  194 1    
   143   72   73 2    
   144   72   74 am   BACKBONE|DICT|INTERRES
   145   74   75 1    
   146   74  195 1    
   147   75   76 1    
   148   75   77 1    
   149   75  196 1    
   150   76  197 1    
   151   76  198 1    
   152   76  199 1    
   153   77   78 2    
   154   77   79 am   BACKBONE|DICT|INTERRES
   155   79   80 1    
   156   79  200 1    
   157   80   81 1    
   158   80   82 1    
   159   80  201 1    
   160   81  202 1    
   161   81  203 1    
   162   81  204 1    
   163   82   83 2    
   164   82   84 am   BACKBONE|DICT|INTERRES
   165   84   85 1    
   166   84  205 1    
   167   85   86 1    
   168   85   87 1    
   169   85  206 1    
   170   86  207 1    
   171   86  208 1    
   172   86  209 1    
   173   87   88 2    
   174   87   89 am   BACKBONE|DICT|INTERRES
   175   89   90 1    
   176   89  210 1    
   177   90   91 1    
   178   90   92 1    
   179   90  211 1    
   180   91  212 1    
   181   91  213 1    
   182   91  214 1    
   183   92   93 2    
   184   92   94 am   BACKBONE|DICT|INTERRES
   185   94   95 1    
   186   94  215 1    
   187   95   96 1    
   188   95   97 1    
   189   95  216 1    
   190   96  217 1    
   191   96  218 1    
   192   96  219 1    
   193   97   98 2    
   194   97   99 am   BACKBONE|DICT|INTERRES
   195   99  100 1    
   196   99  220 1    
   197  100  101 1    
   198  100  102 1    
   199  100  221 1    
   200  101  222 1    
   201  101  223 1    
   202  101  224 1    
   203  102  103 2    
   204  102  104 am   BACKBONE|DICT|INTERRES
   205  104  105 1    
   206  104  225 1    
   207  105  106 1    
   208  105  107 1    
   209  105  226 1    
   210  106  227 1    
   211  106  228 1    
   212  106  229 1    
   213  107  108 2    
   214  107  109 am   BACKBONE|DICT|INTERRES
   215  109  110 1    
   216  109  230 1    
   217  110  111 1    
   218  110  112 1    
   219  110  231 1    
   220  111  232 1    
   221  111  233 1    
   222  111  234 1    
   223  112  113 2    
   224  112  114 am   BACKBONE|DICT|INTERRES
   225  114  115 1    
   226  114  235 1    
   227  115  116 1    
   228  115  117 1    
   229  115  236 1    
   230  116  237 1    
   231  116  238 1    
   232  116  239 1    
   233  117  118 2    
   234  117  119 am   BACKBONE|DICT|INTERRES
   235  119  120 1    
   236  119  240 1    
   237  120  121 1    
   238  120  124 1    
   239  120  241 1    
   240  121  122 am   BACKBONE|DICT|INTERRES
   241  121  123 2    
   242  122  242 1    
   243  122  243 1    
   244  124  125 1    
   245  124  244 1    
   246  124  245 1    
   247  125  126 1    
   248  126  246 1    
   249  126  247 1    
@<TRIPOS>SUBSTRUCTURE
     1 UNK         1 GROUP             0       ****    0 ROOT    
