@<TRIPOS>MOLECULE
3R540
247   249    1
SMALL
USER_CHARGES


@<TRIPOS>ATOM
      1 CA          3.1742  -16.0696  -47.4119 C.3       0 UNK        -0.1800 
      2 C           1.9734  -15.1631  -47.1863 C.2       0 UNK         0.5000 
      3 O           1.6757  -14.8265  -46.0407 O.2       0 UNK        -0.5000 
      4 N           1.2930  -14.7746  -48.2748 N.am      1 UNK        -0.5000 
      5 CA          0.0739  -13.9554  -48.3161 C.3       1 UNK         0.1400 
      6 C6         -0.3864  -13.7031  -49.7759 C.3       23 UNK        -0.0398 
      7 S7         -2.1848  -13.4069  -49.8995 S.3       23 UNK        -0.2404 
      8 C8         -2.6717  -14.5434  -51.2379 C.3       23 UNK        -0.0205 
      9 C9         -2.7684  -15.9857  -50.7629 C.ar      23 UNK        -0.0193 
     10 C10        -3.9710  -16.4757  -50.2421 C.ar      23 UNK        -0.1150 
     11 C11        -4.0751  -17.8085  -49.8320 C.ar      23 UNK        -0.0193 
     12 C12        -2.9600  -18.6425  -49.9242 C.ar      23 UNK        -0.1150 
     13 C13        -1.7534  -18.1649  -50.4379 C.ar      23 UNK        -0.0193 
     14 C14        -1.6674  -16.8408  -50.8704 C.ar      23 UNK        -0.1150 
     15 C15        -0.5596  -19.0941  -50.5696 C.3       23 UNK        -0.0205 
     16 S16         0.7586  -18.7230  -49.3700 S.3       23 UNK        -0.2404 
     17 C17        -0.0713  -18.9852  -47.7671 C.3       23 UNK        -0.0398 
     18 CA         -0.1756  -20.4844  -47.3664 C.3       11 UNK         0.1400 
     19 N           0.2849  -20.7343  -45.9974 N.am      11 UNK        -0.5000 
     20 C           0.4304  -21.9484  -45.4471 C.2       10 UNK         0.5000 
     21 O           0.2488  -23.0021  -46.0573 O.2       10 UNK        -0.5000 
     22 CA          0.7829  -21.9941  -43.9489 C.3       10 UNK         0.1400 
     23 CB          2.2926  -21.8150  -43.7324 C.3       10 UNK        -0.1800 
     24 N           0.0442  -20.9996  -43.1676 N.am      10 UNK        -0.5000 
     25 C          -1.2889  -20.9964  -43.0207 C.2       9 UNK         0.5000 
     26 O          -2.0260  -21.8649  -43.4838 O.2       9 UNK        -0.5000 
     27 CA         -1.9145  -19.8028  -42.2783 C.3       9 UNK         0.1400 
     28 CB         -1.7968  -19.9823  -40.7579 C.3       9 UNK        -0.1800 
     29 N          -1.3337  -18.5210  -42.6786 N.am      9 UNK        -0.5000 
     30 C          -1.3975  -18.0127  -43.9189 C.2       8 UNK         0.5000 
     31 O          -1.9972  -18.5486  -44.8507 O.2       8 UNK        -0.5000 
     32 CA         -0.6074  -16.7198  -44.1802 C.3       8 UNK         0.1400 
     33 CB         -1.3831  -15.4879  -43.6919 C.3       8 UNK        -0.1800 
     34 N           0.7122  -16.7460  -43.5549 N.am      8 UNK        -0.5000 
     35 C           1.6908  -17.6021  -43.8780 C.2       7 UNK         0.5000 
     36 O           1.5930  -18.4579  -44.7561 O.2       7 UNK        -0.5000 
     37 CA          2.9731  -17.5301  -43.0353 C.3       7 UNK         0.1400 
     38 CB          3.8531  -16.3498  -43.4717 C.3       7 UNK        -0.1800 
     39 N           2.6792  -17.4349  -41.6050 N.am      7 UNK        -0.5000 
     40 C           2.1215  -18.4175  -40.8827 C.2       6 UNK         0.5000 
     41 O           1.8167  -19.5169  -41.3438 O.2       6 UNK        -0.5000 
     42 CA          1.8278  -18.1097  -39.4036 C.3       6 UNK         0.1400 
     43 CB          3.0750  -18.3570  -38.5420 C.3       6 UNK        -0.1800 
     44 N           1.3586  -16.7397  -39.1955 N.am      6 UNK        -0.5000 
     45 C           0.1757  -16.2716  -39.6180 C.2       5 UNK         0.5000 
     46 O          -0.6571  -16.9501  -40.2188 O.2       5 UNK        -0.5000 
     47 CA         -0.0865  -14.7725  -39.3796 C.3       5 UNK         0.1400 
     48 CB         -0.5204  -14.5164  -37.9284 C.3       5 UNK        -0.1800 
     49 N           1.0743  -13.9351  -39.7028 N.am      5 UNK        -0.5000 
     50 C           1.6145  -13.8570  -40.9247 C.2       4 UNK         0.5000 
     51 O           1.1889  -14.4894  -41.8960 O.2       4 UNK        -0.5000 
     52 CA          2.8471  -12.9598  -41.0975 C.3       4 UNK         0.1400 
     53 CB          4.1094  -13.6521  -40.5491 C.3       4 UNK        -0.1800 
     54 N           2.9692  -12.7156  -42.5271 N.am      4 UNK        -0.5000 
     55 C           3.7675  -11.8574  -43.1651 C.2       3 UNK         0.5000 
     56 O           4.5976  -11.1362  -42.6109 O.2       3 UNK        -0.5000 
     57 CA          3.5715  -11.7827  -44.6911 C.3       3 UNK         0.1400 
     58 CB          4.4633  -12.8100  -45.4047 C.3       3 UNK        -0.1800 
     59 N           2.1743  -12.0045  -45.0791 N.am      3 UNK        -0.5000 
     60 C           1.1932  -11.1053  -44.9057 C.2       2 UNK         0.5000 
     61 O           1.3838   -9.9903  -44.4165 O.2       2 UNK        -0.5000 
     62 CA         -0.2378  -11.5146  -45.3276 C.3       2 UNK         0.1400 
     63 CB         -1.0768  -10.3150  -45.8158 C.3       2 UNK        -0.1800 
     64 N          -0.2934  -12.6098  -46.3024 N.am      2 UNK        -0.5000 
     65 C           0.2285  -12.6292  -47.5377 C.2       1 UNK         0.5000 
     66 O           0.8406  -11.6877  -48.0466 O.2       1 UNK        -0.5000 
     67 C          -1.6027  -21.0301  -47.5848 C.2       11 UNK         0.5000 
     68 O          -1.8394  -21.7514  -48.5531 O.2       11 UNK        -0.5000 
     69 N          -2.5200  -20.7081  -46.6622 N.am      12 UNK        -0.5000 
     70 CA         -3.9103  -21.1647  -46.6767 C.3       12 UNK         0.1400 
     71 CB         -4.7054  -20.4079  -45.6031 C.3       12 UNK        -0.1800 
     72 C          -4.0589  -22.6872  -46.4982 C.2       12 UNK         0.5000 
     73 O          -4.9557  -23.2759  -47.1004 O.2       12 UNK        -0.5000 
     74 N          -3.1760  -23.3007  -45.6978 N.am      13 UNK        -0.5000 
     75 CA         -3.0895  -24.7503  -45.5177 C.3       13 UNK         0.1400 
     76 CB         -2.1923  -25.0718  -44.3129 C.3       13 UNK        -0.1800 
     77 C          -2.5872  -25.4710  -46.7824 C.2       13 UNK         0.5000 
     78 O          -3.0946  -26.5459  -47.1053 O.2       13 UNK        -0.5000 
     79 N          -1.6177  -24.8638  -47.4824 N.am      14 UNK        -0.5000 
     80 CA         -1.1173  -25.3287  -48.7768 C.3       14 UNK         0.1400 
     81 CB          0.1853  -24.5906  -49.1205 C.3       14 UNK        -0.1800 
     82 C          -2.1607  -25.1676  -49.8983 C.2       14 UNK         0.5000 
     83 O          -2.2957  -26.0653  -50.7311 O.2       14 UNK        -0.5000 
     84 N          -2.8919  -24.0425  -49.8832 N.am      15 UNK        -0.5000 
     85 CA         -3.9872  -23.6838  -50.7876 C.3       15 UNK         0.1400 
     86 CB         -5.2302  -24.5519  -50.4881 C.3       15 UNK        -0.1800 
     87 C          -3.5275  -23.7307  -52.2577 C.2       15 UNK         0.5000 
     88 O          -2.6267  -22.9767  -52.6240 O.2       15 UNK        -0.5000 
     89 N          -4.0926  -24.6490  -53.0529 N.am      16 UNK        -0.5000 
     90 CA         -3.7647  -24.8967  -54.4599 C.3       16 UNK         0.1400 
     91 CB         -4.7676  -25.9169  -55.0221 C.3       16 UNK        -0.1800 
     92 C          -2.3149  -25.3604  -54.7273 C.2       16 UNK         0.5000 
     93 O          -1.8913  -25.3568  -55.8837 O.2       16 UNK        -0.5000 
     94 N          -1.5755  -25.7582  -53.6817 N.am      17 UNK        -0.5000 
     95 CA         -0.1515  -26.0861  -53.7690 C.3       17 UNK         0.1400 
     96 CB          0.2077  -27.0828  -52.6556 C.3       17 UNK        -0.1800 
     97 C           0.7615  -24.8428  -53.7034 C.2       17 UNK         0.5000 
     98 O           1.9529  -24.9746  -53.9880 O.2       17 UNK        -0.5000 
     99 N           0.2177  -23.6771  -53.3225 N.am      18 UNK        -0.5000 
    100 CA         0.9608  -22.4246  -53.1621 C.3       18 UNK         0.1400 
    101 CB         1.0592  -22.0863  -51.6667 C.3       18 UNK        -0.1800 
    102 C          0.3230  -21.2735  -53.9582 C.2       18 UNK         0.5000 
    103 O          1.0358  -20.5583  -54.6638 O.2       18 UNK        -0.5000 
    104 N         -1.0011  -21.1254  -53.8503 N.am      19 UNK        -0.5000 
    105 CA        -1.8276  -20.2228  -54.6489 C.3       19 UNK         0.1400 
    106 CB        -2.8984  -19.6092  -53.7276 C.3       19 UNK        -0.1800 
    107 C         -2.4798  -21.0035  -55.8055 C.2       19 UNK         0.5000 
    108 O         -2.1923  -22.1862  -55.9962 O.2       19 UNK        -0.5000 
    109 N         -3.3749  -20.3422  -56.5522 N.am      20 UNK        -0.5000 
    110 CA        -4.2272  -20.9873  -57.5567 C.3       20 UNK         0.1400 
    111 CB        -4.9213  -19.9105  -58.4047 C.3       20 UNK        -0.1800 
    112 C         -5.2667  -21.9321  -56.9184 C.2       20 UNK         0.5000 
    113 O         -5.5376  -22.9991  -57.4689 O.2       20 UNK        -0.5000 
    114 N         -5.7928  -21.5258  -55.7549 N.am      21 UNK        -0.5000 
    115 CA        -6.7135  -22.2702  -54.8950 C.3       21 UNK         0.1400 
    116 CB        -8.0443  -22.5920  -55.6065 C.3       21 UNK        -0.1800 
    117 C         -6.9774  -21.4660  -53.6151 C.2       21 UNK         0.5000 
    118 O         -6.9012  -22.0256  -52.5243 O.2       21 UNK        -0.5000 
    119 N         -7.2826  -20.1728  -53.7967 N.am      22 UNK        -0.5000 
    120 CA        -7.6087  -19.1553  -52.7778 C.3       22 UNK         0.1400 
    121 C         -8.9314  -19.3625  -51.9752 C.2       22 UNK         0.5000 
    122 N         -9.7410  -20.3714  -52.2710 N.am      22 UNK        -0.7600 
    123 O         -9.2601  -18.5599  -51.1056 O.2       22 UNK        -0.5000 
    124 C124       -6.3860  -18.7130  -51.9191 C.3       23 UNK        -0.0398 
    125 S125       -6.0449  -19.6729  -50.3985 S.3       23 UNK        -0.2404 
    126 C126       -5.3912  -18.3650  -49.3092 C.3       23 UNK        -0.0205 
    127 H127        3.0364  -17.0086  -46.8755 H         1 UNK         0.0600 
    128 H128        4.0810  -15.5923  -47.0413 H         1 UNK         0.0600 
    129 H129        3.3161  -16.3014  -48.4677 H         1 UNK         0.0600 
    130 H130        1.6294  -15.0814  -49.1756 H         1 UNK         0.3000 
    131 H131       -0.6939  -14.5551  -47.8222 H         1 UNK         0.0600 
    132 H132       -0.1338  -14.5614  -50.3939 H         1 UNK         0.0800 
    133 H133        0.1444  -12.8671  -50.2350 H         1 UNK         0.0800 
    134 H134       -1.9700  -14.4595  -52.0693 H         1 UNK         0.0800 
    135 H135       -3.6387  -14.2244  -51.6299 H         1 UNK         0.0800 
    136 H136       -4.8288  -15.8217  -50.1709 H         1 UNK         0.1150 
    137 H137       -3.0490  -19.6755  -49.6236 H         1 UNK         0.1150 
    138 H138       -0.7407  -16.4864  -51.2969 H         1 UNK         0.1150 
    139 H139       -0.8732  -20.1312  -50.4567 H         1 UNK         0.0800 
    140 H140       -0.1514  -19.0107  -51.5777 H         1 UNK         0.0800 
    141 H141        0.5307  -18.4389  -47.0431 H         1 UNK         0.0800 
    142 H142       -1.0354  -18.4734  -47.7549 H         1 UNK         0.0800 
    143 H143        0.4860  -21.0672  -48.0111 H         1 UNK         0.0600 
    144 H144        0.5133  -19.9185  -45.4362 H         1 UNK         0.3000 
    145 H145        0.5053  -22.9817  -43.5749 H         1 UNK         0.0600 
    146 H146        2.5552  -21.9293  -42.6806 H         1 UNK         0.0600 
    147 H147        2.8581  -22.5612  -44.2919 H         1 UNK         0.0600 
    148 H148        2.6350  -20.8324  -44.0566 H         1 UNK         0.0600 
    149 H149        0.5940  -20.2766  -42.7136 H         1 UNK         0.3000 
    150 H150       -2.9761  -19.7767  -42.5325 H         1 UNK         0.0600 
    151 H151       -2.2349  -20.9297  -40.4414 H         1 UNK         0.0600 
    152 H152       -2.3216  -19.1886  -40.2261 H         1 UNK         0.0600 
    153 H153       -0.7575  -19.9750  -40.4297 H         1 UNK         0.0600 
    154 H154       -0.8537  -17.9946  -41.9557 H         1 UNK         0.3000 
    155 H155       -0.4634  -16.6270  -45.2587 H         1 UNK         0.0600 
    156 H156       -0.8460  -14.5691  -43.9265 H         1 UNK         0.0600 
    157 H157       -1.5401  -15.5138  -42.6128 H         1 UNK         0.0600 
    158 H158       -2.3624  -15.4275  -44.1681 H         1 UNK         0.0600 
    159 H159        0.8884  -16.0410  -42.8433 H         1 UNK         0.3000 
    160 H160        3.5359  -18.4508  -43.2036 H         1 UNK         0.0600 
    161 H161        3.3391  -15.3972  -43.3505 H         1 UNK         0.0600 
    162 H162        4.1260  -16.4390  -44.5235 H         1 UNK         0.0600 
    163 H163        4.7793  -16.3110  -42.8986 H         1 UNK         0.0600 
    164 H164        2.8576  -16.5490  -41.1588 H         1 UNK         0.3000 
    165 H165        1.0432  -18.7925  -39.0708 H         1 UNK         0.0600 
    166 H166        3.8914  -17.6850  -38.8097 H         1 UNK         0.0600 
    167 H167        2.8568  -18.2159  -37.4833 H         1 UNK         0.0600 
    168 H168        3.4370  -19.3787  -38.6647 H         1 UNK         0.0600 
    169 H169        1.9840  -16.1090  -38.7161 H         1 UNK         0.3000 
    170 H170       -0.9065  -14.4745  -40.0367 H         1 UNK         0.0600 
    171 H171       -1.3902  -15.1216  -37.6691 H         1 UNK         0.0600 
    172 H172        0.2720  -14.7594  -37.2196 H         1 UNK         0.0600 
    173 H173       -0.7966  -13.4726  -37.7784 H         1 UNK         0.0600 
    174 H174        1.4708  -13.3937  -38.9480 H         1 UNK         0.3000 
    175 H175        2.6776  -12.0121  -40.5833 H         1 UNK         0.0600 
    176 H176        4.9903  -13.0199  -40.6580 H         1 UNK         0.0600 
    177 H177        4.0059  -13.8739  -39.4864 H         1 UNK         0.0600 
    178 H178        4.3102  -14.5921  -41.0631 H         1 UNK         0.0600 
    179 H179        2.3025  -13.2531  -43.0696 H         1 UNK         0.3000 
    180 H180        3.8707  -10.7853  -45.0203 H         1 UNK         0.0600 
    181 H181        4.3624  -12.7347  -46.4875 H         1 UNK         0.0600 
    182 H182        5.5146  -12.6494  -45.1627 H         1 UNK         0.0600 
    183 H183        4.2122  -13.8306  -45.1156 H         1 UNK         0.0600 
    184 H184        1.9428  -12.9126  -45.4712 H         1 UNK         0.3000 
    185 H185       -0.7115  -11.8972  -44.4225 H         1 UNK         0.0600 
    186 H186       -2.0847  -10.6250  -46.0918 H         1 UNK         0.0600 
    187 H187       -1.1751   -9.5598  -45.0352 H         1 UNK         0.0600 
    188 H188       -0.6254   -9.8316  -46.6826 H         1 UNK         0.0600 
    189 H189       -0.7151  -13.4622  -45.9624 H         1 UNK         0.3000 
    190 H190       -2.2591  -20.0766  -45.9080 H         1 UNK         0.3000 
    191 H191       -4.3296  -20.9128  -47.6526 H         1 UNK         0.0600 
    192 H192       -5.7557  -20.7017  -45.6146 H         1 UNK         0.0600 
    193 H193       -4.6661  -19.3311  -45.7691 H         1 UNK         0.0600 
    194 H194       -4.3179  -20.6061  -44.6033 H         1 UNK         0.0600 
    195 H195       -2.5287  -22.7339  -45.1582 H         1 UNK         0.3000 
    196 H196       -4.0924  -25.1231  -45.2991 H         1 UNK         0.0600 
    197 H197       -2.1314  -26.1482  -44.1478 H         1 UNK         0.0600 
    198 H198       -2.5844  -24.6246  -43.3993 H         1 UNK         0.0600 
    199 H199       -1.1765  -24.7038  -44.4563 H         1 UNK         0.0600 
    200 H200       -1.2122  -24.0088  -47.1167 H         1 UNK         0.3000 
    201 H201       -0.8877  -26.3927  -48.6906 H         1 UNK         0.0600 
    202 H202        0.9585  -24.7946  -48.3797 H         1 UNK         0.0600 
    203 H203        0.0404  -23.5115  -49.1571 H         1 UNK         0.0600 
    204 H204        0.5726  -24.9024  -50.0905 H         1 UNK         0.0600 
    205 H205       -2.6224  -23.3169  -49.2230 H         1 UNK         0.3000 
    206 H206       -4.2437  -22.6444  -50.5758 H         1 UNK         0.0600 
    207 H207       -5.5520  -24.4226  -49.4554 H         1 UNK         0.0600 
    208 H208       -6.0726  -24.2664  -51.1192 H         1 UNK         0.0600 
    209 H209       -5.0411  -25.6152  -50.6384 H         1 UNK         0.0600 
    210 H210       -4.7869  -25.2578  -52.6451 H         1 UNK         0.3000 
    211 H211       -3.9004  -23.9567  -54.9958 H         1 UNK         0.0600 
    212 H212       -4.6807  -26.8819  -54.5213 H         1 UNK         0.0600 
    213 H213       -4.6000  -26.0827  -56.0872 H         1 UNK         0.0600 
    214 H214       -5.7951  -25.5712  -54.9105 H         1 UNK         0.0600 
    215 H215       -1.9900  -25.7742  -52.7551 H         1 UNK         0.3000 
    216 H216        0.0420  -26.5796  -54.7237 H         1 UNK         0.0600 
    217 H217        1.2365  -27.4292  -52.7602 H         1 UNK         0.0600 
    218 H218       -0.4356  -27.9623  -52.6885 H         1 UNK         0.0600 
    219 H219        0.1154  -26.6365  -51.6665 H         1 UNK         0.0600 
    220 H220       -0.7807  -23.6364  -53.1485 H         1 UNK         0.3000 
    221 H221        1.9785  -22.5324  -53.5429 H         1 UNK         0.0600 
    222 H222        0.0777  -22.0850  -51.1927 H         1 UNK         0.0600 
    223 H223        1.6789  -22.8142  -51.1437 H         1 UNK         0.0600 
    224 H224        1.5112  -21.1061  -51.5104 H         1 UNK         0.0600 
    225 H225       -1.5298  -21.8010  -53.3008 H         1 UNK         0.3000 
    226 H226       -1.2220  -19.4202  -55.0739 H         1 UNK         0.0600 
    227 H227       -2.4361  -19.0806  -52.8978 H         1 UNK         0.0600 
    228 H228       -3.5177  -18.8822  -54.2530 H         1 UNK         0.0600 
    229 H229       -3.5592  -20.3701  -53.3093 H         1 UNK         0.0600 
    230 H230       -3.5384  -19.3611  -56.3787 H         1 UNK         0.3000 
    231 H231       -3.5929  -21.5838  -58.2162 H         1 UNK         0.0600 
    232 H232       -5.5499  -20.3646  -59.1719 H         1 UNK         0.0600 
    233 H233       -4.1925  -19.2803  -58.9148 H         1 UNK         0.0600 
    234 H234       -5.5581  -19.2652  -57.7985 H         1 UNK         0.0600 
    235 H235       -5.4590  -20.6538  -55.3704 H         1 UNK         0.3000 
    236 H236       -6.2332  -23.2052  -54.6057 H         1 UNK         0.0600 
    237 H237       -8.5041  -21.6979  -56.0286 H         1 UNK         0.0600 
    238 H238       -7.9061  -23.3093  -56.4148 H         1 UNK         0.0600 
    239 H239       -8.7607  -23.0353  -54.9136 H         1 UNK         0.0600 
    240 H240       -7.3814  -19.8505  -54.7487 H         1 UNK         0.3000 
    241 H241       -7.8467  -18.2868  -53.3933 H         1 UNK         0.0600 
    242 H242      -10.6017  -20.4828  -51.7584 H         1 UNK         0.3800 
    243 H243       -9.4861  -21.0424  -52.9767 H         1 UNK         0.3800 
    244 H244       -6.5379  -17.6733  -51.6260 H         1 UNK         0.0800 
    245 H245       -5.4814  -18.7061  -52.5273 H         1 UNK         0.0800 
    246 H246       -5.2341  -18.7742  -48.3112 H         1 UNK         0.0800 
    247 H247       -6.1372  -17.5762  -49.2020 H         1 UNK         0.0800 
@<TRIPOS>BOND
     1    1    2 1    
     2    1  127 1    
     3    1  128 1    
     4    1  129 1    
     5    2    3 2    
     6    2    4 am   BACKBONE|DICT|INTERRES
     7    4    5 1    
     8    4  130 1    
     9    5    6 1    
    10    5   65 1    
    11    5  131 1    
    12    6    7 1    
    13    6  132 1    
    14    6  133 1    
    15    7    8 1    
    16    8    9 1    
    17    8  134 1    
    18    8  135 1    
    19    9   10 ar   
    20    9   14 ar   
    21   10   11 ar   
    22   10  136 1    
    23   11   12 ar   
    24   11  126 1    
    25   12   13 ar   
    26   12  137 1    
    27   13   14 ar   
    28   13   15 1    
    29   14  138 1    
    30   15   16 1    
    31   15  139 1    
    32   15  140 1    
    33   16   17 1    
    34   17   18 1    
    35   17  141 1    
    36   17  142 1    
    37   18   19 1    
    38   18   67 1    
    39   18  143 1    
    40   19   20 am   BACKBONE|DICT|INTERRES
    41   19  144 1    
    42   20   21 2    
    43   20   22 1    
    44   22   23 1    
    45   22   24 1    
    46   22  145 1    
    47   23  146 1    
    48   23  147 1    
    49   23  148 1    
    50   24   25 am   BACKBONE|DICT|INTERRES
    51   24  149 1    
    52   25   26 2    
    53   25   27 1    
    54   27   28 1    
    55   27   29 1    
    56   27  150 1    
    57   28  151 1    
    58   28  152 1    
    59   28  153 1    
    60   29   30 am   BACKBONE|DICT|INTERRES
    61   29  154 1    
    62   30   31 2    
    63   30   32 1    
    64   32   33 1    
    65   32   34 1    
    66   32  155 1    
    67   33  156 1    
    68   33  157 1    
    69   33  158 1    
    70   34   35 am   BACKBONE|DICT|INTERRES
    71   34  159 1    
    72   35   36 2    
    73   35   37 1    
    74   37   38 1    
    75   37   39 1    
    76   37  160 1    
    77   38  161 1    
    78   38  162 1    
    79   38  163 1    
    80   39   40 am   BACKBONE|DICT|INTERRES
    81   39  164 1    
    82   40   41 2    
    83   40   42 1    
    84   42   43 1    
    85   42   44 1    
    86   42  165 1    
    87   43  166 1    
    88   43  167 1    
    89   43  168 1    
    90   44   45 am   BACKBONE|DICT|INTERRES
    91   44  169 1    
    92   45   46 2    
    93   45   47 1    
    94   47   48 1    
    95   47   49 1    
    96   47  170 1    
    97   48  171 1    
    98   48  172 1    
    99   48  173 1    
   100   49   50 am   BACKBONE|DICT|INTERRES
   101   49  174 1    
   102   50   51 2    
   103   50   52 1    
   104   52   53 1    
   105   52   54 1    
   106   52  175 1    
   107   53  176 1    
   108   53  177 1    
   109   53  178 1    
   110   54   55 am   BACKBONE|DICT|INTERRES
   111   54  179 1    
   112   55   56 2    
   113   55   57 1    
   114   57   58 1    
   115   57   59 1    
   116   57  180 1    
   117   58  181 1    
   118   58  182 1    
   119   58  183 1    
   120   59   60 am   BACKBONE|DICT|INTERRES
   121   59  184 1    
   122   60   61 2    
   123   60   62 1    
   124   62   63 1    
   125   62   64 1    
   126   62  185 1    
   127   63  186 1    
   128   63  187 1    
   129   63  188 1    
   130   64   65 am   BACKBONE|DICT|INTERRES
   131   64  189 1    
   132   65   66 2    
   133   67   68 2    
   134   67   69 am   BACKBONE|DICT|INTERRES
   135   69   70 1    
   136   69  190 1    
   137   70   71 1    
   138   70   72 1    
   139   70  191 1    
   140   71  192 1    
   141   71  193 1    
   142   71  194 1    
   143   72   73 2    
   144   72   74 am   BACKBONE|DICT|INTERRES
   145   74   75 1    
   146   74  195 1    
   147   75   76 1    
   148   75   77 1    
   149   75  196 1    
   150   76  197 1    
   151   76  198 1    
   152   76  199 1    
   153   77   78 2    
   154   77   79 am   BACKBONE|DICT|INTERRES
   155   79   80 1    
   156   79  200 1    
   157   80   81 1    
   158   80   82 1    
   159   80  201 1    
   160   81  202 1    
   161   81  203 1    
   162   81  204 1    
   163   82   83 2    
   164   82   84 am   BACKBONE|DICT|INTERRES
   165   84   85 1    
   166   84  205 1    
   167   85   86 1    
   168   85   87 1    
   169   85  206 1    
   170   86  207 1    
   171   86  208 1    
   172   86  209 1    
   173   87   88 2    
   174   87   89 am   BACKBONE|DICT|INTERRES
   175   89   90 1    
   176   89  210 1    
   177   90   91 1    
   178   90   92 1    
   179   90  211 1    
   180   91  212 1    
   181   91  213 1    
   182   91  214 1    
   183   92   93 2    
   184   92   94 am   BACKBONE|DICT|INTERRES
   185   94   95 1    
   186   94  215 1    
   187   95   96 1    
   188   95   97 1    
   189   95  216 1    
   190   96  217 1    
   191   96  218 1    
   192   96  219 1    
   193   97   98 2    
   194   97   99 am   BACKBONE|DICT|INTERRES
   195   99  100 1    
   196   99  220 1    
   197  100  101 1    
   198  100  102 1    
   199  100  221 1    
   200  101  222 1    
   201  101  223 1    
   202  101  224 1    
   203  102  103 2    
   204  102  104 am   BACKBONE|DICT|INTERRES
   205  104  105 1    
   206  104  225 1    
   207  105  106 1    
   208  105  107 1    
   209  105  226 1    
   210  106  227 1    
   211  106  228 1    
   212  106  229 1    
   213  107  108 2    
   214  107  109 am   BACKBONE|DICT|INTERRES
   215  109  110 1    
   216  109  230 1    
   217  110  111 1    
   218  110  112 1    
   219  110  231 1    
   220  111  232 1    
   221  111  233 1    
   222  111  234 1    
   223  112  113 2    
   224  112  114 am   BACKBONE|DICT|INTERRES
   225  114  115 1    
   226  114  235 1    
   227  115  116 1    
   228  115  117 1    
   229  115  236 1    
   230  116  237 1    
   231  116  238 1    
   232  116  239 1    
   233  117  118 2    
   234  117  119 am   BACKBONE|DICT|INTERRES
   235  119  120 1    
   236  119  240 1    
   237  120  121 1    
   238  120  124 1    
   239  120  241 1    
   240  121  122 am   BACKBONE|DICT|INTERRES
   241  121  123 2    
   242  122  242 1    
   243  122  243 1    
   244  124  125 1    
   245  124  244 1    
   246  124  245 1    
   247  125  126 1    
   248  126  246 1    
   249  126  247 1    
@<TRIPOS>SUBSTRUCTURE
     1 UNK         1 GROUP             0       ****    0 ROOT    
