@<TRIPOS>MOLECULE
3R540
247   249    1
SMALL
USER_CHARGES


@<TRIPOS>ATOM
      1 CA         -0.3684  -12.6274  -52.6257 C.3       0 UNK        -0.1800 
      2 C           0.4076  -12.7210  -51.3194 C.2       0 UNK         0.5000 
      3 O           0.9241  -11.7118  -50.8399 O.2       0 UNK        -0.5000 
      4 N           0.4801  -13.9225  -50.7333 N.am      1 UNK        -0.5000 
      5 CA          1.2032  -14.2071  -49.4835 C.3       1 UNK         0.1400 
      6 C6          1.6412  -15.6944  -49.4043 C.3       23 UNK        -0.0398 
      7 S7          3.1825  -15.9809  -50.3358 S.3       23 UNK        -0.2404 
      8 C8          2.5957  -16.8839  -51.8031 C.3       23 UNK        -0.0205 
      9 C9          2.1128  -18.2972  -51.4963 C.ar      23 UNK        -0.0193 
     10 C10         0.8845  -18.7286  -52.0007 C.ar      23 UNK        -0.1150 
     11 C11         0.4435  -20.0370  -51.7898 C.ar      23 UNK        -0.0193 
     12 C12         1.2225  -20.9068  -51.0253 C.ar      23 UNK        -0.1150 
     13 C13         2.4449  -20.4864  -50.4955 C.ar      23 UNK        -0.0193 
     14 C14         2.8957  -19.1876  -50.7525 C.ar      23 UNK        -0.1150 
     15 C15         3.2670  -21.4398  -49.6402 C.3       23 UNK        -0.0205 
     16 S16         3.4405  -20.8733  -47.9154 S.3       23 UNK        -0.2404 
     17 C17         1.7072  -20.6387  -47.3970 C.3       23 UNK        -0.0398 
     18 CA          1.0421  -21.9474  -46.8843 C.3       11 UNK         0.1400 
     19 N           0.6447  -21.8579  -45.4740 N.am      11 UNK        -0.5000 
     20 C           0.1569  -22.8722  -44.7439 C.2       10 UNK         0.5000 
     21 O           0.0359  -24.0235  -45.1644 O.2       10 UNK        -0.5000 
     22 CA         -0.3271  -22.5309  -43.3209 C.3       10 UNK         0.1400 
     23 CB          0.8548  -22.4239  -42.3463 C.3       10 UNK        -0.1800 
     24 N          -1.1175  -21.2985  -43.2793 N.am      10 UNK        -0.5000 
     25 C          -2.2999  -21.1419  -43.8929 C.2       9 UNK         0.5000 
     26 O          -2.8772  -22.0429  -44.5001 O.2       9 UNK        -0.5000 
     27 CA         -2.9139  -19.7300  -43.8793 C.3       9 UNK         0.1400 
     28 CB         -3.6706  -19.4664  -42.5693 C.3       9 UNK        -0.1800 
     29 N          -1.9162  -18.6821  -44.0909 N.am      9 UNK        -0.5000 
     30 C          -1.1683  -18.5475  -45.1957 C.2       8 UNK         0.5000 
     31 O          -1.2667  -19.2641  -46.1895 O.2       8 UNK        -0.5000 
     32 CA         -0.0923  -17.4542  -45.1586 C.3       8 UNK         0.1400 
     33 CB         -0.7319  -16.0857  -45.4420 C.3       8 UNK        -0.1800 
     34 N           0.6121  -17.4526  -43.8722 N.am      8 UNK        -0.5000 
     35 C           1.4255  -18.4405  -43.4621 C.2       7 UNK         0.5000 
     36 O           1.7195  -19.4090  -44.1604 O.2       7 UNK        -0.5000 
     37 CA          1.9489  -18.3858  -42.0151 C.3       7 UNK         0.1400 
     38 CB          3.3432  -17.7502  -41.9359 C.3       7 UNK        -0.1800 
     39 N           1.0297  -17.6854  -41.1209 N.am      7 UNK        -0.5000 
     40 C          -0.1136  -18.2229  -40.6729 C.2       6 UNK         0.5000 
     41 O          -0.4660  -19.3757  -40.9255 O.2       6 UNK        -0.5000 
     42 CA         -1.0418  -17.3048  -39.8548 C.3       6 UNK         0.1400 
     43 CB         -0.6873  -17.3699  -38.3621 C.3       6 UNK        -0.1800 
     44 N          -1.0122  -15.9086  -40.2994 N.am      6 UNK        -0.5000 
     45 C          -1.3777  -15.4891  -41.5185 C.2       5 UNK         0.5000 
     46 O          -1.8015  -16.2495  -42.3887 O.2       5 UNK        -0.5000 
     47 CA         -1.2273  -13.9870  -41.8378 C.3       5 UNK         0.1400 
     48 CB         -1.0973  -13.0950  -40.5836 C.3       5 UNK        -0.1800 
     49 N          -0.1265  -13.7069  -42.7675 N.am      5 UNK        -0.5000 
     50 C           1.1717  -14.0236  -42.6214 C.2       4 UNK         0.5000 
     51 O           1.5967  -14.7250  -41.7025 O.2       4 UNK        -0.5000 
     52 CA          2.1753  -13.4613  -43.6558 C.3       4 UNK         0.1400 
     53 CB          2.8793  -14.5778  -44.4444 C.3       4 UNK        -0.1800 
     54 N           1.5747  -12.5207  -44.6035 N.am      4 UNK        -0.5000 
     55 C           1.2986  -11.2362  -44.3312 C.2       3 UNK         0.5000 
     56 O           1.5712  -10.6973  -43.2579 O.2       3 UNK        -0.5000 
     57 CA          0.5816  -10.4120  -45.4227 C.3       3 UNK         0.1400 
     58 CB          1.5880   -9.5241  -46.1704 C.3       3 UNK        -0.1800 
     59 N          -0.1553  -11.2141  -46.4023 N.am      3 UNK        -0.5000 
     60 C          -1.1710  -12.0438  -46.1275 C.2       2 UNK         0.5000 
     61 O          -1.6319  -12.2088  -44.9971 O.2       2 UNK        -0.5000 
     62 CA         -1.7381  -12.8624  -47.3045 C.3       2 UNK         0.1400 
     63 CB         -2.9195  -12.1092  -47.9362 C.3       2 UNK        -0.1800 
     64 N          -0.7786  -13.2167  -48.3621 N.am      2 UNK        -0.5000 
     65 C           0.4324  -13.7786  -48.2129 C.2       1 UNK         0.5000 
     66 O           0.9617  -13.9577  -47.1167 O.2       1 UNK        -0.5000 
     67 C          -0.1438  -22.3524  -47.7839 C.2       11 UNK         0.5000 
     68 O          -0.0043  -23.2532  -48.6104 O.2       11 UNK        -0.5000 
     69 N          -1.2963  -21.7003  -47.5776 N.am      12 UNK        -0.5000 
     70 CA         -2.5526  -21.9750  -48.2684 C.3       12 UNK         0.1400 
     71 CB         -3.6116  -20.9455  -47.8509 C.3       12 UNK        -0.1800 
     72 C          -3.0660  -23.3998  -48.0217 C.2       12 UNK         0.5000 
     73 O          -3.4600  -24.0664  -48.9765 O.2       12 UNK        -0.5000 
     74 N          -3.0261  -23.8527  -46.7605 N.am      13 UNK        -0.5000 
     75 CA         -3.3958  -25.2075  -46.3488 C.3       13 UNK         0.1400 
     76 CB         -3.3737  -25.3113  -44.8168 C.3       13 UNK        -0.1800 
     77 C          -2.5008  -26.2842  -46.9870 C.2       13 UNK         0.5000 
     78 O          -3.0218  -27.2766  -47.4976 O.2       13 UNK        -0.5000 
     79 N          -1.1815  -26.0419  -47.0062 N.am      14 UNK        -0.5000 
     80 CA         -0.1893  -26.8886  -47.6764 C.3       14 UNK         0.1400 
     81 CB          1.2224  -26.3893  -47.3337 C.3       14 UNK        -0.1800 
     82 C          -0.3889  -26.9611  -49.2045 C.2       14 UNK         0.5000 
     83 O          -0.1333  -28.0052  -49.8046 O.2       14 UNK        -0.5000 
     84 N          -0.8869  -25.8672  -49.7931 N.am      15 UNK        -0.5000 
     85 CA         -1.2614  -25.7391  -51.2010 C.3       15 UNK         0.1400 
     86 CB         -1.0197  -24.2850  -51.6330 C.3       15 UNK        -0.1800 
     87 C          -2.7078  -26.1984  -51.5012 C.2       15 UNK         0.5000 
     88 O          -3.2156  -25.9040  -52.5836 O.2       15 UNK        -0.5000 
     89 N          -3.3404  -26.9192  -50.5620 N.am      16 UNK        -0.5000 
     90 CA         -4.6762  -27.5201  -50.6457 C.3       16 UNK         0.1400 
     91 CB         -4.7498  -28.5685  -51.7768 C.3       16 UNK        -0.1800 
     92 C          -5.8107  -26.4760  -50.6993 C.2       16 UNK         0.5000 
     93 O          -6.7098  -26.5706  -51.5368 O.2       16 UNK        -0.5000 
     94 N          -5.7464  -25.5132  -49.7707 N.am      17 UNK        -0.5000 
     95 CA         -6.6990  -24.4253  -49.5246 C.3       17 UNK         0.1400 
     96 CB         -8.1082  -24.9634  -49.1975 C.3       17 UNK        -0.1800 
     97 C          -6.6934  -23.3453  -50.6247 C.2       17 UNK         0.5000 
     98 O          -7.7255  -22.7264  -50.8919 O.2       17 UNK        -0.5000 
     99 N          -5.5190  -23.1068  -51.2206 N.am      18 UNK        -0.5000 
    100 CA        -5.2680  -22.0180  -52.1619 C.3       18 UNK         0.1400 
    101 CB        -4.1119  -22.4218  -53.0889 C.3       18 UNK        -0.1800 
    102 C         -4.9658  -20.7359  -51.3666 C.2       18 UNK         0.5000 
    103 O         -3.8054  -20.4646  -51.0615 O.2       18 UNK        -0.5000 
    104 N         -6.0291  -20.0259  -50.9672 N.am      19 UNK        -0.5000 
    105 CA        -6.0248  -18.8572  -50.0838 C.3       19 UNK         0.1400 
    106 CB        -7.4782  -18.4050  -49.8632 C.3       19 UNK        -0.1800 
    107 C         -5.1386  -17.6984  -50.5861 C.2       19 UNK         0.5000 
    108 O         -5.5964  -16.8766  -51.3807 O.2       19 UNK        -0.5000 
    109 N         -3.8810  -17.6781  -50.1197 N.am      20 UNK        -0.5000 
    110 CA        -2.8119  -16.6974  -50.3626 C.3       20 UNK         0.1400 
    111 CB        -3.2322  -15.2954  -49.8858 C.3       20 UNK        -0.1800 
    112 C         -2.2520  -16.6477  -51.7996 C.2       20 UNK         0.5000 
    113 O         -1.2127  -16.0186  -52.0070 O.2       20 UNK        -0.5000 
    114 N         -2.9150  -17.3149  -52.7465 N.am      21 UNK        -0.5000 
    115 CA        -2.5798  -17.4268  -54.1591 C.3       21 UNK         0.1400 
    116 CB        -3.0034  -16.1354  -54.8831 C.3       21 UNK        -0.1800 
    117 C         -3.3437  -18.6561  -54.6928 C.2       21 UNK         0.5000 
    118 O         -4.5085  -18.8132  -54.3225 O.2       21 UNK        -0.5000 
    119 N         -2.7755  -19.5446  -55.5209 N.am      22 UNK        -0.5000 
    120 CA        -1.4257  -19.6000  -56.1141 C.3       22 UNK         0.1400 
    121 C         -1.1232  -18.4184  -57.0853 C.2       22 UNK         0.5000 
    122 N          0.1185  -17.9700  -57.2169 N.am      22 UNK        -0.7600 
    123 O         -2.0162  -17.9253  -57.7692 O.2       22 UNK        -0.5000 
    124 C124       -0.2830  -19.9315  -55.1066 C.3       23 UNK        -0.0398 
    125 S125       -0.6454  -21.3351  -53.9940 S.3       23 UNK        -0.2404 
    126 C126       -0.8719  -20.5162  -52.3813 C.3       23 UNK        -0.0205 
    127 H127       -0.6574  -13.6097  -52.9990 H         1 UNK         0.0600 
    128 H128        0.2400  -12.1433  -53.3897 H         1 UNK         0.0600 
    129 H129       -1.2732  -12.0366  -52.4833 H         1 UNK         0.0600 
    130 H130        0.0144  -14.7122  -51.1737 H         1 UNK         0.3000 
    131 H131        2.1067  -13.5933  -49.4703 H         1 UNK         0.0600 
    132 H132        0.8487  -16.3592  -49.7522 H         1 UNK         0.0800 
    133 H133        1.8550  -16.0024  -48.3788 H         1 UNK         0.0800 
    134 H134        3.4138  -16.9492  -52.5214 H         1 UNK         0.0800 
    135 H135        1.8108  -16.2971  -52.2837 H         1 UNK         0.0800 
    136 H136        0.2808  -18.0458  -52.5777 H         1 UNK         0.1150 
    137 H137        0.8738  -21.9130  -50.8429 H         1 UNK         0.1150 
    138 H138        3.8487  -18.8655  -50.3569 H         1 UNK         0.1150 
    139 H139        2.8239  -22.4373  -49.6379 H         1 UNK         0.0800 
    140 H140        4.2596  -21.5466  -50.0795 H         1 UNK         0.0800 
    141 H141        1.1445  -20.1623  -48.2015 H         1 UNK         0.0800 
    142 H142        1.7229  -19.8808  -46.6168 H         1 UNK         0.0800 
    143 H143        1.7642  -22.7646  -46.9430 H         1 UNK         0.0600 
    144 H144        0.7556  -20.9514  -45.0320 H         1 UNK         0.3000 
    145 H145       -0.9689  -23.3476  -42.9838 H         1 UNK         0.0600 
    146 H146        0.5135  -22.2088  -41.3334 H         1 UNK         0.0600 
    147 H147        1.4138  -23.3598  -42.3104 H         1 UNK         0.0600 
    148 H148        1.5517  -21.6390  -42.6386 H         1 UNK         0.0600 
    149 H149       -0.7354  -20.5221  -42.7527 H         1 UNK         0.3000 
    150 H150       -3.6309  -19.6712  -44.7003 H         1 UNK         0.0600 
    151 H151       -4.4580  -20.2061  -42.4198 H         1 UNK         0.0600 
    152 H152       -4.1432  -18.4840  -42.5780 H         1 UNK         0.0600 
    153 H153       -3.0108  -19.5115  -41.7033 H         1 UNK         0.0600 
    154 H154       -1.7978  -18.0020  -43.3464 H         1 UNK         0.3000 
    155 H155        0.6408  -17.6564  -45.9423 H         1 UNK         0.0600 
    156 H156       -1.6605  -15.9325  -44.8933 H         1 UNK         0.0600 
    157 H157       -0.9741  -15.9963  -46.5011 H         1 UNK         0.0600 
    158 H158       -0.0681  -15.2648  -45.1863 H         1 UNK         0.0600 
    159 H159        0.3560  -16.7311  -43.2139 H         1 UNK         0.3000 
    160 H160        2.0461  -19.4177  -41.6714 H         1 UNK         0.0600 
    161 H161        3.3145  -16.6827  -42.1401 H         1 UNK         0.0600 
    162 H162        4.0267  -18.2080  -42.6523 H         1 UNK         0.0600 
    163 H163        3.7753  -17.8834  -40.9441 H         1 UNK         0.0600 
    164 H164        1.2322  -16.7111  -40.9257 H         1 UNK         0.3000 
    165 H165       -2.0621  -17.6733  -39.9807 H         1 UNK         0.0600 
    166 H166       -1.3907  -16.7905  -37.7637 H         1 UNK         0.0600 
    167 H167       -0.7214  -18.3974  -37.9974 H         1 UNK         0.0600 
    168 H168        0.3152  -16.9857  -38.1691 H         1 UNK         0.0600 
    169 H169       -0.6489  -15.2301  -39.6460 H         1 UNK         0.3000 
    170 H170       -2.1436  -13.6961  -42.3536 H         1 UNK         0.0600 
    171 H171       -1.9268  -13.2591  -39.8944 H         1 UNK         0.0600 
    172 H172       -0.1690  -13.2753  -40.0403 H         1 UNK         0.0600 
    173 H173       -1.1144  -12.0400  -40.8579 H         1 UNK         0.0600 
    174 H174       -0.3908  -13.1599  -43.5794 H         1 UNK         0.3000 
    175 H175        2.9437  -12.9304  -43.0900 H         1 UNK         0.0600 
    176 H176        2.1758  -15.2330  -44.9549 H         1 UNK         0.0600 
    177 H177        3.5489  -14.1634  -45.1982 H         1 UNK         0.0600 
    178 H178        3.4889  -15.1956  -43.7880 H         1 UNK         0.0600 
    179 H179        1.3203  -12.8999  -45.5120 H         1 UNK         0.3000 
    180 H180       -0.1387   -9.7651  -44.9180 H         1 UNK         0.0600 
    181 H181        2.3180  -10.1204  -46.7195 H         1 UNK         0.0600 
    182 H182        2.1388   -8.8865  -45.4775 H         1 UNK         0.0600 
    183 H183        1.0849   -8.8689  -46.8819 H         1 UNK         0.0600 
    184 H184        0.1672  -11.1656  -47.3578 H         1 UNK         0.3000 
    185 H185       -2.1155  -13.7982  -46.8893 H         1 UNK         0.0600 
    186 H186       -3.6625  -11.8434  -47.1829 H         1 UNK         0.0600 
    187 H187       -2.5944  -11.1851  -48.4159 H         1 UNK         0.0600 
    188 H188       -3.4282  -12.7134  -48.6860 H         1 UNK         0.0600 
    189 H189       -1.0935  -13.0677  -49.3088 H         1 UNK         0.3000 
    190 H190       -1.3075  -20.9288  -46.9132 H         1 UNK         0.3000 
    191 H191       -2.3691  -21.8694  -49.3389 H         1 UNK         0.0600 
    192 H192       -3.7928  -20.9624  -46.7771 H         1 UNK         0.0600 
    193 H193       -4.5627  -21.1485  -48.3433 H         1 UNK         0.0600 
    194 H194       -3.3052  -19.9360  -48.1224 H         1 UNK         0.0600 
    195 H195       -2.7376  -23.2176  -46.0209 H         1 UNK         0.3000 
    196 H196       -4.4193  -25.3867  -46.6842 H         1 UNK         0.0600 
    197 H197       -3.6563  -26.3122  -44.4883 H         1 UNK         0.0600 
    198 H198       -4.0762  -24.6105  -44.3655 H         1 UNK         0.0600 
    199 H199       -2.3843  -25.0987  -44.4116 H         1 UNK         0.0600 
    200 H200       -0.8290  -25.2121  -46.5378 H         1 UNK         0.3000 
    201 H201       -0.2970  -27.9011  -47.2823 H         1 UNK         0.0600 
    202 H202        1.3940  -26.4013  -46.2572 H         1 UNK         0.0600 
    203 H203        1.3867  -25.3708  -47.6859 H         1 UNK         0.0600 
    204 H204        1.9830  -27.0223  -47.7922 H         1 UNK         0.0600 
    205 H205       -1.0197  -25.0385  -49.2241 H         1 UNK         0.3000 
    206 H206       -0.6048  -26.3729  -51.8001 H         1 UNK         0.0600 
    207 H207        0.0252  -24.0078  -51.4977 H         1 UNK         0.0600 
    208 H208       -1.2559  -24.1363  -52.6870 H         1 UNK         0.0600 
    209 H209       -1.6267  -23.5915  -51.0516 H         1 UNK         0.0600 
    210 H210       -2.8603  -27.0670  -49.6827 H         1 UNK         0.3000 
    211 H211       -4.8151  -28.0577  -49.7065 H         1 UNK         0.0600 
    212 H212       -4.6777  -28.1115  -52.7640 H         1 UNK         0.0600 
    213 H213       -5.6937  -29.1134  -51.7401 H         1 UNK         0.0600 
    214 H214       -3.9489  -29.3024  -51.6867 H         1 UNK         0.0600 
    215 H215       -4.8914  -25.4499  -49.2281 H         1 UNK         0.3000 
    216 H216       -6.3372  -23.9225  -48.6266 H         1 UNK         0.0600 
    217 H217       -8.7585  -24.1623  -48.8444 H         1 UNK         0.0600 
    218 H218       -8.0703  -25.7181  -48.4121 H         1 UNK         0.0600 
    219 H219       -8.5875  -25.4081  -50.0698 H         1 UNK         0.0600 
    220 H220       -4.7112  -23.6273  -50.9031 H         1 UNK         0.3000 
    221 H221       -6.1501  -21.8471  -52.7828 H         1 UNK         0.0600 
    222 H222       -3.2009  -22.6270  -52.5300 H         1 UNK         0.0600 
    223 H223       -4.3580  -23.3163  -53.6613 H         1 UNK         0.0600 
    224 H224       -3.8878  -21.6281  -53.8008 H         1 UNK         0.0600 
    225 H225       -6.9419  -20.3607  -51.2431 H         1 UNK         0.3000 
    226 H226       -5.6385  -19.1759  -49.1149 H         1 UNK         0.0600 
    227 H227       -8.0689  -19.1912  -49.3923 H         1 UNK         0.0600 
    228 H228       -7.5215  -17.5321  -49.2104 H         1 UNK         0.0600 
    229 H229       -7.9648  -18.1375  -50.8022 H         1 UNK         0.0600 
    230 H230       -3.5931  -18.4767  -49.5713 H         1 UNK         0.3000 
    231 H231       -1.9759  -17.0157  -49.7378 H         1 UNK         0.0600 
    232 H232       -2.4288  -14.5771  -50.0408 H         1 UNK         0.0600 
    233 H233       -3.4718  -15.2964  -48.8225 H         1 UNK         0.0600 
    234 H234       -4.1001  -14.9198  -50.4279 H         1 UNK         0.0600 
    235 H235       -3.7706  -17.7936  -52.4898 H         1 UNK         0.3000 
    236 H236       -1.5057  -17.5541  -54.2580 H         1 UNK         0.0600 
    237 H237       -2.7962  -16.1894  -55.9507 H         1 UNK         0.0600 
    238 H238       -4.0711  -15.9448  -54.7671 H         1 UNK         0.0600 
    239 H239       -2.4664  -15.2696  -54.4953 H         1 UNK         0.0600 
    240 H240       -3.3682  -20.2988  -55.8318 H         1 UNK         0.3000 
    241 H241       -1.4801  -20.4598  -56.7827 H         1 UNK         0.0600 
    242 H242        0.2935  -17.2196  -57.8676 H         1 UNK         0.3800 
    243 H243        0.8928  -18.3648  -56.7076 H         1 UNK         0.3800 
    244 H244        0.6142  -20.2133  -55.6595 H         1 UNK         0.0800 
    245 H245        0.0052  -19.0588  -54.5307 H         1 UNK         0.0800 
    246 H246       -1.3353  -21.2240  -51.6938 H         1 UNK         0.0800 
    247 H247       -1.5752  -19.6915  -52.4775 H         1 UNK         0.0800 
@<TRIPOS>BOND
     1    1    2 1    
     2    1  127 1    
     3    1  128 1    
     4    1  129 1    
     5    2    3 2    
     6    2    4 am   BACKBONE|DICT|INTERRES
     7    4    5 1    
     8    4  130 1    
     9    5    6 1    
    10    5   65 1    
    11    5  131 1    
    12    6    7 1    
    13    6  132 1    
    14    6  133 1    
    15    7    8 1    
    16    8    9 1    
    17    8  134 1    
    18    8  135 1    
    19    9   10 ar   
    20    9   14 ar   
    21   10   11 ar   
    22   10  136 1    
    23   11   12 ar   
    24   11  126 1    
    25   12   13 ar   
    26   12  137 1    
    27   13   14 ar   
    28   13   15 1    
    29   14  138 1    
    30   15   16 1    
    31   15  139 1    
    32   15  140 1    
    33   16   17 1    
    34   17   18 1    
    35   17  141 1    
    36   17  142 1    
    37   18   19 1    
    38   18   67 1    
    39   18  143 1    
    40   19   20 am   BACKBONE|DICT|INTERRES
    41   19  144 1    
    42   20   21 2    
    43   20   22 1    
    44   22   23 1    
    45   22   24 1    
    46   22  145 1    
    47   23  146 1    
    48   23  147 1    
    49   23  148 1    
    50   24   25 am   BACKBONE|DICT|INTERRES
    51   24  149 1    
    52   25   26 2    
    53   25   27 1    
    54   27   28 1    
    55   27   29 1    
    56   27  150 1    
    57   28  151 1    
    58   28  152 1    
    59   28  153 1    
    60   29   30 am   BACKBONE|DICT|INTERRES
    61   29  154 1    
    62   30   31 2    
    63   30   32 1    
    64   32   33 1    
    65   32   34 1    
    66   32  155 1    
    67   33  156 1    
    68   33  157 1    
    69   33  158 1    
    70   34   35 am   BACKBONE|DICT|INTERRES
    71   34  159 1    
    72   35   36 2    
    73   35   37 1    
    74   37   38 1    
    75   37   39 1    
    76   37  160 1    
    77   38  161 1    
    78   38  162 1    
    79   38  163 1    
    80   39   40 am   BACKBONE|DICT|INTERRES
    81   39  164 1    
    82   40   41 2    
    83   40   42 1    
    84   42   43 1    
    85   42   44 1    
    86   42  165 1    
    87   43  166 1    
    88   43  167 1    
    89   43  168 1    
    90   44   45 am   BACKBONE|DICT|INTERRES
    91   44  169 1    
    92   45   46 2    
    93   45   47 1    
    94   47   48 1    
    95   47   49 1    
    96   47  170 1    
    97   48  171 1    
    98   48  172 1    
    99   48  173 1    
   100   49   50 am   BACKBONE|DICT|INTERRES
   101   49  174 1    
   102   50   51 2    
   103   50   52 1    
   104   52   53 1    
   105   52   54 1    
   106   52  175 1    
   107   53  176 1    
   108   53  177 1    
   109   53  178 1    
   110   54   55 am   BACKBONE|DICT|INTERRES
   111   54  179 1    
   112   55   56 2    
   113   55   57 1    
   114   57   58 1    
   115   57   59 1    
   116   57  180 1    
   117   58  181 1    
   118   58  182 1    
   119   58  183 1    
   120   59   60 am   BACKBONE|DICT|INTERRES
   121   59  184 1    
   122   60   61 2    
   123   60   62 1    
   124   62   63 1    
   125   62   64 1    
   126   62  185 1    
   127   63  186 1    
   128   63  187 1    
   129   63  188 1    
   130   64   65 am   BACKBONE|DICT|INTERRES
   131   64  189 1    
   132   65   66 2    
   133   67   68 2    
   134   67   69 am   BACKBONE|DICT|INTERRES
   135   69   70 1    
   136   69  190 1    
   137   70   71 1    
   138   70   72 1    
   139   70  191 1    
   140   71  192 1    
   141   71  193 1    
   142   71  194 1    
   143   72   73 2    
   144   72   74 am   BACKBONE|DICT|INTERRES
   145   74   75 1    
   146   74  195 1    
   147   75   76 1    
   148   75   77 1    
   149   75  196 1    
   150   76  197 1    
   151   76  198 1    
   152   76  199 1    
   153   77   78 2    
   154   77   79 am   BACKBONE|DICT|INTERRES
   155   79   80 1    
   156   79  200 1    
   157   80   81 1    
   158   80   82 1    
   159   80  201 1    
   160   81  202 1    
   161   81  203 1    
   162   81  204 1    
   163   82   83 2    
   164   82   84 am   BACKBONE|DICT|INTERRES
   165   84   85 1    
   166   84  205 1    
   167   85   86 1    
   168   85   87 1    
   169   85  206 1    
   170   86  207 1    
   171   86  208 1    
   172   86  209 1    
   173   87   88 2    
   174   87   89 am   BACKBONE|DICT|INTERRES
   175   89   90 1    
   176   89  210 1    
   177   90   91 1    
   178   90   92 1    
   179   90  211 1    
   180   91  212 1    
   181   91  213 1    
   182   91  214 1    
   183   92   93 2    
   184   92   94 am   BACKBONE|DICT|INTERRES
   185   94   95 1    
   186   94  215 1    
   187   95   96 1    
   188   95   97 1    
   189   95  216 1    
   190   96  217 1    
   191   96  218 1    
   192   96  219 1    
   193   97   98 2    
   194   97   99 am   BACKBONE|DICT|INTERRES
   195   99  100 1    
   196   99  220 1    
   197  100  101 1    
   198  100  102 1    
   199  100  221 1    
   200  101  222 1    
   201  101  223 1    
   202  101  224 1    
   203  102  103 2    
   204  102  104 am   BACKBONE|DICT|INTERRES
   205  104  105 1    
   206  104  225 1    
   207  105  106 1    
   208  105  107 1    
   209  105  226 1    
   210  106  227 1    
   211  106  228 1    
   212  106  229 1    
   213  107  108 2    
   214  107  109 am   BACKBONE|DICT|INTERRES
   215  109  110 1    
   216  109  230 1    
   217  110  111 1    
   218  110  112 1    
   219  110  231 1    
   220  111  232 1    
   221  111  233 1    
   222  111  234 1    
   223  112  113 2    
   224  112  114 am   BACKBONE|DICT|INTERRES
   225  114  115 1    
   226  114  235 1    
   227  115  116 1    
   228  115  117 1    
   229  115  236 1    
   230  116  237 1    
   231  116  238 1    
   232  116  239 1    
   233  117  118 2    
   234  117  119 am   BACKBONE|DICT|INTERRES
   235  119  120 1    
   236  119  240 1    
   237  120  121 1    
   238  120  124 1    
   239  120  241 1    
   240  121  122 am   BACKBONE|DICT|INTERRES
   241  121  123 2    
   242  122  242 1    
   243  122  243 1    
   244  124  125 1    
   245  124  244 1    
   246  124  245 1    
   247  125  126 1    
   248  126  246 1    
   249  126  247 1    
@<TRIPOS>SUBSTRUCTURE
     1 UNK         1 GROUP             0       ****    0 ROOT    
