@<TRIPOS>MOLECULE
3R540
247   249    1
SMALL
USER_CHARGES


@<TRIPOS>ATOM
      1 CA         -1.5502  -11.7924  -51.1940 C.3       0 UNK        -0.1800 
      2 C          -0.7616  -12.6181  -50.1877 C.2       0 UNK         0.5000 
      3 O          -1.0324  -13.8083  -50.0411 O.2       0 UNK        -0.5000 
      4 N           0.1843  -11.9736  -49.4880 N.am      1 UNK        -0.5000 
      5 CA          1.1612  -12.4644  -48.4953 C.3       1 UNK         0.1400 
      6 C6          2.4242  -13.1457  -49.0963 C.3       23 UNK        -0.0398 
      7 S7          2.1710  -14.5789  -50.1978 S.3       23 UNK        -0.2404 
      8 C8          1.7822  -15.9171  -49.0223 C.3       23 UNK        -0.0205 
      9 C9          1.8700  -17.2847  -49.6804 C.ar      23 UNK        -0.0193 
     10 C10         1.0870  -17.5785  -50.7990 C.ar      23 UNK        -0.1150 
     11 C11         1.1890  -18.8159  -51.4400 C.ar      23 UNK        -0.0193 
     12 C12         2.0759  -19.7758  -50.9363 C.ar      23 UNK        -0.1150 
     13 C13         2.8622  -19.4961  -49.8113 C.ar      23 UNK        -0.0193 
     14 C14         2.7480  -18.2513  -49.1856 C.ar      23 UNK        -0.1150 
     15 C15         3.8970  -20.4973  -49.3111 C.3       23 UNK        -0.0205 
     16 S16         3.1757  -21.9896  -48.5593 S.3       23 UNK        -0.2404 
     17 C17         2.2953  -21.3315  -47.0982 C.3       23 UNK        -0.0398 
     18 CA          0.9486  -22.0592  -46.8761 C.3       11 UNK         0.1400 
     19 N           0.3776  -21.8309  -45.5485 N.am      11 UNK        -0.5000 
     20 C          -0.6948  -22.4871  -45.0782 C.2       10 UNK         0.5000 
     21 O          -1.2682  -23.3890  -45.6913 O.2       10 UNK        -0.5000 
     22 CA         -1.2481  -22.0402  -43.7165 C.3       10 UNK         0.1400 
     23 CB         -0.4680  -22.7069  -42.5743 C.3       10 UNK        -0.1800 
     24 N          -1.2323  -20.5874  -43.5476 N.am      10 UNK        -0.5000 
     25 C          -1.9388  -19.7244  -44.2925 C.2       9 UNK         0.5000 
     26 O          -2.6972  -20.0622  -45.1992 O.2       9 UNK        -0.5000 
     27 CA         -1.7238  -18.2281  -44.0122 C.3       9 UNK         0.1400 
     28 CB         -2.4089  -17.8150  -42.7008 C.3       9 UNK        -0.1800 
     29 N          -0.3065  -17.8728  -43.9713 N.am      9 UNK        -0.5000 
     30 C           0.5440  -18.0201  -44.9982 C.2       8 UNK         0.5000 
     31 O           0.2218  -18.4365  -46.1113 O.2       8 UNK        -0.5000 
     32 CA          2.0157  -17.6842  -44.7187 C.3       8 UNK         0.1400 
     33 CB          2.2568  -16.1761  -44.8450 C.3       8 UNK        -0.1800 
     34 N           2.4389  -18.1480  -43.3976 N.am      8 UNK        -0.5000 
     35 C           2.5819  -19.4414  -43.0740 C.2       7 UNK         0.5000 
     36 O           2.3928  -20.3681  -43.8628 O.2       7 UNK        -0.5000 
     37 CA          2.9556  -19.7519  -41.6136 C.3       7 UNK         0.1400 
     38 CB          4.4472  -19.4846  -41.3617 C.3       7 UNK        -0.1800 
     39 N           2.1555  -18.9923  -40.6525 N.am      7 UNK        -0.5000 
     40 C           0.8281  -19.1096  -40.5081 C.2       6 UNK         0.5000 
     41 O           0.1375  -19.8912  -41.1586 O.2       6 UNK        -0.5000 
     42 CA          0.1454  -18.1836  -39.4860 C.3       6 UNK         0.1400 
     43 CB          0.0320  -18.8832  -38.1235 C.3       6 UNK        -0.1800 
     44 N           0.8087  -16.8904  -39.3087 N.am      6 UNK        -0.5000 
     45 C           0.9987  -15.9752  -40.2689 C.2       5 UNK         0.5000 
     46 O           0.6747  -16.1490  -41.4474 O.2       5 UNK        -0.5000 
     47 CA          1.6355  -14.6511  -39.7965 C.3       5 UNK         0.1400 
     48 CB          2.9769  -14.8769  -39.0640 C.3       5 UNK        -0.1800 
     49 N           1.7809  -13.6563  -40.8620 N.am      5 UNK        -0.5000 
     50 C           2.5923  -13.6876  -41.9264 C.2       4 UNK         0.5000 
     51 O           3.3976  -14.5927  -42.1543 O.2       4 UNK        -0.5000 
     52 CA          2.4776  -12.4823  -42.8860 C.3       4 UNK         0.1400 
     53 CB          3.5251  -12.5194  -44.0134 C.3       4 UNK        -0.1800 
     54 N           1.1401  -12.3553  -43.4752 N.am      4 UNK        -0.5000 
     55 C           0.0541  -11.8748  -42.8482 C.2       3 UNK         0.5000 
     56 O           0.0697  -11.4982  -41.6748 O.2       3 UNK        -0.5000 
     57 CA         -1.2688  -11.7787  -43.6393 C.3       3 UNK         0.1400 
     58 CB         -1.5608  -10.3181  -44.0167 C.3       3 UNK        -0.1800 
     59 N          -1.2895  -12.5871  -44.8569 N.am      3 UNK        -0.5000 
     60 C          -1.3782  -13.9226  -44.8934 C.2       2 UNK         0.5000 
     61 O          -1.5599  -14.6157  -43.8949 O.2       2 UNK        -0.5000 
     62 CA         -1.2192  -14.6030  -46.2700 C.3       2 UNK         0.1400 
     63 CB         -2.5749  -15.1043  -46.7900 C.3       2 UNK        -0.1800 
     64 N          -0.5952  -13.7739  -47.3086 N.am      2 UNK        -0.5000 
     65 C           0.6257  -13.2282  -47.2616 C.2       1 UNK         0.5000 
     66 O           1.3361  -13.2845  -46.2596 O.2       1 UNK        -0.5000 
     67 C          -0.0733  -21.7494  -47.9863 C.2       11 UNK         0.5000 
     68 O          -0.3290  -22.6143  -48.8226 O.2       11 UNK        -0.5000 
     69 N          -0.6811  -20.5573  -47.9358 N.am      12 UNK        -0.5000 
     70 CA         -1.7013  -20.1325  -48.8889 C.3       12 UNK         0.1400 
     71 CB         -2.0508  -18.6561  -48.6437 C.3       12 UNK        -0.1800 
     72 C          -2.9615  -21.0172  -48.8533 C.2       12 UNK         0.5000 
     73 O          -3.4339  -21.4414  -49.9060 O.2       12 UNK        -0.5000 
     74 N          -3.4819  -21.2807  -47.6478 N.am      13 UNK        -0.5000 
     75 CA         -4.7310  -22.0075  -47.4407 C.3       13 UNK         0.1400 
     76 CB         -5.2309  -21.7797  -46.0061 C.3       13 UNK        -0.1800 
     77 C          -4.6435  -23.5125  -47.7419 C.2       13 UNK         0.5000 
     78 O          -5.5621  -24.0389  -48.3695 O.2       13 UNK        -0.5000 
     79 N          -3.5891  -24.1839  -47.2577 N.am      14 UNK        -0.5000 
     80 CA         -3.4865  -25.6432  -47.2819 C.3       14 UNK         0.1400 
     81 CB         -3.1634  -26.1659  -45.8714 C.3       14 UNK        -0.1800 
     82 C          -2.4525  -26.1326  -48.3025 C.2       14 UNK         0.5000 
     83 O          -2.8076  -26.9144  -49.1860 O.2       14 UNK        -0.5000 
     84 N          -1.1920  -25.6943  -48.1637 N.am      15 UNK        -0.5000 
     85 CA         -0.0655  -26.2022  -48.9597 C.3       15 UNK         0.1400 
     86 CB          1.2644  -25.6975  -48.3807 C.3       15 UNK        -0.1800 
     87 C          -0.1764  -25.8567  -50.4559 C.2       15 UNK         0.5000 
     88 O           0.1472  -26.6890  -51.3033 O.2       15 UNK        -0.5000 
     89 N          -0.6817  -24.6536  -50.7454 N.am      16 UNK        -0.5000 
     90 CA         -0.9505  -24.1320  -52.0832 C.3       16 UNK         0.1400 
     91 CB         -0.6719  -22.6223  -52.0686 C.3       16 UNK        -0.1800 
     92 C          -2.3763  -24.4694  -52.5802 C.2       16 UNK         0.5000 
     93 O          -2.8834  -23.7974  -53.4813 O.2       16 UNK        -0.5000 
     94 N          -2.9904  -25.5092  -51.9955 N.am      17 UNK        -0.5000 
     95 CA         -4.2930  -26.1201  -52.2850 C.3       17 UNK         0.1400 
     96 CB         -4.4217  -26.5365  -53.7634 C.3       17 UNK        -0.1800 
     97 C          -5.5024  -25.2889  -51.8240 C.2       17 UNK         0.5000 
     98 O          -6.3906  -25.8376  -51.1705 O.2       17 UNK        -0.5000 
     99 N          -5.5199  -23.9981  -52.1624 N.am      18 UNK        -0.5000 
    100 CA        -6.5308  -23.0214  -51.7746 C.3       18 UNK         0.1400 
    101 CB        -7.8524  -23.2651  -52.5284 C.3       18 UNK        -0.1800 
    102 C         -5.9798  -21.6356  -52.1100 C.2       18 UNK         0.5000 
    103 O         -5.4186  -21.4663  -53.1934 O.2       18 UNK        -0.5000 
    104 N         -6.1793  -20.6612  -51.2139 N.am      19 UNK        -0.5000 
    105 CA        -5.6045  -19.3133  -51.3120 C.3       19 UNK         0.1400 
    106 CB        -5.8499  -18.5676  -49.9909 C.3       19 UNK        -0.1800 
    107 C         -6.1193  -18.4874  -52.5075 C.2       19 UNK         0.5000 
    108 O         -5.4324  -17.5662  -52.9486 O.2       19 UNK        -0.5000 
    109 N         -7.3065  -18.8400  -53.0201 N.am      20 UNK        -0.5000 
    110 CA        -7.9053  -18.2546  -54.2202 C.3       20 UNK         0.1400 
    111 CB        -9.3802  -18.6779  -54.2977 C.3       20 UNK        -0.1800 
    112 C         -7.1653  -18.6412  -55.5170 C.2       20 UNK         0.5000 
    113 O         -7.1947  -17.8705  -56.4774 O.2       20 UNK        -0.5000 
    114 N         -6.5222  -19.8164  -55.5225 N.am      21 UNK        -0.5000 
    115 CA        -5.7027  -20.3130  -56.6264 C.3       21 UNK         0.1400 
    116 CB        -5.9709  -21.8154  -56.8191 C.3       21 UNK        -0.1800 
    117 C         -4.2155  -20.0544  -56.3405 C.2       21 UNK         0.5000 
    118 O         -3.5189  -19.4888  -57.1836 O.2       21 UNK        -0.5000 
    119 N         -3.7792  -20.4579  -55.1418 N.am      22 UNK        -0.5000 
    120 CA        -2.4183  -20.3813  -54.6056 C.3       22 UNK         0.1400 
    121 C         -1.3714  -21.1081  -55.5004 C.2       22 UNK         0.5000 
    122 N         -1.5181  -22.4142  -55.6822 N.am      22 UNK        -0.7600 
    123 O         -0.4381  -20.5117  -56.0312 O.2       22 UNK        -0.5000 
    124 C124       -2.0256  -18.9399  -54.1694 C.3       23 UNK        -0.0398 
    125 S125       -1.4009  -18.8913  -52.4563 S.3       23 UNK        -0.2404 
    126 C126        0.3929  -19.0713  -52.7145 C.3       23 UNK        -0.0205 
    127 H127       -1.2195  -10.7537  -51.2176 H         1 UNK         0.0600 
    128 H128       -2.6105  -11.8065  -50.9418 H         1 UNK         0.0600 
    129 H129       -1.4313  -12.2095  -52.1940 H         1 UNK         0.0600 
    130 H130        0.2814  -10.9855  -49.6763 H         1 UNK         0.3000 
    131 H131        1.5287  -11.5361  -48.0544 H         1 UNK         0.0600 
    132 H132        3.1256  -13.4300  -48.3093 H         1 UNK         0.0800 
    133 H133        2.9607  -12.4024  -49.6871 H         1 UNK         0.0800 
    134 H134        0.7709  -15.7879  -48.6375 H         1 UNK         0.0800 
    135 H135        2.4610  -15.8561  -48.1711 H         1 UNK         0.0800 
    136 H136        0.4133  -16.8278  -51.1887 H         1 UNK         0.1150 
    137 H137        2.1787  -20.7301  -51.4333 H         1 UNK         0.1150 
    138 H138        3.3633  -18.0246  -48.3263 H         1 UNK         0.1150 
    139 H139        4.5228  -20.8016  -50.1511 H         1 UNK         0.0800 
    140 H140        4.5701  -20.0320  -48.5892 H         1 UNK         0.0800 
    141 H141        2.1473  -20.2544  -47.1834 H         1 UNK         0.0800 
    142 H142        2.9456  -21.4812  -46.2360 H         1 UNK         0.0800 
    143 H143        1.1541  -23.1296  -46.9160 H         1 UNK         0.0600 
    144 H144        0.8241  -21.1279  -44.9697 H         1 UNK         0.3000 
    145 H145       -2.2872  -22.3707  -43.6578 H         1 UNK         0.0600 
    146 H146       -0.9112  -22.4726  -41.6063 H         1 UNK         0.0600 
    147 H147        0.5724  -22.3795  -42.5539 H         1 UNK         0.0600 
    148 H148       -0.4710  -23.7926  -42.6791 H         1 UNK         0.0600 
    149 H149       -0.6485  -20.2299  -42.7944 H         1 UNK         0.3000 
    150 H150       -2.1791  -17.6636  -44.8278 H         1 UNK         0.0600 
    151 H151       -3.4868  -17.9678  -42.7635 H         1 UNK         0.0600 
    152 H152       -2.2415  -16.7619  -42.4766 H         1 UNK         0.0600 
    153 H153       -2.0470  -18.3967  -41.8541 H         1 UNK         0.0600 
    154 H154        0.0436  -17.4859  -43.1024 H         1 UNK         0.3000 
    155 H155        2.6253  -18.1893  -45.4711 H         1 UNK         0.0600 
    156 H156        2.0025  -15.8284  -45.8451 H         1 UNK         0.0600 
    157 H157        3.3029  -15.9259  -44.6697 H         1 UNK         0.0600 
    158 H158        1.6498  -15.6083  -44.1386 H         1 UNK         0.0600 
    159 H159        2.5597  -17.4417  -42.6842 H         1 UNK         0.3000 
    160 H160        2.7660  -20.8137  -41.4423 H         1 UNK         0.0600 
    161 H161        4.6945  -18.4286  -41.4783 H         1 UNK         0.0600 
    162 H162        5.0675  -20.0467  -42.0611 H         1 UNK         0.0600 
    163 H163        4.7374  -19.7881  -40.3557 H         1 UNK         0.0600 
    164 H164        2.6422  -18.3180  -40.0810 H         1 UNK         0.3000 
    165 H165       -0.8643  -17.9841  -39.8485 H         1 UNK         0.0600 
    166 H166       -0.5372  -18.2805  -37.4156 H         1 UNK         0.0600 
    167 H167       -0.4815  -19.8412  -38.2178 H         1 UNK         0.0600 
    168 H168        1.0129  -19.0781  -37.6880 H         1 UNK         0.0600 
    169 H169        1.0987  -16.6691  -38.3672 H         1 UNK         0.3000 
    170 H170        0.9366  -14.2115  -39.0835 H         1 UNK         0.0600 
    171 H171        3.6846  -15.4407  -39.6725 H         1 UNK         0.0600 
    172 H172        3.4455  -13.9288  -38.7996 H         1 UNK         0.0600 
    173 H173        2.8358  -15.4302  -38.1353 H         1 UNK         0.0600 
    174 H174        1.1220  -12.8836  -40.8287 H         1 UNK         0.3000 
    175 H175        2.6764  -11.5863  -42.2944 H         1 UNK         0.0600 
    176 H176        3.4201  -13.4094  -44.6337 H         1 UNK         0.0600 
    177 H177        3.4392  -11.6477  -44.6623 H         1 UNK         0.0600 
    178 H178        4.5366  -12.5233  -43.6058 H         1 UNK         0.0600 
    179 H179        1.0518  -12.6787  -44.4344 H         1 UNK         0.3000 
    180 H180       -2.0675  -12.1276  -42.9814 H         1 UNK         0.0600 
    181 H181       -2.5266  -10.2241  -44.5136 H         1 UNK         0.0600 
    182 H182       -0.7979   -9.9149  -44.6838 H         1 UNK         0.0600 
    183 H183       -1.5906   -9.6829  -43.1303 H         1 UNK         0.0600 
    184 H184       -1.1408  -12.1005  -45.7283 H         1 UNK         0.3000 
    185 H185       -0.5742  -15.4701  -46.1202 H         1 UNK         0.0600 
    186 H186       -3.2487  -14.2761  -47.0123 H         1 UNK         0.0600 
    187 H187       -2.4536  -15.6922  -47.7003 H         1 UNK         0.0600 
    188 H188       -3.0688  -15.7421  -46.0562 H         1 UNK         0.0600 
    189 H189       -1.0668  -13.7418  -48.2091 H         1 UNK         0.3000 
    190 H190       -0.4239  -19.8907  -47.2127 H         1 UNK         0.3000 
    191 H191       -1.2650  -20.2177  -49.8848 H         1 UNK         0.0600 
    192 H192       -2.4596  -18.4979  -47.6449 H         1 UNK         0.0600 
    193 H193       -2.7890  -18.3052  -49.3655 H         1 UNK         0.0600 
    194 H194       -1.1697  -18.0223  -48.7473 H         1 UNK         0.0600 
    195 H195       -3.0452  -20.8827  -46.8186 H         1 UNK         0.3000 
    196 H196       -5.4751  -21.5828  -48.1179 H         1 UNK         0.0600 
    197 H197       -5.3900  -20.7196  -45.8079 H         1 UNK         0.0600 
    198 H198       -4.5205  -22.1556  -45.2686 H         1 UNK         0.0600 
    199 H199       -6.1808  -22.2882  -45.8365 H         1 UNK         0.0600 
    200 H200       -2.8489  -23.6851  -46.7719 H         1 UNK         0.3000 
    201 H201       -4.4441  -26.0862  -47.5639 H         1 UNK         0.0600 
    202 H202       -3.9236  -25.8553  -45.1547 H         1 UNK         0.0600 
    203 H203       -2.1992  -25.8115  -45.5080 H         1 UNK         0.0600 
    204 H204       -3.1332  -27.2561  -45.8600 H         1 UNK         0.0600 
    205 H205       -0.9840  -25.0156  -47.4429 H         1 UNK         0.3000 
    206 H206       -0.0731  -27.2907  -48.8712 H         1 UNK         0.0600 
    207 H207        2.1036  -26.2326  -48.8264 H         1 UNK         0.0600 
    208 H208        1.4173  -24.6395  -48.5880 H         1 UNK         0.0600 
    209 H209        1.3177  -25.8475  -47.3024 H         1 UNK         0.0600 
    210 H210       -0.8454  -24.0071  -49.9759 H         1 UNK         0.3000 
    211 H211       -0.2514  -24.5883  -52.7866 H         1 UNK         0.0600 
    212 H212       -1.4715  -22.0670  -51.5794 H         1 UNK         0.0600 
    213 H213       -0.5679  -22.2422  -53.0801 H         1 UNK         0.0600 
    214 H214        0.2592  -22.3913  -51.5510 H         1 UNK         0.0600 
    215 H215       -2.5002  -25.9452  -51.2245 H         1 UNK         0.3000 
    216 H216       -4.3085  -27.0375  -51.6942 H         1 UNK         0.0600 
    217 H217       -5.3374  -27.1063  -53.9250 H         1 UNK         0.0600 
    218 H218       -3.5875  -27.1674  -54.0700 H         1 UNK         0.0600 
    219 H219       -4.4564  -25.6757  -54.4316 H         1 UNK         0.0600 
    220 H220       -4.7420  -23.6243  -52.7007 H         1 UNK         0.3000 
    221 H221       -6.6992  -23.0929  -50.6985 H         1 UNK         0.0600 
    222 H222       -7.7067  -23.2428  -53.6093 H         1 UNK         0.0600 
    223 H223       -8.2900  -24.2291  -52.2705 H         1 UNK         0.0600 
    224 H224       -8.5903  -22.5014  -52.2801 H         1 UNK         0.0600 
    225 H225       -6.6725  -20.8753  -50.3602 H         1 UNK         0.3000 
    226 H226       -4.5258  -19.4234  -51.4445 H         1 UNK         0.0600 
    227 H227       -5.4096  -19.0999  -49.1478 H         1 UNK         0.0600 
    228 H228       -5.4005  -17.5739  -50.0143 H         1 UNK         0.0600 
    229 H229       -6.9148  -18.4426  -49.7917 H         1 UNK         0.0600 
    230 H230       -7.8069  -19.6000  -52.5840 H         1 UNK         0.3000 
    231 H231       -7.8653  -17.1672  -54.1273 H         1 UNK         0.0600 
    232 H232       -9.8673  -18.2383  -55.1691 H         1 UNK         0.0600 
    233 H233       -9.9325  -18.3480  -53.4176 H         1 UNK         0.0600 
    234 H234       -9.4849  -19.7610  -54.3748 H         1 UNK         0.0600 
    235 H235       -6.4969  -20.3580  -54.6677 H         1 UNK         0.3000 
    236 H236       -5.9636  -19.8036  -57.5565 H         1 UNK         0.0600 
    237 H237       -5.7510  -22.3889  -55.9175 H         1 UNK         0.0600 
    238 H238       -7.0132  -21.9963  -57.0820 H         1 UNK         0.0600 
    239 H239       -5.3568  -22.2208  -57.6242 H         1 UNK         0.0600 
    240 H240       -4.4419  -20.9099  -54.5131 H         1 UNK         0.3000 
    241 H241       -2.4869  -20.9892  -53.7032 H         1 UNK         0.0600 
    242 H242       -0.8653  -22.9114  -56.2662 H         1 UNK         0.3800 
    243 H243       -2.2299  -22.9252  -55.1698 H         1 UNK         0.3800 
    244 H244       -1.3160  -18.4668  -54.8490 H         1 UNK         0.0800 
    245 H245       -2.9020  -18.2901  -54.1859 H         1 UNK         0.0800 
    246 H246        0.7216  -18.3615  -53.4747 H         1 UNK         0.0800 
    247 H247        0.6004  -20.0664  -53.1091 H         1 UNK         0.0800 
@<TRIPOS>BOND
     1    1    2 1    
     2    1  127 1    
     3    1  128 1    
     4    1  129 1    
     5    2    3 2    
     6    2    4 am   BACKBONE|DICT|INTERRES
     7    4    5 1    
     8    4  130 1    
     9    5    6 1    
    10    5   65 1    
    11    5  131 1    
    12    6    7 1    
    13    6  132 1    
    14    6  133 1    
    15    7    8 1    
    16    8    9 1    
    17    8  134 1    
    18    8  135 1    
    19    9   10 ar   
    20    9   14 ar   
    21   10   11 ar   
    22   10  136 1    
    23   11   12 ar   
    24   11  126 1    
    25   12   13 ar   
    26   12  137 1    
    27   13   14 ar   
    28   13   15 1    
    29   14  138 1    
    30   15   16 1    
    31   15  139 1    
    32   15  140 1    
    33   16   17 1    
    34   17   18 1    
    35   17  141 1    
    36   17  142 1    
    37   18   19 1    
    38   18   67 1    
    39   18  143 1    
    40   19   20 am   BACKBONE|DICT|INTERRES
    41   19  144 1    
    42   20   21 2    
    43   20   22 1    
    44   22   23 1    
    45   22   24 1    
    46   22  145 1    
    47   23  146 1    
    48   23  147 1    
    49   23  148 1    
    50   24   25 am   BACKBONE|DICT|INTERRES
    51   24  149 1    
    52   25   26 2    
    53   25   27 1    
    54   27   28 1    
    55   27   29 1    
    56   27  150 1    
    57   28  151 1    
    58   28  152 1    
    59   28  153 1    
    60   29   30 am   BACKBONE|DICT|INTERRES
    61   29  154 1    
    62   30   31 2    
    63   30   32 1    
    64   32   33 1    
    65   32   34 1    
    66   32  155 1    
    67   33  156 1    
    68   33  157 1    
    69   33  158 1    
    70   34   35 am   BACKBONE|DICT|INTERRES
    71   34  159 1    
    72   35   36 2    
    73   35   37 1    
    74   37   38 1    
    75   37   39 1    
    76   37  160 1    
    77   38  161 1    
    78   38  162 1    
    79   38  163 1    
    80   39   40 am   BACKBONE|DICT|INTERRES
    81   39  164 1    
    82   40   41 2    
    83   40   42 1    
    84   42   43 1    
    85   42   44 1    
    86   42  165 1    
    87   43  166 1    
    88   43  167 1    
    89   43  168 1    
    90   44   45 am   BACKBONE|DICT|INTERRES
    91   44  169 1    
    92   45   46 2    
    93   45   47 1    
    94   47   48 1    
    95   47   49 1    
    96   47  170 1    
    97   48  171 1    
    98   48  172 1    
    99   48  173 1    
   100   49   50 am   BACKBONE|DICT|INTERRES
   101   49  174 1    
   102   50   51 2    
   103   50   52 1    
   104   52   53 1    
   105   52   54 1    
   106   52  175 1    
   107   53  176 1    
   108   53  177 1    
   109   53  178 1    
   110   54   55 am   BACKBONE|DICT|INTERRES
   111   54  179 1    
   112   55   56 2    
   113   55   57 1    
   114   57   58 1    
   115   57   59 1    
   116   57  180 1    
   117   58  181 1    
   118   58  182 1    
   119   58  183 1    
   120   59   60 am   BACKBONE|DICT|INTERRES
   121   59  184 1    
   122   60   61 2    
   123   60   62 1    
   124   62   63 1    
   125   62   64 1    
   126   62  185 1    
   127   63  186 1    
   128   63  187 1    
   129   63  188 1    
   130   64   65 am   BACKBONE|DICT|INTERRES
   131   64  189 1    
   132   65   66 2    
   133   67   68 2    
   134   67   69 am   BACKBONE|DICT|INTERRES
   135   69   70 1    
   136   69  190 1    
   137   70   71 1    
   138   70   72 1    
   139   70  191 1    
   140   71  192 1    
   141   71  193 1    
   142   71  194 1    
   143   72   73 2    
   144   72   74 am   BACKBONE|DICT|INTERRES
   145   74   75 1    
   146   74  195 1    
   147   75   76 1    
   148   75   77 1    
   149   75  196 1    
   150   76  197 1    
   151   76  198 1    
   152   76  199 1    
   153   77   78 2    
   154   77   79 am   BACKBONE|DICT|INTERRES
   155   79   80 1    
   156   79  200 1    
   157   80   81 1    
   158   80   82 1    
   159   80  201 1    
   160   81  202 1    
   161   81  203 1    
   162   81  204 1    
   163   82   83 2    
   164   82   84 am   BACKBONE|DICT|INTERRES
   165   84   85 1    
   166   84  205 1    
   167   85   86 1    
   168   85   87 1    
   169   85  206 1    
   170   86  207 1    
   171   86  208 1    
   172   86  209 1    
   173   87   88 2    
   174   87   89 am   BACKBONE|DICT|INTERRES
   175   89   90 1    
   176   89  210 1    
   177   90   91 1    
   178   90   92 1    
   179   90  211 1    
   180   91  212 1    
   181   91  213 1    
   182   91  214 1    
   183   92   93 2    
   184   92   94 am   BACKBONE|DICT|INTERRES
   185   94   95 1    
   186   94  215 1    
   187   95   96 1    
   188   95   97 1    
   189   95  216 1    
   190   96  217 1    
   191   96  218 1    
   192   96  219 1    
   193   97   98 2    
   194   97   99 am   BACKBONE|DICT|INTERRES
   195   99  100 1    
   196   99  220 1    
   197  100  101 1    
   198  100  102 1    
   199  100  221 1    
   200  101  222 1    
   201  101  223 1    
   202  101  224 1    
   203  102  103 2    
   204  102  104 am   BACKBONE|DICT|INTERRES
   205  104  105 1    
   206  104  225 1    
   207  105  106 1    
   208  105  107 1    
   209  105  226 1    
   210  106  227 1    
   211  106  228 1    
   212  106  229 1    
   213  107  108 2    
   214  107  109 am   BACKBONE|DICT|INTERRES
   215  109  110 1    
   216  109  230 1    
   217  110  111 1    
   218  110  112 1    
   219  110  231 1    
   220  111  232 1    
   221  111  233 1    
   222  111  234 1    
   223  112  113 2    
   224  112  114 am   BACKBONE|DICT|INTERRES
   225  114  115 1    
   226  114  235 1    
   227  115  116 1    
   228  115  117 1    
   229  115  236 1    
   230  116  237 1    
   231  116  238 1    
   232  116  239 1    
   233  117  118 2    
   234  117  119 am   BACKBONE|DICT|INTERRES
   235  119  120 1    
   236  119  240 1    
   237  120  121 1    
   238  120  124 1    
   239  120  241 1    
   240  121  122 am   BACKBONE|DICT|INTERRES
   241  121  123 2    
   242  122  242 1    
   243  122  243 1    
   244  124  125 1    
   245  124  244 1    
   246  124  245 1    
   247  125  126 1    
   248  126  246 1    
   249  126  247 1    
@<TRIPOS>SUBSTRUCTURE
     1 UNK         1 GROUP             0       ****    0 ROOT    
