@<TRIPOS>MOLECULE
3R540
247   249    1
SMALL
USER_CHARGES


@<TRIPOS>ATOM
      1 CA          5.2119  -14.0288  -46.5433 C.3       0 UNK        -0.1800 
      2 C           3.7762  -14.3279  -46.9492 C.2       0 UNK         0.5000 
      3 O           3.0048  -14.8401  -46.1404 O.2       0 UNK        -0.5000 
      4 N           3.4156  -13.9918  -48.1950 N.am      1 UNK        -0.5000 
      5 CA          2.1169  -14.2619  -48.8336 C.3       1 UNK         0.1400 
      6 C6          2.0915  -13.7857  -50.3100 C.3       23 UNK        -0.0398 
      7 S7          3.5094  -14.3839  -51.2940 S.3       23 UNK        -0.2404 
      8 C8          2.6886  -15.2138  -52.6948 C.3       23 UNK        -0.0205 
      9 C9          1.9843  -16.5081  -52.3062 C.ar      23 UNK        -0.0193 
     10 C10         0.6663  -16.7396  -52.7137 C.ar      23 UNK        -0.1150 
     11 C11         0.0308  -17.9485  -52.4131 C.ar      23 UNK        -0.0193 
     12 C12         0.7168  -18.9232  -51.6846 C.ar      23 UNK        -0.1150 
     13 C13         2.0234  -18.6927  -51.2464 C.ar      23 UNK        -0.0193 
     14 C14         2.6574  -17.4928  -51.5760 C.ar      23 UNK        -0.1150 
     15 C15         2.7483  -19.7330  -50.4069 C.3       23 UNK        -0.0205 
     16 S16         2.7444  -19.2978  -48.6367 S.3       23 UNK        -0.2404 
     17 C17         0.9761  -19.4648  -48.2190 C.3       23 UNK        -0.0398 
     18 CA          0.6260  -20.8956  -47.7503 C.3       11 UNK         0.1400 
     19 N           1.0430  -21.1456  -46.3682 N.am      11 UNK        -0.5000 
     20 C           0.9972  -22.3378  -45.7581 C.2       10 UNK         0.5000 
     21 O           0.6437  -23.3769  -46.3147 O.2       10 UNK        -0.5000 
     22 CA          1.3482  -22.3650  -44.2590 C.3       10 UNK         0.1400 
     23 CB          2.8682  -22.3155  -44.0441 C.3       10 UNK        -0.1800 
     24 N           0.7093  -21.2763  -43.5191 N.am      10 UNK        -0.5000 
     25 C          -0.6164  -21.1192  -43.3918 C.2       9 UNK         0.5000 
     26 O          -1.4459  -21.9151  -43.8305 O.2       9 UNK        -0.5000 
     27 CA         -1.0976  -19.8232  -42.7178 C.3       9 UNK         0.1400 
     28 CB         -1.0428  -19.9303  -41.1866 C.3       9 UNK        -0.1800 
     29 N          -0.3253  -18.6650  -43.1648 N.am      9 UNK        -0.5000 
     30 C          -0.3914  -18.1491  -44.4005 C.2       8 UNK         0.5000 
     31 O          -1.1423  -18.5697  -45.2787 O.2       8 UNK        -0.5000 
     32 CA          0.5729  -16.9976  -44.7218 C.3       8 UNK         0.1400 
     33 CB         -0.0546  -15.6526  -44.3406 C.3       8 UNK        -0.1800 
     34 N           1.8648  -17.1575  -44.0546 N.am      8 UNK        -0.5000 
     35 C           2.7585  -18.0978  -44.3931 C.2       7 UNK         0.5000 
     36 O           2.5675  -18.9288  -45.2792 O.2       7 UNK        -0.5000 
     37 CA          4.0528  -18.1699  -43.5628 C.3       7 UNK         0.1400 
     38 CB          5.0793  -17.1515  -44.0804 C.3       7 UNK        -0.1800 
     39 N           3.8319  -17.9503  -42.1335 N.am      7 UNK        -0.5000 
     40 C           3.0267  -18.6839  -41.3532 C.2       6 UNK         0.5000 
     41 O           2.4105  -19.6743  -41.7486 O.2       6 UNK        -0.5000 
     42 CA          2.8225  -18.2024  -39.9024 C.3       6 UNK         0.1400 
     43 CB          3.9597  -17.2953  -39.3813 C.3       6 UNK        -0.1800 
     44 N           1.5240  -17.5404  -39.7266 N.am      6 UNK        -0.5000 
     45 C           1.0573  -16.4847  -40.4107 C.2       5 UNK         0.5000 
     46 O           1.6660  -15.9509  -41.3410 O.2       5 UNK        -0.5000 
     47 CA         -0.3346  -15.9384  -40.0274 C.3       5 UNK         0.1400 
     48 CB         -0.8757  -16.4447  -38.6710 C.3       5 UNK        -0.1800 
     49 N          -0.3512  -14.4750  -40.1024 N.am      5 UNK        -0.5000 
     50 C           0.3595  -13.6165  -39.3578 C.2       4 UNK         0.5000 
     51 O           1.0394  -13.9412  -38.3821 O.2       4 UNK        -0.5000 
     52 CA          0.3455  -12.1505  -39.8370 C.3       4 UNK         0.1400 
     53 CB          0.7957  -11.1659  -38.7428 C.3       4 UNK        -0.1800 
     54 N           1.2128  -11.9864  -41.0049 N.am      4 UNK        -0.5000 
     55 C           0.9156  -12.3896  -42.2464 C.2       3 UNK         0.5000 
     56 O          -0.1726  -12.8837  -42.5554 O.2       3 UNK        -0.5000 
     57 CA          2.0376  -12.2395  -43.2961 C.3       3 UNK         0.1400 
     58 CB          3.0998  -13.3351  -43.1057 C.3       3 UNK        -0.1800 
     59 N           1.5383  -12.3065  -44.6711 N.am      3 UNK        -0.5000 
     60 C           0.7231  -11.4049  -45.2368 C.2       2 UNK         0.5000 
     61 O           0.4152  -10.3389  -44.7000 O.2       2 UNK        -0.5000 
     62 CA          0.1723  -11.7526  -46.6331 C.3       2 UNK         0.1400 
     63 CB         -0.2528  -10.5104  -47.4381 C.3       2 UNK        -0.1800 
     64 N           1.1552  -12.5107  -47.4052 N.am      2 UNK        -0.5000 
     65 C           0.9173  -13.6430  -48.0799 C.2       1 UNK         0.5000 
     66 O          -0.1827  -14.1937  -48.1328 O.2       1 UNK        -0.5000 
     67 C          -0.8694  -21.1965  -47.9741 C.2       11 UNK         0.5000 
     68 O          -1.2049  -21.8488  -48.9627 O.2       11 UNK        -0.5000 
     69 N          -1.7365  -20.7548  -47.0512 N.am      12 UNK        -0.5000 
     70 CA         -3.1737  -21.0318  -47.0783 C.3       12 UNK         0.1400 
     71 CB         -3.8875  -20.2317  -45.9793 C.3       12 UNK        -0.1800 
     72 C          -3.4894  -22.5317  -46.9538 C.2       12 UNK         0.5000 
     73 O          -4.3417  -23.0275  -47.6897 O.2       12 UNK        -0.5000 
     74 N          -2.7729  -23.2313  -46.0625 N.am      13 UNK        -0.5000 
     75 CA         -2.8582  -24.6804  -45.8837 C.3       13 UNK         0.1400 
     76 CB         -2.0602  -25.1008  -44.6406 C.3       13 UNK        -0.1800 
     77 C          -2.3927  -25.4572  -47.1283 C.2       13 UNK         0.5000 
     78 O          -3.0754  -26.3945  -47.5414 O.2       13 UNK        -0.5000 
     79 N          -1.2749  -25.0286  -47.7332 N.am      14 UNK        -0.5000 
     80 CA         -0.7328  -25.5832  -48.9775 C.3       14 UNK         0.1400 
     81 CB          0.6441  -24.9639  -49.2615 C.3       14 UNK        -0.1800 
     82 C          -1.6759  -25.3935  -50.1814 C.2       14 UNK         0.5000 
     83 O          -1.8119  -26.3050  -50.9977 O.2       14 UNK        -0.5000 
     84 N          -2.3418  -24.2330  -50.2410 N.am      15 UNK        -0.5000 
     85 CA         -3.3736  -23.9018  -51.2253 C.3       15 UNK         0.1400 
     86 CB         -3.4961  -22.3704  -51.3076 C.3       15 UNK        -0.1800 
     87 C          -4.7457  -24.5426  -50.9234 C.2       15 UNK         0.5000 
     88 O          -5.6698  -24.3750  -51.7183 O.2       15 UNK        -0.5000 
     89 N          -4.8813  -25.2264  -49.7756 N.am      16 UNK        -0.5000 
     90 CA         -6.1028  -25.8474  -49.2458 C.3       16 UNK         0.1400 
     91 CB         -6.4989  -27.0689  -50.1003 C.3       16 UNK        -0.1800 
     92 C          -7.2627  -24.8428  -49.0600 C.2       16 UNK         0.5000 
     93 O          -8.4291  -25.2037  -49.2255 O.2       16 UNK        -0.5000 
     94 N          -6.9039  -23.5889  -48.7467 N.am      17 UNK        -0.5000 
     95 CA         -7.7519  -22.4012  -48.6103 C.3       17 UNK         0.1400 
     96 CB         -8.7078  -22.5534  -47.4094 C.3       17 UNK        -0.1800 
     97 C          -8.4922  -21.9748  -49.9005 C.2       17 UNK         0.5000 
     98 O          -9.3803  -21.1234  -49.8243 O.2       17 UNK        -0.5000 
     99 N          -8.1266  -22.5403  -51.0597 N.am      18 UNK        -0.5000 
    100 CA        -8.7070  -22.2021  -52.3572 C.3       18 UNK         0.1400 
    101 CB        -8.6289  -23.4262  -53.2814 C.3       18 UNK        -0.1800 
    102 C         -7.9849  -20.9949  -52.9778 C.2       18 UNK         0.5000 
    103 O         -6.7662  -20.8613  -52.8370 O.2       18 UNK        -0.5000 
    104 N         -8.7494  -20.1422  -53.6699 N.am      19 UNK        -0.5000 
    105 CA        -8.2421  -18.9712  -54.3825 C.3       19 UNK         0.1400 
    106 CB        -9.4210  -18.0656  -54.7708 C.3       19 UNK        -0.1800 
    107 C         -7.4387  -19.3819  -55.6290 C.2       19 UNK         0.5000 
    108 O         -7.8925  -20.2416  -56.3876 O.2       19 UNK        -0.5000 
    109 N         -6.2696  -18.7514  -55.8110 N.am      20 UNK        -0.5000 
    110 CA        -5.3223  -18.9300  -56.9216 C.3       20 UNK         0.1400 
    111 CB        -5.9505  -18.4706  -58.2542 C.3       20 UNK        -0.1800 
    112 C         -4.7000  -20.3424  -57.0215 C.2       20 UNK         0.5000 
    113 O         -4.1252  -20.6823  -58.0564 O.2       20 UNK        -0.5000 
    114 N         -4.7835  -21.1285  -55.9402 N.am      21 UNK        -0.5000 
    115 CA        -4.2446  -22.4874  -55.8292 C.3       21 UNK         0.1400 
    116 CB        -5.2434  -23.3391  -55.0300 C.3       21 UNK        -0.1800 
    117 C         -2.8346  -22.5078  -55.2002 C.2       21 UNK         0.5000 
    118 O         -2.4241  -23.5316  -54.6535 O.2       21 UNK        -0.5000 
    119 N         -2.1357  -21.3684  -55.2675 N.am      22 UNK        -0.5000 
    120 CA        -0.7990  -21.1018  -54.7197 C.3       22 UNK         0.1400 
    121 C          0.2832  -22.1282  -55.1606 C.2       22 UNK         0.5000 
    122 N          1.1391  -22.5712  -54.2495 N.am      22 UNK        -0.7600 
    123 O          0.3837  -22.4852  -56.3325 O.2       22 UNK        -0.5000 
    124 C124       -0.3315  -19.6679  -55.0808 C.3       23 UNK        -0.0398 
    125 S125       -1.5423  -18.3549  -54.6831 S.3       23 UNK        -0.2404 
    126 C126       -1.3967  -18.2084  -52.8723 C.3       23 UNK        -0.0205 
    127 H127        5.6741  -14.9171  -46.1136 H         1 UNK         0.0600 
    128 H128        5.2353  -13.2350  -45.7975 H         1 UNK         0.0600 
    129 H129        5.8149  -13.7132  -47.3949 H         1 UNK         0.0600 
    130 H130        4.1064  -13.5815  -48.8076 H         1 UNK         0.3000 
    131 H131        1.9788  -15.3454  -48.8238 H         1 UNK         0.0600 
    132 H132        2.0992  -12.6952  -50.3608 H         1 UNK         0.0800 
    133 H133        1.1629  -14.1027  -50.7885 H         1 UNK         0.0800 
    134 H134        3.4413  -15.4470  -53.4487 H         1 UNK         0.0800 
    135 H135        1.9936  -14.5147  -53.1629 H         1 UNK         0.0800 
    136 H136        0.1371  -15.9897  -53.2850 H         1 UNK         0.1150 
    137 H137        0.2269  -19.8559  -51.4414 H         1 UNK         0.1150 
    138 H138        3.6742  -17.3209  -51.2514 H         1 UNK         0.1150 
    139 H139        2.3024  -20.7196  -50.5415 H         1 UNK         0.0800 
    140 H140        3.7815  -19.8170  -50.7469 H         1 UNK         0.0800 
    141 H141        0.3764  -19.1640  -49.0763 H         1 UNK         0.0800 
    142 H142        0.7363  -18.7408  -47.4402 H         1 UNK         0.0800 
    143 H143        1.1709  -21.6027  -48.3793 H         1 UNK         0.0600 
    144 H144        1.4184  -20.3480  -45.8614 H         1 UNK         0.3000 
    145 H145        0.9786  -23.3069  -43.8485 H         1 UNK         0.0600 
    146 H146        3.1187  -22.3908  -42.9858 H         1 UNK         0.0600 
    147 H147        3.3609  -23.1429  -44.5561 H         1 UNK         0.0600 
    148 H148        3.3013  -21.3902  -44.4238 H         1 UNK         0.0600 
    149 H149        1.3252  -20.5964  -43.0830 H         1 UNK         0.3000 
    150 H150       -2.1396  -19.6670  -43.0048 H         1 UNK         0.0600 
    151 H151       -1.6398  -20.7732  -40.8362 H         1 UNK         0.0600 
    152 H152       -1.4429  -19.0328  -40.7156 H         1 UNK         0.0600 
    153 H153       -0.0265  -20.0777  -40.8221 H         1 UNK         0.0600 
    154 H154        0.3803  -18.3125  -42.5358 H         1 UNK         0.3000 
    155 H155        0.7456  -16.9898  -45.7999 H         1 UNK         0.0600 
    156 H156       -0.2349  -15.5756  -43.2687 H         1 UNK         0.0600 
    157 H157       -1.0095  -15.5076  -44.8472 H         1 UNK         0.0600 
    158 H158        0.5918  -14.8291  -44.6343 H         1 UNK         0.0600 
    159 H159        2.0558  -16.5503  -43.2646 H         1 UNK         0.3000 
    160 H160        4.4701  -19.1715  -43.6840 H         1 UNK         0.0600 
    161 H161        5.2749  -17.3032  -45.1429 H         1 UNK         0.0600 
    162 H162        6.0309  -17.2466  -43.5574 H         1 UNK         0.0600 
    163 H163        4.7263  -16.1267  -43.9563 H         1 UNK         0.0600 
    164 H164        4.2557  -17.1262  -41.7333 H         1 UNK         0.3000 
    165 H165        2.8055  -19.1000  -39.2824 H         1 UNK         0.0600 
    166 H166        3.8304  -17.0869  -38.3192 H         1 UNK         0.0600 
    167 H167        4.9318  -17.7765  -39.4971 H         1 UNK         0.0600 
    168 H168        3.9980  -16.3356  -39.8978 H         1 UNK         0.0600 
    169 H169        0.9407  -17.9235  -38.9965 H         1 UNK         0.3000 
    170 H170       -1.0173  -16.2868  -40.8035 H         1 UNK         0.0600 
    171 H171       -1.8352  -15.9828  -38.4384 H         1 UNK         0.0600 
    172 H172       -1.0396  -17.5226  -38.6871 H         1 UNK         0.0600 
    173 H173       -0.1956  -16.2253  -37.8474 H         1 UNK         0.0600 
    174 H174       -0.7613  -14.0933  -40.9480 H         1 UNK         0.3000 
    175 H175       -0.6799  -11.8946  -40.1129 H         1 UNK         0.0600 
    176 H176        1.8305  -11.3367  -38.4432 H         1 UNK         0.0600 
    177 H177        0.7123  -10.1339  -39.0840 H         1 UNK         0.0600 
    178 H178        0.1747  -11.2638  -37.8515 H         1 UNK         0.0600 
    179 H179        2.1360  -11.6217  -40.8205 H         1 UNK         0.3000 
    180 H180        2.5091  -11.2653  -43.1522 H         1 UNK         0.0600 
    181 H181        2.6938  -14.3265  -43.3074 H         1 UNK         0.0600 
    182 H182        3.4880  -13.3440  -42.0866 H         1 UNK         0.0600 
    183 H183        3.9480  -13.1812  -43.7714 H         1 UNK         0.0600 
    184 H184        1.7387  -13.1603  -45.1764 H         1 UNK         0.3000 
    185 H185       -0.7160  -12.3626  -46.4571 H         1 UNK         0.0600 
    186 H186       -1.0291   -9.9490  -46.9169 H         1 UNK         0.0600 
    187 H187        0.5872   -9.8358  -47.6069 H         1 UNK         0.0600 
    188 H188       -0.6573  -10.7918  -48.4105 H         1 UNK         0.0600 
    189 H189        2.0987  -12.1486  -47.3990 H         1 UNK         0.3000 
    190 H190       -1.4026  -20.1694  -46.2903 H         1 UNK         0.3000 
    191 H191       -3.5576  -20.6941  -48.0431 H         1 UNK         0.0600 
    192 H192       -3.5211  -20.4939  -44.9867 H         1 UNK         0.0600 
    193 H193       -4.9617  -20.4202  -45.9940 H         1 UNK         0.0600 
    194 H194       -3.7441  -19.1599  -46.1167 H         1 UNK         0.0600 
    195 H195       -2.1266  -22.7355  -45.4550 H         1 UNK         0.3000 
    196 H196       -3.9070  -24.9311  -45.7111 H         1 UNK         0.0600 
    197 H197       -2.1270  -26.1773  -44.4789 H         1 UNK         0.0600 
    198 H198       -2.4430  -24.6126  -43.7443 H         1 UNK         0.0600 
    199 H199       -1.0041  -24.8470  -44.7326 H         1 UNK         0.0600 
    200 H200       -0.7415  -24.2788  -47.3005 H         1 UNK         0.3000 
    201 H201       -0.5976  -26.6566  -48.8296 H         1 UNK         0.0600 
    202 H202        1.3403  -25.1602  -48.4459 H         1 UNK         0.0600 
    203 H203        0.5808  -23.8837  -49.3938 H         1 UNK         0.0600 
    204 H204        1.0805  -25.3811  -50.1698 H         1 UNK         0.0600 
    205 H205       -2.1188  -23.5101  -49.5630 H         1 UNK         0.3000 
    206 H206       -3.0559  -24.2728  -52.2006 H         1 UNK         0.0600 
    207 H207       -2.5459  -21.9139  -51.5854 H         1 UNK         0.0600 
    208 H208       -4.2289  -22.0704  -52.0573 H         1 UNK         0.0600 
    209 H209       -3.8086  -21.9423  -50.3547 H         1 UNK         0.0600 
    210 H210       -4.0723  -25.2934  -49.1710 H         1 UNK         0.3000 
    211 H211       -5.8522  -26.2078  -48.2474 H         1 UNK         0.0600 
    212 H212       -6.8208  -26.7758  -51.1001 H         1 UNK         0.0600 
    213 H213       -7.3200  -27.6197  -49.6402 H         1 UNK         0.0600 
    214 H214       -5.6641  -27.7618  -50.2061 H         1 UNK         0.0600 
    215 H215       -5.9129  -23.4227  -48.5788 H         1 UNK         0.3000 
    216 H216       -7.0686  -21.5824  -48.3804 H         1 UNK         0.0600 
    217 H217       -9.2275  -21.6180  -47.1992 H         1 UNK         0.0600 
    218 H218       -8.1639  -22.8290  -46.5058 H         1 UNK         0.0600 
    219 H219       -9.4672  -23.3145  -47.5902 H         1 UNK         0.0600 
    220 H220       -7.3481  -23.1895  -51.0739 H         1 UNK         0.3000 
    221 H221       -9.7620  -21.9517  -52.2260 H         1 UNK         0.0600 
    222 H222       -7.6017  -23.7557  -53.4296 H         1 UNK         0.0600 
    223 H223       -9.1894  -24.2653  -52.8690 H         1 UNK         0.0600 
    224 H224       -9.0475  -23.2040  -54.2637 H         1 UNK         0.0600 
    225 H225       -9.7339  -20.3384  -53.7764 H         1 UNK         0.3000 
    226 H226       -7.5921  -18.4140  -53.7042 H         1 UNK         0.0600 
    227 H227       -9.9733  -17.7366  -53.8903 H         1 UNK         0.0600 
    228 H228       -9.0714  -17.1708  -55.2876 H         1 UNK         0.0600 
    229 H229      -10.1198  -18.5758  -55.4351 H         1 UNK         0.0600 
    230 H230       -5.9863  -18.0726  -55.1175 H         1 UNK         0.3000 
    231 H231       -4.4883  -18.2595  -56.7091 H         1 UNK         0.0600 
    232 H232       -6.3654  -17.4662  -58.1693 H         1 UNK         0.0600 
    233 H233       -6.7498  -19.1379  -58.5773 H         1 UNK         0.0600 
    234 H234       -5.2065  -18.4446  -59.0512 H         1 UNK         0.0600 
    235 H235       -5.2560  -20.7698  -55.1216 H         1 UNK         0.3000 
    236 H236       -4.1537  -22.9305  -56.8228 H         1 UNK         0.0600 
    237 H237       -4.9214  -24.3790  -54.9652 H         1 UNK         0.0600 
    238 H238       -5.3562  -22.9659  -54.0126 H         1 UNK         0.0600 
    239 H239       -6.2272  -23.3337  -55.4994 H         1 UNK         0.0600 
    240 H240       -2.5650  -20.5901  -55.7437 H         1 UNK         0.3000 
    241 H241       -0.8972  -21.1637  -53.6346 H         1 UNK         0.0600 
    242 H242        1.8543  -23.2236  -54.5310 H         1 UNK         0.3800 
    243 H243        1.0819  -22.2891  -53.2842 H         1 UNK         0.3800 
    244 H244        0.6196  -19.4399  -54.5976 H         1 UNK         0.0800 
    245 H245       -0.1357  -19.6014  -56.1527 H         1 UNK         0.0800 
    246 H246       -1.7956  -19.1132  -52.4108 H         1 UNK         0.0800 
    247 H247       -2.0337  -17.3903  -52.5337 H         1 UNK         0.0800 
@<TRIPOS>BOND
     1    1    2 1    
     2    1  127 1    
     3    1  128 1    
     4    1  129 1    
     5    2    3 2    
     6    2    4 am   BACKBONE|DICT|INTERRES
     7    4    5 1    
     8    4  130 1    
     9    5    6 1    
    10    5   65 1    
    11    5  131 1    
    12    6    7 1    
    13    6  132 1    
    14    6  133 1    
    15    7    8 1    
    16    8    9 1    
    17    8  134 1    
    18    8  135 1    
    19    9   10 ar   
    20    9   14 ar   
    21   10   11 ar   
    22   10  136 1    
    23   11   12 ar   
    24   11  126 1    
    25   12   13 ar   
    26   12  137 1    
    27   13   14 ar   
    28   13   15 1    
    29   14  138 1    
    30   15   16 1    
    31   15  139 1    
    32   15  140 1    
    33   16   17 1    
    34   17   18 1    
    35   17  141 1    
    36   17  142 1    
    37   18   19 1    
    38   18   67 1    
    39   18  143 1    
    40   19   20 am   BACKBONE|DICT|INTERRES
    41   19  144 1    
    42   20   21 2    
    43   20   22 1    
    44   22   23 1    
    45   22   24 1    
    46   22  145 1    
    47   23  146 1    
    48   23  147 1    
    49   23  148 1    
    50   24   25 am   BACKBONE|DICT|INTERRES
    51   24  149 1    
    52   25   26 2    
    53   25   27 1    
    54   27   28 1    
    55   27   29 1    
    56   27  150 1    
    57   28  151 1    
    58   28  152 1    
    59   28  153 1    
    60   29   30 am   BACKBONE|DICT|INTERRES
    61   29  154 1    
    62   30   31 2    
    63   30   32 1    
    64   32   33 1    
    65   32   34 1    
    66   32  155 1    
    67   33  156 1    
    68   33  157 1    
    69   33  158 1    
    70   34   35 am   BACKBONE|DICT|INTERRES
    71   34  159 1    
    72   35   36 2    
    73   35   37 1    
    74   37   38 1    
    75   37   39 1    
    76   37  160 1    
    77   38  161 1    
    78   38  162 1    
    79   38  163 1    
    80   39   40 am   BACKBONE|DICT|INTERRES
    81   39  164 1    
    82   40   41 2    
    83   40   42 1    
    84   42   43 1    
    85   42   44 1    
    86   42  165 1    
    87   43  166 1    
    88   43  167 1    
    89   43  168 1    
    90   44   45 am   BACKBONE|DICT|INTERRES
    91   44  169 1    
    92   45   46 2    
    93   45   47 1    
    94   47   48 1    
    95   47   49 1    
    96   47  170 1    
    97   48  171 1    
    98   48  172 1    
    99   48  173 1    
   100   49   50 am   BACKBONE|DICT|INTERRES
   101   49  174 1    
   102   50   51 2    
   103   50   52 1    
   104   52   53 1    
   105   52   54 1    
   106   52  175 1    
   107   53  176 1    
   108   53  177 1    
   109   53  178 1    
   110   54   55 am   BACKBONE|DICT|INTERRES
   111   54  179 1    
   112   55   56 2    
   113   55   57 1    
   114   57   58 1    
   115   57   59 1    
   116   57  180 1    
   117   58  181 1    
   118   58  182 1    
   119   58  183 1    
   120   59   60 am   BACKBONE|DICT|INTERRES
   121   59  184 1    
   122   60   61 2    
   123   60   62 1    
   124   62   63 1    
   125   62   64 1    
   126   62  185 1    
   127   63  186 1    
   128   63  187 1    
   129   63  188 1    
   130   64   65 am   BACKBONE|DICT|INTERRES
   131   64  189 1    
   132   65   66 2    
   133   67   68 2    
   134   67   69 am   BACKBONE|DICT|INTERRES
   135   69   70 1    
   136   69  190 1    
   137   70   71 1    
   138   70   72 1    
   139   70  191 1    
   140   71  192 1    
   141   71  193 1    
   142   71  194 1    
   143   72   73 2    
   144   72   74 am   BACKBONE|DICT|INTERRES
   145   74   75 1    
   146   74  195 1    
   147   75   76 1    
   148   75   77 1    
   149   75  196 1    
   150   76  197 1    
   151   76  198 1    
   152   76  199 1    
   153   77   78 2    
   154   77   79 am   BACKBONE|DICT|INTERRES
   155   79   80 1    
   156   79  200 1    
   157   80   81 1    
   158   80   82 1    
   159   80  201 1    
   160   81  202 1    
   161   81  203 1    
   162   81  204 1    
   163   82   83 2    
   164   82   84 am   BACKBONE|DICT|INTERRES
   165   84   85 1    
   166   84  205 1    
   167   85   86 1    
   168   85   87 1    
   169   85  206 1    
   170   86  207 1    
   171   86  208 1    
   172   86  209 1    
   173   87   88 2    
   174   87   89 am   BACKBONE|DICT|INTERRES
   175   89   90 1    
   176   89  210 1    
   177   90   91 1    
   178   90   92 1    
   179   90  211 1    
   180   91  212 1    
   181   91  213 1    
   182   91  214 1    
   183   92   93 2    
   184   92   94 am   BACKBONE|DICT|INTERRES
   185   94   95 1    
   186   94  215 1    
   187   95   96 1    
   188   95   97 1    
   189   95  216 1    
   190   96  217 1    
   191   96  218 1    
   192   96  219 1    
   193   97   98 2    
   194   97   99 am   BACKBONE|DICT|INTERRES
   195   99  100 1    
   196   99  220 1    
   197  100  101 1    
   198  100  102 1    
   199  100  221 1    
   200  101  222 1    
   201  101  223 1    
   202  101  224 1    
   203  102  103 2    
   204  102  104 am   BACKBONE|DICT|INTERRES
   205  104  105 1    
   206  104  225 1    
   207  105  106 1    
   208  105  107 1    
   209  105  226 1    
   210  106  227 1    
   211  106  228 1    
   212  106  229 1    
   213  107  108 2    
   214  107  109 am   BACKBONE|DICT|INTERRES
   215  109  110 1    
   216  109  230 1    
   217  110  111 1    
   218  110  112 1    
   219  110  231 1    
   220  111  232 1    
   221  111  233 1    
   222  111  234 1    
   223  112  113 2    
   224  112  114 am   BACKBONE|DICT|INTERRES
   225  114  115 1    
   226  114  235 1    
   227  115  116 1    
   228  115  117 1    
   229  115  236 1    
   230  116  237 1    
   231  116  238 1    
   232  116  239 1    
   233  117  118 2    
   234  117  119 am   BACKBONE|DICT|INTERRES
   235  119  120 1    
   236  119  240 1    
   237  120  121 1    
   238  120  124 1    
   239  120  241 1    
   240  121  122 am   BACKBONE|DICT|INTERRES
   241  121  123 2    
   242  122  242 1    
   243  122  243 1    
   244  124  125 1    
   245  124  244 1    
   246  124  245 1    
   247  125  126 1    
   248  126  246 1    
   249  126  247 1    
@<TRIPOS>SUBSTRUCTURE
     1 UNK         1 GROUP             0       ****    0 ROOT    
