@<TRIPOS>MOLECULE
3R540
247   249    1
SMALL
USER_CHARGES


@<TRIPOS>ATOM
      1 CA         -4.3166   -8.3416  -44.7296 C.3       0 UNK        -0.1800 
      2 C          -3.1398   -9.2416  -45.0795 C.2       0 UNK         0.5000 
      3 O          -2.1684   -9.3024  -44.3251 O.2       0 UNK        -0.5000 
      4 N          -3.2179   -9.9310  -46.2236 N.am      1 UNK        -0.5000 
      5 CA         -2.2272  -10.9063  -46.6891 C.3       1 UNK         0.1400 
      6 C6         -2.3578  -11.1674  -48.2144 C.3       23 UNK        -0.0398 
      7 S7         -4.0346  -11.6446  -48.7672 S.3       23 UNK        -0.2404 
      8 C8         -3.6696  -12.6029  -50.2725 C.3       23 UNK        -0.0205 
      9 C9         -3.1495  -13.9981  -49.9576 C.ar      23 UNK        -0.0193 
     10 C10        -1.8017  -14.3169  -50.1531 C.ar      23 UNK        -0.1150 
     11 C11        -1.3305  -15.6040  -49.8766 C.ar      23 UNK        -0.0193 
     12 C12        -2.2185  -16.5747  -49.4077 C.ar      23 UNK        -0.1150 
     13 C13        -3.5662  -16.2696  -49.2096 C.ar      23 UNK        -0.0193 
     14 C14        -4.0267  -14.9800  -49.4878 C.ar      23 UNK        -0.1150 
     15 C15        -4.5267  -17.3375  -48.7129 C.3       23 UNK        -0.0205 
     16 S16        -4.6606  -17.3561  -46.8946 S.3       23 UNK        -0.2404 
     17 C17        -3.0846  -18.1238  -46.3778 C.3       23 UNK        -0.0398 
     18 CA         -3.0640  -19.6554  -46.6018 C.3       11 UNK         0.1400 
     19 N          -1.7040  -20.1939  -46.6781 N.am      11 UNK        -0.5000 
     20 C          -1.4055  -21.4575  -47.0166 C.2       10 UNK         0.5000 
     21 O          -2.2448  -22.2960  -47.3442 O.2       10 UNK        -0.5000 
     22 CA          0.0698  -21.8788  -46.8924 C.3       10 UNK         0.1400 
     23 CB          0.8849  -21.4083  -48.1066 C.3       10 UNK        -0.1800 
     24 N           0.6781  -21.3922  -45.6517 N.am      10 UNK        -0.5000 
     25 C           0.2711  -21.7523  -44.4246 C.2       9 UNK         0.5000 
     26 O          -0.5958  -22.6001  -44.2167 O.2       9 UNK        -0.5000 
     27 CA          0.8895  -21.0060  -43.2289 C.3       9 UNK         0.1400 
     28 CB          2.2299  -21.6362  -42.8242 C.3       9 UNK        -0.1800 
     29 N           1.0624  -19.5748  -43.4831 N.am      9 UNK        -0.5000 
     30 C           0.0582  -18.7139  -43.7058 C.2       8 UNK         0.5000 
     31 O          -1.1305  -19.0286  -43.6644 O.2       8 UNK        -0.5000 
     32 CA          0.4414  -17.2756  -44.0975 C.3       8 UNK         0.1400 
     33 CB          0.7676  -16.4302  -42.8584 C.3       8 UNK        -0.1800 
     34 N           1.5680  -17.2397  -45.0278 N.am      8 UNK        -0.5000 
     35 C           1.5328  -17.7113  -46.2818 C.2       7 UNK         0.5000 
     36 O           0.5162  -18.1619  -46.8111 O.2       7 UNK        -0.5000 
     37 CA          2.8689  -17.7297  -47.0478 C.3       7 UNK         0.1400 
     38 CB          3.1903  -16.3637  -47.6679 C.3       7 UNK        -0.1800 
     39 N           3.9816  -18.1181  -46.1848 N.am      7 UNK        -0.5000 
     40 C           4.1811  -19.3528  -45.7086 C.2       6 UNK         0.5000 
     41 O           3.4588  -20.3133  -45.9742 O.2       6 UNK        -0.5000 
     42 CA          5.3697  -19.5260  -44.7452 C.3       6 UNK         0.1400 
     43 CB          6.6691  -19.7678  -45.5275 C.3       6 UNK        -0.1800 
     44 N           5.5453  -18.3740  -43.8561 N.am      6 UNK        -0.5000 
     45 C           4.6845  -18.0386  -42.8850 C.2       5 UNK         0.5000 
     46 O           3.6614  -18.6726  -42.6335 O.2       5 UNK        -0.5000 
     47 CA          4.9946  -16.7591  -42.0883 C.3       5 UNK         0.1400 
     48 CB          5.9980  -17.0526  -40.9631 C.3       5 UNK        -0.1800 
     49 N           5.4957  -15.6570  -42.9142 N.am      5 UNK        -0.5000 
     50 C           4.8049  -15.0683  -43.8988 C.2       4 UNK         0.5000 
     51 O           3.6979  -15.4502  -44.2836 O.2       4 UNK        -0.5000 
     52 CA          5.4811  -13.8787  -44.5976 C.3       4 UNK         0.1400 
     53 CB          6.1527  -14.3266  -45.9048 C.3       4 UNK        -0.1800 
     54 N           4.5065  -12.8278  -44.8891 N.am      4 UNK        -0.5000 
     55 C           4.0859  -11.9222  -43.9953 C.2       3 UNK         0.5000 
     56 O           4.5071  -11.8572  -42.8394 O.2       3 UNK        -0.5000 
     57 CA          3.0311  -10.9058  -44.4722 C.3       3 UNK         0.1400 
     58 CB          3.7126   -9.6818  -45.1038 C.3       3 UNK        -0.1800 
     59 N           2.0786  -11.4717  -45.4305 N.am      3 UNK        -0.5000 
     60 C           1.0433  -12.2468  -45.0849 C.2       2 UNK         0.5000 
     61 O           0.7912  -12.5795  -43.9246 O.2       2 UNK        -0.5000 
     62 CA          0.1511  -12.7417  -46.2360 C.3       2 UNK         0.1400 
     63 CB          0.7072  -14.0510  -46.8032 C.3       2 UNK        -0.1800 
     64 N          -1.2047  -12.9953  -45.7470 N.am      2 UNK        -0.5000 
     65 C          -2.2901  -12.2174  -45.8606 C.2       1 UNK         0.5000 
     66 O          -3.3520  -12.5396  -45.3239 O.2       1 UNK        -0.5000 
     67 C          -3.9329  -20.4134  -45.5753 C.2       11 UNK         0.5000 
     68 O          -5.0362  -20.8443  -45.9169 O.2       11 UNK        -0.5000 
     69 N          -3.3917  -20.6135  -44.3641 N.am      12 UNK        -0.5000 
     70 CA         -4.0153  -21.3628  -43.2709 C.3       12 UNK         0.1400 
     71 CB         -3.1417  -21.2577  -42.0124 C.3       12 UNK        -0.1800 
     72 C          -4.2974  -22.8370  -43.6183 C.2       12 UNK         0.5000 
     73 O          -5.3262  -23.3694  -43.2008 O.2       12 UNK        -0.5000 
     74 N          -3.4283  -23.4528  -44.4312 N.am      13 UNK        -0.5000 
     75 CA         -3.5820  -24.7915  -45.0088 C.3       13 UNK         0.1400 
     76 CB         -2.1917  -25.3260  -45.3977 C.3       13 UNK        -0.1800 
     77 C          -4.5788  -24.8260  -46.1922 C.2       13 UNK         0.5000 
     78 O          -4.3091  -25.4694  -47.2089 O.2       13 UNK        -0.5000 
     79 N          -5.7141  -24.1286  -46.0392 N.am      14 UNK        -0.5000 
     80 CA         -6.8273  -23.9935  -46.9826 C.3       14 UNK         0.1400 
     81 CB         -7.6156  -25.3177  -47.0611 C.3       14 UNK        -0.1800 
     82 C          -6.3860  -23.4788  -48.3676 C.2       14 UNK         0.5000 
     83 O          -6.8029  -24.0308  -49.3852 O.2       14 UNK        -0.5000 
     84 N          -5.5215  -22.4538  -48.3790 N.am      15 UNK        -0.5000 
     85 CA         -4.8697  -21.8798  -49.5628 C.3       15 UNK         0.1400 
     86 CB         -5.8860  -21.1077  -50.4289 C.3       15 UNK        -0.1800 
     87 C          -4.0661  -22.9326  -50.3549 C.2       15 UNK         0.5000 
     88 O          -4.2671  -23.0922  -51.5612 O.2       15 UNK        -0.5000 
     89 N          -3.1877  -23.6433  -49.6344 N.am      16 UNK        -0.5000 
     90 CA         -2.3385  -24.7479  -50.0855 C.3       16 UNK         0.1400 
     91 CB         -1.2208  -24.2220  -51.0076 C.3       16 UNK        -0.1800 
     92 C          -3.1594  -25.8991  -50.7031 C.2       16 UNK         0.5000 
     93 O          -2.8488  -26.3711  -51.7980 O.2       16 UNK        -0.5000 
     94 N          -4.2153  -26.3042  -49.9810 N.am      17 UNK        -0.5000 
     95 CA         -5.2403  -27.2766  -50.3762 C.3       17 UNK         0.1400 
     96 CB         -4.6439  -28.6968  -50.4667 C.3       17 UNK        -0.1800 
     97 C          -6.0063  -26.8526  -51.6500 C.2       17 UNK         0.5000 
     98 O          -6.2935  -27.6876  -52.5100 O.2       17 UNK        -0.5000 
     99 N          -6.3249  -25.5528  -51.7264 N.am      18 UNK        -0.5000 
    100 CA        -7.0485  -24.8497  -52.7863 C.3       18 UNK         0.1400 
    101 CB        -8.5413  -25.2368  -52.7527 C.3       18 UNK        -0.1800 
    102 C         -6.4078  -25.0179  -54.1792 C.2       18 UNK         0.5000 
    103 O         -7.1088  -25.3219  -55.1476 O.2       18 UNK        -0.5000 
    104 N         -5.0858  -24.8287  -54.2595 N.am      19 UNK        -0.5000 
    105 CA        -4.3066  -24.9861  -55.4837 C.3       19 UNK         0.1400 
    106 CB        -3.8540  -26.4508  -55.6174 C.3       19 UNK        -0.1800 
    107 C         -3.1000  -24.0396  -55.4745 C.2       19 UNK         0.5000 
    108 O         -2.5448  -23.7698  -54.4090 O.2       19 UNK        -0.5000 
    109 N         -2.7028  -23.5962  -56.6768 N.am      20 UNK        -0.5000 
    110 CA        -1.5630  -22.7217  -56.9838 C.3       20 UNK         0.1400 
    111 CB        -0.2379  -23.4201  -56.6051 C.3       20 UNK        -0.1800 
    112 C         -1.6696  -21.3066  -56.3712 C.2       20 UNK         0.5000 
    113 O         -2.6790  -20.9542  -55.7534 O.2       20 UNK        -0.5000 
    114 N         -0.6198  -20.4985  -56.5736 N.am      21 UNK        -0.5000 
    115 CA        -0.4534  -19.1865  -55.9482 C.3       21 UNK         0.1400 
    116 CB         0.7755  -18.4858  -56.5479 C.3       21 UNK        -0.1800 
    117 C         -0.3135  -19.3410  -54.4235 C.2       21 UNK         0.5000 
    118 O          0.5156  -20.1353  -53.9736 O.2       21 UNK        -0.5000 
    119 N         -1.1507  -18.6125  -53.6759 N.am      22 UNK        -0.5000 
    120 CA        -1.3269  -18.7283  -52.2159 C.3       22 UNK         0.1400 
    121 C         -2.0065  -20.0529  -51.7494 C.2       22 UNK         0.5000 
    122 N         -2.5794  -20.8608  -52.6358 N.am      22 UNK        -0.7600 
    123 O         -2.0551  -20.3290  -50.5550 O.2       22 UNK        -0.5000 
    124 C124       -0.0379  -18.4025  -51.4060 C.3       23 UNK        -0.0398 
    125 S125        0.5215  -16.6827  -51.6587 S.3       23 UNK        -0.2404 
    126 C126        0.1436  -15.9358  -50.0429 C.3       23 UNK        -0.0205 
    127 H127       -5.0960   -8.3790  -45.4912 H         1 UNK         0.0600 
    128 H128       -3.9838   -7.3081  -44.6341 H         1 UNK         0.0600 
    129 H129       -4.7545   -8.6494  -43.7800 H         1 UNK         0.0600 
    130 H130       -4.0556   -9.8733  -46.7855 H         1 UNK         0.3000 
    131 H131       -1.2558  -10.4414  -46.5156 H         1 UNK         0.0600 
    132 H132       -2.0809  -10.2626  -48.7570 H         1 UNK         0.0800 
    133 H133       -1.6443  -11.9268  -48.5343 H         1 UNK         0.0800 
    134 H134       -4.5841  -12.6905  -50.8608 H         1 UNK         0.0800 
    135 H135       -2.9616  -12.0523  -50.8940 H         1 UNK         0.0800 
    136 H136       -1.1175  -13.5632  -50.5166 H         1 UNK         0.1150 
    137 H137       -1.8614  -17.5705  -49.1884 H         1 UNK         0.1150 
    138 H138       -5.0692  -14.7374  -49.3360 H         1 UNK         0.1150 
    139 H139       -5.5186  -17.1547  -49.1288 H         1 UNK         0.0800 
    140 H140       -4.2271  -18.3174  -49.0862 H         1 UNK         0.0800 
    141 H141       -2.9112  -17.8807  -45.3286 H         1 UNK         0.0800 
    142 H142       -2.2688  -17.6450  -46.9169 H         1 UNK         0.0800 
    143 H143       -3.4987  -19.8460  -47.5802 H         1 UNK         0.0600 
    144 H144       -0.9446  -19.5600  -46.4532 H         1 UNK         0.3000 
    145 H145        0.1010  -22.9701  -46.8705 H         1 UNK         0.0600 
    146 H146        1.9160  -21.7572  -48.0488 H         1 UNK         0.0600 
    147 H147        0.4593  -21.7955  -49.0329 H         1 UNK         0.0600 
    148 H148        0.9036  -20.3227  -48.1906 H         1 UNK         0.0600 
    149 H149        1.4441  -20.7338  -45.7414 H         1 UNK         0.3000 
    150 H150        0.2042  -21.1088  -42.3855 H         1 UNK         0.0600 
    151 H151        2.1113  -22.6984  -42.6071 H         1 UNK         0.0600 
    152 H152        2.6321  -21.1648  -41.9273 H         1 UNK         0.0600 
    153 H153        2.9748  -21.5444  -43.6140 H         1 UNK         0.0600 
    154 H154        2.0148  -19.2217  -43.4593 H         1 UNK         0.3000 
    155 H155       -0.4195  -16.8259  -44.5968 H         1 UNK         0.0600 
    156 H156       -0.0747  -16.4116  -42.1659 H         1 UNK         0.0600 
    157 H157        0.9870  -15.3981  -43.1335 H         1 UNK         0.0600 
    158 H158        1.6297  -16.8215  -42.3183 H         1 UNK         0.0600 
    159 H159        2.4269  -16.8164  -44.6868 H         1 UNK         0.3000 
    160 H160        2.7838  -18.4609  -47.8545 H         1 UNK         0.0600 
    161 H161        3.2676  -15.5875  -46.9080 H         1 UNK         0.0600 
    162 H162        2.4228  -16.0546  -48.3721 H         1 UNK         0.0600 
    163 H163        4.1325  -16.3916  -48.2155 H         1 UNK         0.0600 
    164 H164        4.5955  -17.3795  -45.8768 H         1 UNK         0.3000 
    165 H165        5.1740  -20.4064  -44.1295 H         1 UNK         0.0600 
    166 H166        7.5032  -19.9662  -44.8543 H         1 UNK         0.0600 
    167 H167        6.5722  -20.6318  -46.1864 H         1 UNK         0.0600 
    168 H168        6.9337  -18.9101  -46.1472 H         1 UNK         0.0600 
    169 H169        6.3634  -17.8004  -43.9993 H         1 UNK         0.3000 
    170 H170        4.0609  -16.4270  -41.6295 H         1 UNK         0.0600 
    171 H171        5.6402  -17.8592  -40.3216 H         1 UNK         0.0600 
    172 H172        6.9701  -17.3526  -41.3563 H         1 UNK         0.0600 
    173 H173        6.1470  -16.1782  -40.3293 H         1 UNK         0.0600 
    174 H174        6.4052  -15.2926  -42.6695 H         1 UNK         0.3000 
    175 H175        6.2545  -13.4747  -43.9407 H         1 UNK         0.0600 
    176 H176        5.4301  -14.7067  -46.6257 H         1 UNK         0.0600 
    177 H177        6.6858  -13.4995  -46.3739 H         1 UNK         0.0600 
    178 H178        6.8809  -15.1176  -45.7208 H         1 UNK         0.0600 
    179 H179        4.0764  -12.8469  -45.8008 H         1 UNK         0.3000 
    180 H180        2.4808  -10.5640  -43.5925 H         1 UNK         0.0600 
    181 H181        4.2718   -9.9485  -46.0015 H         1 UNK         0.0600 
    182 H182        4.4133   -9.2218  -44.4057 H         1 UNK         0.0600 
    183 H183        2.9816   -8.9205  -45.3766 H         1 UNK         0.0600 
    184 H184        2.2276  -11.2417  -46.4025 H         1 UNK         0.3000 
    185 H185        0.1613  -12.0078  -47.0405 H         1 UNK         0.0600 
    186 H186        0.0223  -14.4919  -47.5262 H         1 UNK         0.0600 
    187 H187        0.8789  -14.7840  -46.0160 H         1 UNK         0.0600 
    188 H188        1.6554  -13.8772  -47.3116 H         1 UNK         0.0600 
    189 H189       -1.2803  -13.8060  -45.1516 H         1 UNK         0.3000 
    190 H190       -2.4871  -20.1926  -44.1627 H         1 UNK         0.3000 
    191 H191       -4.9747  -20.8872  -43.0582 H         1 UNK         0.0600 
    192 H192       -2.1664  -21.7204  -42.1605 H         1 UNK         0.0600 
    193 H193       -2.9797  -20.2175  -41.7290 H         1 UNK         0.0600 
    194 H194       -3.6156  -21.7562  -41.1660 H         1 UNK         0.0600 
    195 H195       -2.5898  -22.9492  -44.6999 H         1 UNK         0.3000 
    196 H196       -3.9852  -25.4530  -44.2397 H         1 UNK         0.0600 
    197 H197       -1.5144  -25.3211  -44.5435 H         1 UNK         0.0600 
    198 H198       -1.7378  -24.7261  -46.1868 H         1 UNK         0.0600 
    199 H199       -2.2505  -26.3539  -45.7574 H         1 UNK         0.0600 
    200 H200       -5.8277  -23.6412  -45.1575 H         1 UNK         0.3000 
    201 H201       -7.4922  -23.2328  -46.5713 H         1 UNK         0.0600 
    202 H202       -8.5070  -25.2078  -47.6798 H         1 UNK         0.0600 
    203 H203       -7.9457  -25.6386  -46.0732 H         1 UNK         0.0600 
    204 H204       -7.0153  -26.1204  -47.4905 H         1 UNK         0.0600 
    205 H205       -5.2403  -22.0615  -47.4850 H         1 UNK         0.3000 
    206 H206       -4.1411  -21.1598  -49.1993 H         1 UNK         0.0600 
    207 H207       -6.6401  -21.7672  -50.8589 H         1 UNK         0.0600 
    208 H208       -5.3846  -20.6017  -51.2549 H         1 UNK         0.0600 
    209 H209       -6.3996  -20.3442  -49.8450 H         1 UNK         0.0600 
    210 H210       -3.0646  -23.3749  -48.6609 H         1 UNK         0.3000 
    211 H211       -1.8649  -25.1538  -49.1904 H         1 UNK         0.0600 
    212 H212       -0.6415  -23.4407  -50.5164 H         1 UNK         0.0600 
    213 H213       -0.5293  -25.0194  -51.2812 H         1 UNK         0.0600 
    214 H214       -1.6222  -23.8046  -51.9305 H         1 UNK         0.0600 
    215 H215       -4.3536  -25.8702  -49.0703 H         1 UNK         0.3000 
    216 H216       -5.9755  -27.2809  -49.5704 H         1 UNK         0.0600 
    217 H217       -5.4270  -29.4391  -50.6247 H         1 UNK         0.0600 
    218 H218       -3.9364  -28.7885  -51.2911 H         1 UNK         0.0600 
    219 H219       -4.1246  -28.9651  -49.5466 H         1 UNK         0.0600 
    220 H220       -6.0858  -24.9672  -50.9312 H         1 UNK         0.3000 
    221 H221       -6.9784  -23.7879  -52.5458 H         1 UNK         0.0600 
    222 H222       -9.1165  -24.6427  -53.4637 H         1 UNK         0.0600 
    223 H223       -8.6921  -26.2873  -53.0033 H         1 UNK         0.0600 
    224 H224       -8.9690  -25.0626  -51.7651 H         1 UNK         0.0600 
    225 H225       -4.5614  -24.5330  -53.4416 H         1 UNK         0.3000 
    226 H226       -4.9268  -24.7260  -56.3443 H         1 UNK         0.0600 
    227 H227       -4.7083  -27.1251  -55.6797 H         1 UNK         0.0600 
    228 H228       -3.2561  -26.5976  -56.5176 H         1 UNK         0.0600 
    229 H229       -3.2479  -26.7586  -54.7640 H         1 UNK         0.0600 
    230 H230       -3.2519  -23.8672  -57.4803 H         1 UNK         0.3000 
    231 H231       -1.5732  -22.5888  -58.0666 H         1 UNK         0.0600 
    232 H232        0.6239  -22.8955  -57.0182 H         1 UNK         0.0600 
    233 H233       -0.2044  -24.4386  -56.9922 H         1 UNK         0.0600 
    234 H234       -0.1016  -23.4695  -55.5240 H         1 UNK         0.0600 
    235 H235        0.1797  -20.8568  -57.0743 H         1 UNK         0.3000 
    236 H236       -1.3369  -18.5853  -56.1735 H         1 UNK         0.0600 
    237 H237        0.6658  -18.3475  -57.6237 H         1 UNK         0.0600 
    238 H238        0.9140  -17.4985  -56.1053 H         1 UNK         0.0600 
    239 H239        1.6898  -19.0545  -56.3732 H         1 UNK         0.0600 
    240 H240       -1.8016  -17.9950  -54.1392 H         1 UNK         0.3000 
    241 H241       -2.0612  -17.9631  -51.9630 H         1 UNK         0.0600 
    242 H242       -3.0289  -21.7130  -52.3214 H         1 UNK         0.3800 
    243 H243       -2.5438  -20.6711  -53.6291 H         1 UNK         0.3800 
    244 H244        0.7759  -19.0739  -51.6784 H         1 UNK         0.0800 
    245 H245       -0.1895  -18.5712  -50.3399 H         1 UNK         0.0800 
    246 H246        0.4533  -16.6106  -49.2449 H         1 UNK         0.0800 
    247 H247        0.7420  -15.0307  -49.9300 H         1 UNK         0.0800 
@<TRIPOS>BOND
     1    1    2 1    
     2    1  127 1    
     3    1  128 1    
     4    1  129 1    
     5    2    3 2    
     6    2    4 am   BACKBONE|DICT|INTERRES
     7    4    5 1    
     8    4  130 1    
     9    5    6 1    
    10    5   65 1    
    11    5  131 1    
    12    6    7 1    
    13    6  132 1    
    14    6  133 1    
    15    7    8 1    
    16    8    9 1    
    17    8  134 1    
    18    8  135 1    
    19    9   10 ar   
    20    9   14 ar   
    21   10   11 ar   
    22   10  136 1    
    23   11   12 ar   
    24   11  126 1    
    25   12   13 ar   
    26   12  137 1    
    27   13   14 ar   
    28   13   15 1    
    29   14  138 1    
    30   15   16 1    
    31   15  139 1    
    32   15  140 1    
    33   16   17 1    
    34   17   18 1    
    35   17  141 1    
    36   17  142 1    
    37   18   19 1    
    38   18   67 1    
    39   18  143 1    
    40   19   20 am   BACKBONE|DICT|INTERRES
    41   19  144 1    
    42   20   21 2    
    43   20   22 1    
    44   22   23 1    
    45   22   24 1    
    46   22  145 1    
    47   23  146 1    
    48   23  147 1    
    49   23  148 1    
    50   24   25 am   BACKBONE|DICT|INTERRES
    51   24  149 1    
    52   25   26 2    
    53   25   27 1    
    54   27   28 1    
    55   27   29 1    
    56   27  150 1    
    57   28  151 1    
    58   28  152 1    
    59   28  153 1    
    60   29   30 am   BACKBONE|DICT|INTERRES
    61   29  154 1    
    62   30   31 2    
    63   30   32 1    
    64   32   33 1    
    65   32   34 1    
    66   32  155 1    
    67   33  156 1    
    68   33  157 1    
    69   33  158 1    
    70   34   35 am   BACKBONE|DICT|INTERRES
    71   34  159 1    
    72   35   36 2    
    73   35   37 1    
    74   37   38 1    
    75   37   39 1    
    76   37  160 1    
    77   38  161 1    
    78   38  162 1    
    79   38  163 1    
    80   39   40 am   BACKBONE|DICT|INTERRES
    81   39  164 1    
    82   40   41 2    
    83   40   42 1    
    84   42   43 1    
    85   42   44 1    
    86   42  165 1    
    87   43  166 1    
    88   43  167 1    
    89   43  168 1    
    90   44   45 am   BACKBONE|DICT|INTERRES
    91   44  169 1    
    92   45   46 2    
    93   45   47 1    
    94   47   48 1    
    95   47   49 1    
    96   47  170 1    
    97   48  171 1    
    98   48  172 1    
    99   48  173 1    
   100   49   50 am   BACKBONE|DICT|INTERRES
   101   49  174 1    
   102   50   51 2    
   103   50   52 1    
   104   52   53 1    
   105   52   54 1    
   106   52  175 1    
   107   53  176 1    
   108   53  177 1    
   109   53  178 1    
   110   54   55 am   BACKBONE|DICT|INTERRES
   111   54  179 1    
   112   55   56 2    
   113   55   57 1    
   114   57   58 1    
   115   57   59 1    
   116   57  180 1    
   117   58  181 1    
   118   58  182 1    
   119   58  183 1    
   120   59   60 am   BACKBONE|DICT|INTERRES
   121   59  184 1    
   122   60   61 2    
   123   60   62 1    
   124   62   63 1    
   125   62   64 1    
   126   62  185 1    
   127   63  186 1    
   128   63  187 1    
   129   63  188 1    
   130   64   65 am   BACKBONE|DICT|INTERRES
   131   64  189 1    
   132   65   66 2    
   133   67   68 2    
   134   67   69 am   BACKBONE|DICT|INTERRES
   135   69   70 1    
   136   69  190 1    
   137   70   71 1    
   138   70   72 1    
   139   70  191 1    
   140   71  192 1    
   141   71  193 1    
   142   71  194 1    
   143   72   73 2    
   144   72   74 am   BACKBONE|DICT|INTERRES
   145   74   75 1    
   146   74  195 1    
   147   75   76 1    
   148   75   77 1    
   149   75  196 1    
   150   76  197 1    
   151   76  198 1    
   152   76  199 1    
   153   77   78 2    
   154   77   79 am   BACKBONE|DICT|INTERRES
   155   79   80 1    
   156   79  200 1    
   157   80   81 1    
   158   80   82 1    
   159   80  201 1    
   160   81  202 1    
   161   81  203 1    
   162   81  204 1    
   163   82   83 2    
   164   82   84 am   BACKBONE|DICT|INTERRES
   165   84   85 1    
   166   84  205 1    
   167   85   86 1    
   168   85   87 1    
   169   85  206 1    
   170   86  207 1    
   171   86  208 1    
   172   86  209 1    
   173   87   88 2    
   174   87   89 am   BACKBONE|DICT|INTERRES
   175   89   90 1    
   176   89  210 1    
   177   90   91 1    
   178   90   92 1    
   179   90  211 1    
   180   91  212 1    
   181   91  213 1    
   182   91  214 1    
   183   92   93 2    
   184   92   94 am   BACKBONE|DICT|INTERRES
   185   94   95 1    
   186   94  215 1    
   187   95   96 1    
   188   95   97 1    
   189   95  216 1    
   190   96  217 1    
   191   96  218 1    
   192   96  219 1    
   193   97   98 2    
   194   97   99 am   BACKBONE|DICT|INTERRES
   195   99  100 1    
   196   99  220 1    
   197  100  101 1    
   198  100  102 1    
   199  100  221 1    
   200  101  222 1    
   201  101  223 1    
   202  101  224 1    
   203  102  103 2    
   204  102  104 am   BACKBONE|DICT|INTERRES
   205  104  105 1    
   206  104  225 1    
   207  105  106 1    
   208  105  107 1    
   209  105  226 1    
   210  106  227 1    
   211  106  228 1    
   212  106  229 1    
   213  107  108 2    
   214  107  109 am   BACKBONE|DICT|INTERRES
   215  109  110 1    
   216  109  230 1    
   217  110  111 1    
   218  110  112 1    
   219  110  231 1    
   220  111  232 1    
   221  111  233 1    
   222  111  234 1    
   223  112  113 2    
   224  112  114 am   BACKBONE|DICT|INTERRES
   225  114  115 1    
   226  114  235 1    
   227  115  116 1    
   228  115  117 1    
   229  115  236 1    
   230  116  237 1    
   231  116  238 1    
   232  116  239 1    
   233  117  118 2    
   234  117  119 am   BACKBONE|DICT|INTERRES
   235  119  120 1    
   236  119  240 1    
   237  120  121 1    
   238  120  124 1    
   239  120  241 1    
   240  121  122 am   BACKBONE|DICT|INTERRES
   241  121  123 2    
   242  122  242 1    
   243  122  243 1    
   244  124  125 1    
   245  124  244 1    
   246  124  245 1    
   247  125  126 1    
   248  126  246 1    
   249  126  247 1    
@<TRIPOS>SUBSTRUCTURE
     1 UNK         1 GROUP             0       ****    0 ROOT    
