@<TRIPOS>MOLECULE
3R540
247   249    1
SMALL
USER_CHARGES


@<TRIPOS>ATOM
      1 CA          1.5642  -10.1357  -48.8703 C.3       0 UNK        -0.1800 
      2 C           0.5154  -10.0439  -47.7712 C.2       0 UNK         0.5000 
      3 O          -0.2359   -9.0703  -47.7232 O.2       0 UNK        -0.5000 
      4 N           0.4750  -11.0521  -46.8891 N.am      1 UNK        -0.5000 
      5 CA         -0.4588  -11.1993  -45.7603 C.3       1 UNK         0.1400 
      6 C6         -1.9438  -11.3548  -46.1990 C.3       23 UNK        -0.0398 
      7 S7         -2.2266  -12.7576  -47.3353 S.3       23 UNK        -0.2404 
      8 C8         -2.8189  -14.0228  -46.1604 C.3       23 UNK        -0.0205 
      9 C9         -3.2739  -15.3397  -46.7902 C.ar      23 UNK        -0.0193 
     10 C10        -2.7337  -15.8322  -47.9861 C.ar      23 UNK        -0.1150 
     11 C11        -3.1270  -17.0761  -48.4897 C.ar      23 UNK        -0.0193 
     12 C12        -4.0678  -17.8350  -47.7904 C.ar      23 UNK        -0.1150 
     13 C13        -4.6245  -17.3540  -46.6029 C.ar      23 UNK        -0.0193 
     14 C14        -4.2289  -16.1059  -46.1147 C.ar      23 UNK        -0.1150 
     15 C15        -5.6306  -18.1985  -45.8329 C.3       23 UNK        -0.0205 
     16 S16        -5.0327  -18.7085  -44.1828 S.3       23 UNK        -0.2404 
     17 C17        -3.2991  -19.1955  -44.4915 C.3       23 UNK        -0.0398 
     18 CA         -3.1484  -20.4585  -45.3738 C.3       11 UNK         0.1400 
     19 N          -1.8586  -20.4873  -46.0694 N.am      11 UNK        -0.5000 
     20 C          -1.4952  -21.3845  -46.9950 C.2       10 UNK         0.5000 
     21 O          -2.2363  -22.2743  -47.4050 O.2       10 UNK        -0.5000 
     22 CA         -0.0469  -21.3222  -47.5111 C.3       10 UNK         0.1400 
     23 CB          0.0979  -20.2834  -48.6323 C.3       10 UNK        -0.1800 
     24 N           0.9118  -21.0520  -46.4392 N.am      10 UNK        -0.5000 
     25 C           1.1384  -21.8840  -45.4113 C.2       9 UNK         0.5000 
     26 O           0.6198  -22.9960  -45.3094 O.2       9 UNK        -0.5000 
     27 CA          2.0519  -21.3702  -44.2833 C.3       9 UNK         0.1400 
     28 CB          3.5316  -21.5505  -44.6520 C.3       9 UNK        -0.1800 
     29 N           1.7925  -19.9701  -43.9425 N.am      9 UNK        -0.5000 
     30 C           0.6388  -19.5121  -43.4347 C.2       8 UNK         0.5000 
     31 O          -0.3121  -20.2376  -43.1409 O.2       8 UNK        -0.5000 
     32 CA          0.5006  -17.9839  -43.2872 C.3       8 UNK         0.1400 
     33 CB          1.1921  -17.4849  -42.0103 C.3       8 UNK        -0.1800 
     34 N           1.0240  -17.2596  -44.4467 N.am      8 UNK        -0.5000 
     35 C           0.5331  -17.3650  -45.6897 C.2       7 UNK         0.5000 
     36 O          -0.4520  -18.0397  -45.9773 O.2       7 UNK        -0.5000 
     37 CA          1.3095  -16.6528  -46.8077 C.3       7 UNK         0.1400 
     38 CB          0.9202  -15.1699  -46.8895 C.3       7 UNK        -0.1800 
     39 N           2.7536  -16.7839  -46.6152 N.am      7 UNK        -0.5000 
     40 C           3.4359  -17.9227  -46.8046 C.2       6 UNK         0.5000 
     41 O           2.9203  -18.9653  -47.2071 O.2       6 UNK        -0.5000 
     42 CA          4.9361  -17.9058  -46.4526 C.3       6 UNK         0.1400 
     43 CB          5.7637  -17.4054  -47.6455 C.3       6 UNK        -0.1800 
     44 N           5.2357  -17.0847  -45.2781 N.am      6 UNK        -0.5000 
     45 C           4.8443  -17.3768  -44.0295 C.2       5 UNK         0.5000 
     46 O           4.2365  -18.4038  -43.7304 O.2       5 UNK        -0.5000 
     47 CA          5.1281  -16.3182  -42.9432 C.3       5 UNK         0.1400 
     48 CB          6.5055  -16.5563  -42.3072 C.3       5 UNK        -0.1800 
     49 N           5.0469  -14.9327  -43.4236 N.am      5 UNK        -0.5000 
     50 C           3.9688  -14.3891  -44.0044 C.2       4 UNK         0.5000 
     51 O           2.9239  -15.0110  -44.2002 O.2       4 UNK        -0.5000 
     52 CA          4.1040  -12.9272  -44.4732 C.3       4 UNK         0.1400 
     53 CB          3.3555  -12.6720  -45.7945 C.3       4 UNK        -0.1800 
     54 N           3.6908  -11.9536  -43.4589 N.am      4 UNK        -0.5000 
     55 C           2.5066  -11.8460  -42.8326 C.2       3 UNK         0.5000 
     56 O           1.5443  -12.5897  -43.0136 O.2       3 UNK        -0.5000 
     57 CA          2.3500  -10.6480  -41.8783 C.3       3 UNK         0.1400 
     58 CB          2.8302  -11.0258  -40.4688 C.3       3 UNK        -0.1800 
     59 N           3.1137   -9.4865  -42.3490 N.am      3 UNK        -0.5000 
     60 C           2.7193   -8.5243  -43.1980 C.2       2 UNK         0.5000 
     61 O           3.5266   -7.6990  -43.6237 O.2       2 UNK        -0.5000 
     62 CA          1.2458   -8.4371  -43.6517 C.3       2 UNK         0.1400 
     63 CB          0.9052   -7.0892  -44.3190 C.3       2 UNK        -0.1800 
     64 N           0.9231   -9.5205  -44.5783 N.am      2 UNK        -0.5000 
     65 C          -0.2806  -10.1031  -44.6778 C.2       1 UNK         0.5000 
     66 O          -1.2279   -9.8068  -43.9471 O.2       1 UNK        -0.5000 
     67 C          -3.4038  -21.7465  -44.5664 C.2       11 UNK         0.5000 
     68 O          -4.4857  -22.3245  -44.6734 O.2       11 UNK        -0.5000 
     69 N          -2.3848  -22.2113  -43.8288 N.am      12 UNK        -0.5000 
     70 CA         -2.4050  -23.4704  -43.0780 C.3       12 UNK         0.1400 
     71 CB         -1.1334  -23.5722  -42.2226 C.3       12 UNK        -0.1800 
     72 C          -2.5654  -24.7152  -43.9759 C.2       12 UNK         0.5000 
     73 O          -3.1839  -25.6928  -43.5547 O.2       12 UNK        -0.5000 
     74 N          -2.0438  -24.6394  -45.2070 N.am      13 UNK        -0.5000 
     75 CA         -2.1969  -25.6471  -46.2576 C.3       13 UNK         0.1400 
     76 CB         -0.9640  -25.5826  -47.1753 C.3       13 UNK        -0.1800 
     77 C          -3.4951  -25.4824  -47.0788 C.2       13 UNK         0.5000 
     78 O          -3.7022  -26.2476  -48.0220 O.2       13 UNK        -0.5000 
     79 N          -4.3247  -24.4781  -46.7532 N.am      14 UNK        -0.5000 
     80 CA         -5.5581  -24.0822  -47.4438 C.3       14 UNK         0.1400 
     81 CB         -6.6491  -25.1588  -47.2670 C.3       14 UNK        -0.1800 
     82 C          -5.3162  -23.7055  -48.9209 C.2       14 UNK         0.5000 
     83 O          -6.0784  -24.1132  -49.7976 O.2       14 UNK        -0.5000 
     84 N          -4.2209  -22.9734  -49.1713 N.am      15 UNK        -0.5000 
     85 CA         -3.6809  -22.5944  -50.4809 C.3       15 UNK         0.1400 
     86 CB         -4.6191  -21.6052  -51.1976 C.3       15 UNK        -0.1800 
     87 C          -3.3105  -23.8275  -51.3314 C.2       15 UNK         0.5000 
     88 O          -3.5931  -23.8668  -52.5320 O.2       15 UNK        -0.5000 
     89 N          -2.7096  -24.8209  -50.6570 N.am      16 UNK        -0.5000 
     90 CA         -2.3770  -26.1667  -51.1343 C.3       16 UNK         0.1400 
     91 CB         -1.2858  -26.1118  -52.2222 C.3       16 UNK        -0.1800 
     92 C          -3.6392  -26.9296  -51.5793 C.2       16 UNK         0.5000 
     93 O          -3.6970  -27.4259  -52.7033 O.2       16 UNK        -0.5000 
     94 N          -4.6573  -26.9446  -50.7058 N.am      17 UNK        -0.5000 
     95 CA         -6.0187  -27.4410  -50.9546 C.3       17 UNK         0.1400 
     96 CB         -6.0262  -28.9816  -51.0264 C.3       17 UNK        -0.1800 
     97 C          -6.6689  -26.7726  -52.1889 C.2       17 UNK         0.5000 
     98 O          -7.2669  -27.4479  -53.0282 O.2       17 UNK        -0.5000 
     99 N          -6.4813  -25.4493  -52.2828 N.am      18 UNK        -0.5000 
    100 CA        -6.8604  -24.5374  -53.3646 C.3       18 UNK         0.1400 
    101 CB        -8.3934  -24.4853  -53.5238 C.3       18 UNK        -0.1800 
    102 C         -6.1418  -24.7715  -54.7132 C.2       18 UNK         0.5000 
    103 O         -6.5031  -24.1168  -55.6923 O.2       18 UNK        -0.5000 
    104 N         -5.1393  -25.6622  -54.7692 N.am      19 UNK        -0.5000 
    105 CA        -4.3981  -25.9700  -55.9949 C.3       19 UNK         0.1400 
    106 CB        -3.7148  -27.3396  -55.8698 C.3       19 UNK        -0.1800 
    107 C         -3.3658  -24.8886  -56.3573 C.2       19 UNK         0.5000 
    108 O         -3.1405  -24.6532  -57.5454 O.2       19 UNK        -0.5000 
    109 N         -2.7587  -24.2508  -55.3457 N.am      20 UNK        -0.5000 
    110 CA        -1.8097  -23.1518  -55.5377 C.3       20 UNK         0.1400 
    111 CB        -0.7919  -23.1244  -54.3866 C.3       20 UNK        -0.1800 
    112 C         -2.5309  -21.8004  -55.6514 C.2       20 UNK         0.5000 
    113 O         -2.0387  -20.9121  -56.3483 O.2       20 UNK        -0.5000 
    114 N         -3.6721  -21.6661  -54.9552 N.am      21 UNK        -0.5000 
    115 CA        -4.5772  -20.5066  -54.9509 C.3       21 UNK         0.1400 
    116 CB        -5.3238  -20.4180  -56.2973 C.3       21 UNK        -0.1800 
    117 C         -3.8867  -19.1773  -54.5624 C.2       21 UNK         0.5000 
    118 O         -4.2641  -18.1159  -55.0614 O.2       21 UNK        -0.5000 
    119 N         -2.8691  -19.2764  -53.6952 N.am      22 UNK        -0.5000 
    120 CA        -1.9633  -18.1951  -53.2664 C.3       22 UNK         0.1400 
    121 C         -0.9804  -17.6968  -54.3724 C.2       22 UNK         0.5000 
    122 N         -0.8298  -18.3829  -55.4997 N.am      22 UNK        -0.7600 
    123 O         -0.3100  -16.6832  -54.1953 O.2       22 UNK        -0.5000 
    124 C124       -2.6801  -17.0170  -52.5448 C.3       23 UNK        -0.0398 
    125 S125       -3.7299  -17.5394  -51.1454 S.3       23 UNK        -0.2404 
    126 C126       -2.5267  -17.6100  -49.7805 C.3       23 UNK        -0.0205 
    127 H127        2.2344   -9.2774  -48.8218 H         1 UNK         0.0600 
    128 H128        1.0826  -10.1391  -49.8482 H         1 UNK         0.0600 
    129 H129        2.1652  -11.0415  -48.7843 H         1 UNK         0.0600 
    130 H130        1.1140  -11.8232  -47.0129 H         1 UNK         0.3000 
    131 H131       -0.1748  -12.1292  -45.2651 H         1 UNK         0.0600 
    132 H132       -2.5916  -11.4823  -45.3304 H         1 UNK         0.0800 
    133 H133       -2.2919  -10.4461  -46.6916 H         1 UNK         0.0800 
    134 H134       -2.0230  -14.2405  -45.4467 H         1 UNK         0.0800 
    135 H135       -3.6445  -13.5963  -45.5884 H         1 UNK         0.0800 
    136 H136       -1.9963  -15.2574  -48.5262 H         1 UNK         0.1150 
    137 H137       -4.3630  -18.8010  -48.1755 H         1 UNK         0.1150 
    138 H138       -4.6475  -15.7462  -45.1850 H         1 UNK         0.1150 
    139 H139       -6.5532  -17.6293  -45.7116 H         1 UNK         0.0800 
    140 H140       -5.9002  -19.0902  -46.4007 H         1 UNK         0.0800 
    141 H141       -2.8025  -19.3252  -43.5289 H         1 UNK         0.0800 
    142 H142       -2.7948  -18.3468  -44.9512 H         1 UNK         0.0800 
    143 H143       -3.9026  -20.4232  -46.1613 H         1 UNK         0.0600 
    144 H144       -1.2112  -19.7338  -45.8503 H         1 UNK         0.3000 
    145 H145        0.1952  -22.3006  -47.9309 H         1 UNK         0.0600 
    146 H146        1.1147  -20.2669  -49.0248 H         1 UNK         0.0600 
    147 H147       -0.5674  -20.5158  -49.4646 H         1 UNK         0.0600 
    148 H148       -0.1432  -19.2781  -48.2889 H         1 UNK         0.0600 
    149 H149        1.4173  -20.1740  -46.4857 H         1 UNK         0.3000 
    150 H150        1.8490  -21.9711  -43.3945 H         1 UNK         0.0600 
    151 H151        3.7512  -22.5929  -44.8861 H         1 UNK         0.0600 
    152 H152        4.1813  -21.2585  -43.8268 H         1 UNK         0.0600 
    153 H153        3.8068  -20.9535  -45.5214 H         1 UNK         0.0600 
    154 H154        2.5548  -19.3160  -44.0937 H         1 UNK         0.3000 
    155 H155       -0.5637  -17.7531  -43.2077 H         1 UNK         0.0600 
    156 H156        0.7619  -17.9568  -41.1262 H         1 UNK         0.0600 
    157 H157        1.0770  -16.4068  -41.8946 H         1 UNK         0.0600 
    158 H158        2.2584  -17.7089  -42.0140 H         1 UNK         0.0600 
    159 H159        1.8109  -16.6365  -44.2906 H         1 UNK         0.3000 
    160 H160        1.0468  -17.1222  -47.7581 H         1 UNK         0.0600 
    161 H161        1.0120  -14.6719  -45.9254 H         1 UNK         0.0600 
    162 H162       -0.1168  -15.0637  -47.2000 H         1 UNK         0.0600 
    163 H163        1.5321  -14.6333  -47.6144 H         1 UNK         0.0600 
    164 H164        3.2233  -15.9968  -46.1910 H         1 UNK         0.3000 
    165 H165        5.2378  -18.9326  -46.2351 H         1 UNK         0.0600 
    166 H166        6.8320  -17.4614  -47.4356 H         1 UNK         0.0600 
    167 H167        5.5758  -18.0126  -48.5322 H         1 UNK         0.0600 
    168 H168        5.5240  -16.3719  -47.8985 H         1 UNK         0.0600 
    169 H169        5.7358  -16.2227  -45.4370 H         1 UNK         0.3000 
    170 H170        4.3705  -16.4382  -42.1665 H         1 UNK         0.0600 
    171 H171        6.5866  -17.5733  -41.9209 H         1 UNK         0.0600 
    172 H172        7.3121  -16.4133  -43.0273 H         1 UNK         0.0600 
    173 H173        6.6768  -15.8785  -41.4707 H         1 UNK         0.0600 
    174 H174        5.8703  -14.3634  -43.2899 H         1 UNK         0.3000 
    175 H175        5.1623  -12.7442  -44.6658 H         1 UNK         0.0600 
    176 H176        2.2799  -12.7728  -45.6661 H         1 UNK         0.0600 
    177 H177        3.5561  -11.6695  -46.1724 H         1 UNK         0.0600 
    178 H178        3.6647  -13.3793  -46.5649 H         1 UNK         0.0600 
    179 H179        4.3970  -11.2740  -43.2172 H         1 UNK         0.3000 
    180 H180        1.2885  -10.4089  -41.8080 H         1 UNK         0.0600 
    181 H181        3.8887  -11.2889  -40.4566 H         1 UNK         0.0600 
    182 H182        2.2748  -11.8824  -40.0843 H         1 UNK         0.0600 
    183 H183        2.6814  -10.2032  -39.7691 H         1 UNK         0.0600 
    184 H184        4.0729   -9.4546  -42.0377 H         1 UNK         0.3000 
    185 H185        0.6319   -8.5095  -42.7524 H         1 UNK         0.0600 
    186 H186        1.1575   -6.2525  -43.6664 H         1 UNK         0.0600 
    187 H187        1.4477   -6.9550  -45.2557 H         1 UNK         0.0600 
    188 H188       -0.1599   -7.0167  -44.5397 H         1 UNK         0.0600 
    189 H189        1.6618   -9.8126  -45.2024 H         1 UNK         0.3000 
    190 H190       -1.5373  -21.6541  -43.7633 H         1 UNK         0.3000 
    191 H191       -3.2646  -23.4389  -42.4054 H         1 UNK         0.0600 
    192 H192       -0.2344  -23.6036  -42.8381 H         1 UNK         0.0600 
    193 H193       -1.0445  -22.7226  -41.5451 H         1 UNK         0.0600 
    194 H194       -1.1449  -24.4761  -41.6124 H         1 UNK         0.0600 
    195 H195       -1.5181  -23.8099  -45.4546 H         1 UNK         0.3000 
    196 H196       -2.2269  -26.6384  -45.8014 H         1 UNK         0.0600 
    197 H197       -0.0429  -25.7068  -46.6055 H         1 UNK         0.0600 
    198 H198       -0.9020  -24.6308  -47.7029 H         1 UNK         0.0600 
    199 H199       -0.9882  -26.3743  -47.9248 H         1 UNK         0.0600 
    200 H200       -4.0653  -23.8817  -45.9758 H         1 UNK         0.3000 
    201 H201       -5.9082  -23.1732  -46.9531 H         1 UNK         0.0600 
    202 H202       -7.6001  -24.8237  -47.6824 H         1 UNK         0.0600 
    203 H203       -6.8161  -25.3784  -46.2125 H         1 UNK         0.0600 
    204 H204       -6.3857  -26.0919  -47.7653 H         1 UNK         0.0600 
    205 H205       -3.6229  -22.7260  -48.3825 H         1 UNK         0.3000 
    206 H206       -2.7439  -22.0712  -50.2856 H         1 UNK         0.0600 
    207 H207       -4.8207  -20.7340  -50.5741 H         1 UNK         0.0600 
    208 H208       -5.5746  -22.0592  -51.4572 H         1 UNK         0.0600 
    209 H209       -4.1645  -21.2428  -52.1164 H         1 UNK         0.0600 
    210 H210       -2.5804  -24.6816  -49.6655 H         1 UNK         0.3000 
    211 H211       -1.9685  -26.7104  -50.2816 H         1 UNK         0.0600 
    212 H212       -0.4222  -25.5363  -51.8893 H         1 UNK         0.0600 
    213 H213       -0.9350  -27.1142  -52.4696 H         1 UNK         0.0600 
    214 H214       -1.6548  -25.6635  -53.1432 H         1 UNK         0.0600 
    215 H215       -4.4953  -26.5345  -49.7899 H         1 UNK         0.3000 
    216 H216       -6.6187  -27.1443  -50.0933 H         1 UNK         0.0600 
    217 H217       -7.0447  -29.3641  -51.1016 H         1 UNK         0.0600 
    218 H218       -5.4734  -29.3496  -51.8913 H         1 UNK         0.0600 
    219 H219       -5.5808  -29.4189  -50.1329 H         1 UNK         0.0600 
    220 H220       -6.0303  -24.9966  -51.4916 H         1 UNK         0.3000 
    221 H221       -6.5368  -23.5503  -53.0347 H         1 UNK         0.0600 
    222 H222       -8.7921  -25.4200  -53.9188 H         1 UNK         0.0600 
    223 H223       -8.8818  -24.2876  -52.5695 H         1 UNK         0.0600 
    224 H224       -8.6907  -23.6901  -54.2082 H         1 UNK         0.0600 
    225 H225       -4.8658  -26.1638  -53.9314 H         1 UNK         0.3000 
    226 H226       -5.1137  -26.0359  -56.8174 H         1 UNK         0.0600 
    227 H227       -4.4182  -28.1082  -55.5486 H         1 UNK         0.0600 
    228 H228       -3.3025  -27.6542  -56.8291 H         1 UNK         0.0600 
    229 H229       -2.8900  -27.3164  -55.1572 H         1 UNK         0.0600 
    230 H230       -3.0315  -24.4602  -54.3907 H         1 UNK         0.3000 
    231 H231       -1.2527  -23.3087  -56.4640 H         1 UNK         0.0600 
    232 H232       -0.0650  -22.3240  -54.5311 H         1 UNK         0.0600 
    233 H233       -0.2337  -24.0589  -54.3333 H         1 UNK         0.0600 
    234 H234       -1.2677  -22.9596  -53.4208 H         1 UNK         0.0600 
    235 H235       -3.9584  -22.4514  -54.3853 H         1 UNK         0.3000 
    236 H236       -5.3224  -20.6986  -54.1780 H         1 UNK         0.0600 
    237 H237       -5.8163  -21.3610  -56.5359 H         1 UNK         0.0600 
    238 H238       -6.0963  -19.6487  -56.2697 H         1 UNK         0.0600 
    239 H239       -4.6478  -20.1761  -57.1180 H         1 UNK         0.0600 
    240 H240       -2.6268  -20.1978  -53.3655 H         1 UNK         0.3000 
    241 H241       -1.3105  -18.6596  -52.5267 H         1 UNK         0.0600 
    242 H242       -0.1810  -18.0467  -56.1933 H         1 UNK         0.3800 
    243 H243       -1.3598  -19.2291  -55.6866 H         1 UNK         0.3800 
    244 H244       -1.9560  -16.2874  -52.1796 H         1 UNK         0.0800 
    245 H245       -3.3090  -16.4706  -53.2484 H         1 UNK         0.0800 
    246 H246       -2.2189  -18.6460  -49.6379 H         1 UNK         0.0800 
    247 H247       -1.6225  -17.0543  -50.0315 H         1 UNK         0.0800 
@<TRIPOS>BOND
     1    1    2 1    
     2    1  127 1    
     3    1  128 1    
     4    1  129 1    
     5    2    3 2    
     6    2    4 am   BACKBONE|DICT|INTERRES
     7    4    5 1    
     8    4  130 1    
     9    5    6 1    
    10    5   65 1    
    11    5  131 1    
    12    6    7 1    
    13    6  132 1    
    14    6  133 1    
    15    7    8 1    
    16    8    9 1    
    17    8  134 1    
    18    8  135 1    
    19    9   10 ar   
    20    9   14 ar   
    21   10   11 ar   
    22   10  136 1    
    23   11   12 ar   
    24   11  126 1    
    25   12   13 ar   
    26   12  137 1    
    27   13   14 ar   
    28   13   15 1    
    29   14  138 1    
    30   15   16 1    
    31   15  139 1    
    32   15  140 1    
    33   16   17 1    
    34   17   18 1    
    35   17  141 1    
    36   17  142 1    
    37   18   19 1    
    38   18   67 1    
    39   18  143 1    
    40   19   20 am   BACKBONE|DICT|INTERRES
    41   19  144 1    
    42   20   21 2    
    43   20   22 1    
    44   22   23 1    
    45   22   24 1    
    46   22  145 1    
    47   23  146 1    
    48   23  147 1    
    49   23  148 1    
    50   24   25 am   BACKBONE|DICT|INTERRES
    51   24  149 1    
    52   25   26 2    
    53   25   27 1    
    54   27   28 1    
    55   27   29 1    
    56   27  150 1    
    57   28  151 1    
    58   28  152 1    
    59   28  153 1    
    60   29   30 am   BACKBONE|DICT|INTERRES
    61   29  154 1    
    62   30   31 2    
    63   30   32 1    
    64   32   33 1    
    65   32   34 1    
    66   32  155 1    
    67   33  156 1    
    68   33  157 1    
    69   33  158 1    
    70   34   35 am   BACKBONE|DICT|INTERRES
    71   34  159 1    
    72   35   36 2    
    73   35   37 1    
    74   37   38 1    
    75   37   39 1    
    76   37  160 1    
    77   38  161 1    
    78   38  162 1    
    79   38  163 1    
    80   39   40 am   BACKBONE|DICT|INTERRES
    81   39  164 1    
    82   40   41 2    
    83   40   42 1    
    84   42   43 1    
    85   42   44 1    
    86   42  165 1    
    87   43  166 1    
    88   43  167 1    
    89   43  168 1    
    90   44   45 am   BACKBONE|DICT|INTERRES
    91   44  169 1    
    92   45   46 2    
    93   45   47 1    
    94   47   48 1    
    95   47   49 1    
    96   47  170 1    
    97   48  171 1    
    98   48  172 1    
    99   48  173 1    
   100   49   50 am   BACKBONE|DICT|INTERRES
   101   49  174 1    
   102   50   51 2    
   103   50   52 1    
   104   52   53 1    
   105   52   54 1    
   106   52  175 1    
   107   53  176 1    
   108   53  177 1    
   109   53  178 1    
   110   54   55 am   BACKBONE|DICT|INTERRES
   111   54  179 1    
   112   55   56 2    
   113   55   57 1    
   114   57   58 1    
   115   57   59 1    
   116   57  180 1    
   117   58  181 1    
   118   58  182 1    
   119   58  183 1    
   120   59   60 am   BACKBONE|DICT|INTERRES
   121   59  184 1    
   122   60   61 2    
   123   60   62 1    
   124   62   63 1    
   125   62   64 1    
   126   62  185 1    
   127   63  186 1    
   128   63  187 1    
   129   63  188 1    
   130   64   65 am   BACKBONE|DICT|INTERRES
   131   64  189 1    
   132   65   66 2    
   133   67   68 2    
   134   67   69 am   BACKBONE|DICT|INTERRES
   135   69   70 1    
   136   69  190 1    
   137   70   71 1    
   138   70   72 1    
   139   70  191 1    
   140   71  192 1    
   141   71  193 1    
   142   71  194 1    
   143   72   73 2    
   144   72   74 am   BACKBONE|DICT|INTERRES
   145   74   75 1    
   146   74  195 1    
   147   75   76 1    
   148   75   77 1    
   149   75  196 1    
   150   76  197 1    
   151   76  198 1    
   152   76  199 1    
   153   77   78 2    
   154   77   79 am   BACKBONE|DICT|INTERRES
   155   79   80 1    
   156   79  200 1    
   157   80   81 1    
   158   80   82 1    
   159   80  201 1    
   160   81  202 1    
   161   81  203 1    
   162   81  204 1    
   163   82   83 2    
   164   82   84 am   BACKBONE|DICT|INTERRES
   165   84   85 1    
   166   84  205 1    
   167   85   86 1    
   168   85   87 1    
   169   85  206 1    
   170   86  207 1    
   171   86  208 1    
   172   86  209 1    
   173   87   88 2    
   174   87   89 am   BACKBONE|DICT|INTERRES
   175   89   90 1    
   176   89  210 1    
   177   90   91 1    
   178   90   92 1    
   179   90  211 1    
   180   91  212 1    
   181   91  213 1    
   182   91  214 1    
   183   92   93 2    
   184   92   94 am   BACKBONE|DICT|INTERRES
   185   94   95 1    
   186   94  215 1    
   187   95   96 1    
   188   95   97 1    
   189   95  216 1    
   190   96  217 1    
   191   96  218 1    
   192   96  219 1    
   193   97   98 2    
   194   97   99 am   BACKBONE|DICT|INTERRES
   195   99  100 1    
   196   99  220 1    
   197  100  101 1    
   198  100  102 1    
   199  100  221 1    
   200  101  222 1    
   201  101  223 1    
   202  101  224 1    
   203  102  103 2    
   204  102  104 am   BACKBONE|DICT|INTERRES
   205  104  105 1    
   206  104  225 1    
   207  105  106 1    
   208  105  107 1    
   209  105  226 1    
   210  106  227 1    
   211  106  228 1    
   212  106  229 1    
   213  107  108 2    
   214  107  109 am   BACKBONE|DICT|INTERRES
   215  109  110 1    
   216  109  230 1    
   217  110  111 1    
   218  110  112 1    
   219  110  231 1    
   220  111  232 1    
   221  111  233 1    
   222  111  234 1    
   223  112  113 2    
   224  112  114 am   BACKBONE|DICT|INTERRES
   225  114  115 1    
   226  114  235 1    
   227  115  116 1    
   228  115  117 1    
   229  115  236 1    
   230  116  237 1    
   231  116  238 1    
   232  116  239 1    
   233  117  118 2    
   234  117  119 am   BACKBONE|DICT|INTERRES
   235  119  120 1    
   236  119  240 1    
   237  120  121 1    
   238  120  124 1    
   239  120  241 1    
   240  121  122 am   BACKBONE|DICT|INTERRES
   241  121  123 2    
   242  122  242 1    
   243  122  243 1    
   244  124  125 1    
   245  124  244 1    
   246  124  245 1    
   247  125  126 1    
   248  126  246 1    
   249  126  247 1    
@<TRIPOS>SUBSTRUCTURE
     1 UNK         1 GROUP             0       ****    0 ROOT    
