@<TRIPOS>MOLECULE
3R540
247   249    1
SMALL
USER_CHARGES


@<TRIPOS>ATOM
      1 CA          7.3543  -12.9204  -48.9761 C.3       0 UNK        -0.1800 
      2 C           6.2120  -12.4786  -48.0721 C.2       0 UNK         0.5000 
      3 O           5.7724  -11.3328  -48.1630 O.2       0 UNK        -0.5000 
      4 N           5.7350  -13.3874  -47.2106 N.am      1 UNK        -0.5000 
      5 CA          4.6438  -13.1964  -46.2475 C.3       1 UNK         0.1400 
      6 C6          3.2514  -13.0021  -46.9083 C.3       23 UNK        -0.0398 
      7 S7          2.5798  -14.5843  -47.4994 S.3       23 UNK        -0.2404 
      8 C8          2.7418  -14.4320  -49.2974 C.3       23 UNK        -0.0205 
      9 C9          2.2481  -15.7001  -49.9735 C.ar      23 UNK        -0.0193 
     10 C10         0.9996  -15.7346  -50.6028 C.ar      23 UNK        -0.1150 
     11 C11         0.5548  -16.9008  -51.2348 C.ar      23 UNK        -0.0193 
     12 C12         1.3761  -18.0323  -51.2326 C.ar      23 UNK        -0.1150 
     13 C13         2.6021  -18.0280  -50.5613 C.ar      23 UNK        -0.0193 
     14 C14         3.0395  -16.8514  -49.9496 C.ar      23 UNK        -0.1150 
     15 C15         3.4571  -19.2883  -50.4842 C.3       23 UNK        -0.0205 
     16 S16         2.5120  -20.7800  -50.0197 S.3       23 UNK        -0.2404 
     17 C17         1.7091  -20.2561  -48.4640 C.3       23 UNK        -0.0398 
     18 CA          1.1592  -21.4514  -47.6481 C.3       11 UNK         0.1400 
     19 N           0.8476  -21.0753  -46.2682 N.am      11 UNK        -0.5000 
     20 C           0.6064  -21.9478  -45.2794 C.2       10 UNK         0.5000 
     21 O           0.7217  -23.1676  -45.3993 O.2       10 UNK        -0.5000 
     22 CA          0.1161  -21.3649  -43.9403 C.3       10 UNK         0.1400 
     23 CB          1.3009  -20.9266  -43.0669 C.3       10 UNK        -0.1800 
     24 N          -0.8159  -20.2478  -44.1123 N.am      10 UNK        -0.5000 
     25 C          -2.0206  -20.3560  -44.6923 C.2       9 UNK         0.5000 
     26 O          -2.4858  -21.4178  -45.1039 O.2       9 UNK        -0.5000 
     27 CA         -2.8273  -19.0601  -44.8849 C.3       9 UNK         0.1400 
     28 CB         -3.5489  -18.6735  -43.5856 C.3       9 UNK        -0.1800 
     29 N          -2.0061  -17.9422  -45.3492 N.am      9 UNK        -0.5000 
     30 C          -1.3444  -17.9095  -46.5159 C.2       8 UNK         0.5000 
     31 O          -1.3858  -18.8108  -47.3507 O.2       8 UNK        -0.5000 
     32 CA         -0.4225  -16.7017  -46.7563 C.3       8 UNK         0.1400 
     33 CB         -1.2243  -15.4667  -47.1906 C.3       8 UNK        -0.1800 
     34 N           0.3783  -16.3890  -45.5725 N.am      8 UNK        -0.5000 
     35 C           1.2974  -17.2153  -45.0526 C.2       7 UNK         0.5000 
     36 O           1.5884  -18.3096  -45.5369 O.2       7 UNK        -0.5000 
     37 CA          1.9676  -16.7672  -43.7438 C.3       7 UNK         0.1400 
     38 CB          3.1534  -15.8342  -44.0206 C.3       7 UNK        -0.1800 
     39 N           1.0199  -16.1144  -42.8414 N.am      7 UNK        -0.5000 
     40 C           0.0565  -16.7645  -42.1740 C.2       6 UNK         0.5000 
     41 O          -0.1016  -17.9845  -42.2184 O.2       6 UNK        -0.5000 
     42 CA         -0.9209  -15.9012  -41.3567 C.3       6 UNK         0.1400 
     43 CB         -0.3334  -15.5709  -39.9772 C.3       6 UNK        -0.1800 
     44 N          -1.2848  -14.6623  -42.0466 N.am      6 UNK        -0.5000 
     45 C          -2.0161  -14.6212  -43.1702 C.2       5 UNK         0.5000 
     46 O          -2.4699  -15.6220  -43.7220 O.2       5 UNK        -0.5000 
     47 CA         -2.2580  -13.2435  -43.8132 C.3       5 UNK         0.1400 
     48 CB         -3.5734  -12.6378  -43.3020 C.3       5 UNK        -0.1800 
     49 N          -1.1750  -12.2818  -43.6059 N.am      5 UNK        -0.5000 
     50 C           0.1013  -12.4503  -43.9763 C.2       4 UNK         0.5000 
     51 O           0.5278  -13.4804  -44.5032 O.2       4 UNK        -0.5000 
     52 CA          1.0731  -11.2833  -43.7026 C.3       4 UNK         0.1400 
     53 CB          0.4143  -10.0353  -43.0717 C.3       4 UNK        -0.1800 
     54 N           2.2248  -11.7057  -42.9030 N.am      4 UNK        -0.5000 
     55 C           2.2069  -12.2655  -41.6828 C.2       3 UNK         0.5000 
     56 O           1.1686  -12.5233  -41.0714 O.2       3 UNK        -0.5000 
     57 CA          3.5672  -12.6091  -41.0358 C.3       3 UNK         0.1400 
     58 CB          3.5513  -14.0159  -40.4125 C.3       3 UNK        -0.1800 
     59 N           4.6814  -12.5174  -41.9856 N.am      3 UNK        -0.5000 
     60 C           5.4581  -11.4386  -42.1645 C.2       2 UNK         0.5000 
     61 O           5.3671  -10.4104  -41.4934 O.2       2 UNK        -0.5000 
     62 CA          6.4853  -11.5047  -43.3160 C.3       2 UNK         0.1400 
     63 CB          7.8421  -12.0063  -42.7993 C.3       2 UNK        -0.1800 
     64 N           6.0565  -12.3477  -44.4387 N.am      2 UNK        -0.5000 
     65 C           4.9755  -12.1157  -45.1976 C.2       1 UNK         0.5000 
     66 O           4.2507  -11.1291  -45.0582 O.2       1 UNK        -0.5000 
     67 C          -0.0569  -22.1189  -48.3284 C.2       11 UNK         0.5000 
     68 O           0.0832  -23.2076  -48.8852 O.2       11 UNK        -0.5000 
     69 N          -1.2349  -21.4842  -48.2307 N.am      12 UNK        -0.5000 
     70 CA         -2.4959  -21.9601  -48.8034 C.3       12 UNK         0.1400 
     71 CB         -3.5973  -20.9169  -48.5683 C.3       12 UNK        -0.1800 
     72 C          -2.9368  -23.3380  -48.2839 C.2       12 UNK         0.5000 
     73 O          -3.4457  -24.1396  -49.0644 O.2       12 UNK        -0.5000 
     74 N          -2.6895  -23.6102  -46.9960 N.am      13 UNK        -0.5000 
     75 CA         -2.9746  -24.8816  -46.3274 C.3       13 UNK         0.1400 
     76 CB         -2.6832  -24.7309  -44.8260 C.3       13 UNK        -0.1800 
     77 C          -2.2230  -26.1011  -46.9034 C.2       13 UNK         0.5000 
     78 O          -2.6379  -27.2314  -46.6429 O.2       13 UNK        -0.5000 
     79 N          -1.1466  -25.8730  -47.6711 N.am      14 UNK        -0.5000 
     80 CA         -0.4169  -26.9213  -48.3854 C.3       14 UNK         0.1400 
     81 CB          0.9878  -26.4118  -48.7428 C.3       14 UNK        -0.1800 
     82 C          -1.1530  -27.4118  -49.6495 C.2       14 UNK         0.5000 
     83 O          -0.8745  -28.5215  -50.1067 O.2       14 UNK        -0.5000 
     84 N          -2.0670  -26.5970  -50.1947 N.am      15 UNK        -0.5000 
     85 CA         -2.9104  -26.9425  -51.3361 C.3       15 UNK         0.1400 
     86 CB         -3.1298  -25.6871  -52.1951 C.3       15 UNK        -0.1800 
     87 C          -4.2563  -27.5046  -50.8516 C.2       15 UNK         0.5000 
     88 O          -4.7264  -27.1445  -49.7703 O.2       15 UNK        -0.5000 
     89 N          -4.8701  -28.3613  -51.6774 N.am      16 UNK        -0.5000 
     90 CA         -6.1790  -28.9604  -51.4066 C.3       16 UNK         0.1400 
     91 CB         -6.3853  -30.1709  -52.3304 C.3       16 UNK        -0.1800 
     92 C          -7.3345  -27.9543  -51.5638 C.2       16 UNK         0.5000 
     93 O          -8.2892  -27.9995  -50.7872 O.2       16 UNK        -0.5000 
     94 N          -7.2267  -27.0692  -52.5653 N.am      17 UNK        -0.5000 
     95 CA         -8.2141  -26.0275  -52.8515 C.3       17 UNK         0.1400 
     96 CB         -8.0548  -25.5606  -54.3067 C.3       17 UNK        -0.1800 
     97 C          -8.0988  -24.8350  -51.8872 C.2       17 UNK         0.5000 
     98 O          -9.1227  -24.3182  -51.4388 O.2       17 UNK        -0.5000 
     99 N          -6.8532  -24.4231  -51.6030 N.am      18 UNK        -0.5000 
    100 CA        -6.4078  -23.3223  -50.7355 C.3       18 UNK         0.1400 
    101 CB        -6.8045  -23.5726  -49.2686 C.3       18 UNK        -0.1800 
    102 C         -6.8339  -21.9152  -51.2015 C.2       18 UNK         0.5000 
    103 O         -5.9820  -21.0396  -51.3459 O.2       18 UNK        -0.5000 
    104 N         -8.1332  -21.7201  -51.4526 N.am      19 UNK        -0.5000 
    105 CA        -8.7334  -20.4651  -51.9113 C.3       19 UNK         0.1400 
    106 CB       -10.2609  -20.5755  -51.7954 C.3       19 UNK        -0.1800 
    107 C         -8.3289  -20.0794  -53.3474 C.2       19 UNK         0.5000 
    108 O         -8.3809  -18.8996  -53.6988 O.2       19 UNK        -0.5000 
    109 N         -7.9180  -21.0715  -54.1479 N.am      20 UNK        -0.5000 
    110 CA        -7.4289  -20.9227  -55.5167 C.3       20 UNK         0.1400 
    111 CB        -7.5627  -22.2777  -56.2344 C.3       20 UNK        -0.1800 
    112 C         -5.9848  -20.3803  -55.5409 C.2       20 UNK         0.5000 
    113 O         -5.0569  -21.1089  -55.8974 O.2       20 UNK        -0.5000 
    114 N         -5.8225  -19.1164  -55.1237 N.am      21 UNK        -0.5000 
    115 CA        -4.5821  -18.3283  -55.1155 C.3       21 UNK         0.1400 
    116 CB        -4.2020  -17.9328  -56.5575 C.3       21 UNK        -0.1800 
    117 C         -3.4200  -19.0063  -54.3559 C.2       21 UNK         0.5000 
    118 O         -2.2790  -18.9827  -54.8208 O.2       21 UNK        -0.5000 
    119 N         -3.7474  -19.6173  -53.2101 N.am      22 UNK        -0.5000 
    120 CA        -2.8508  -20.4203  -52.3605 C.3       22 UNK         0.1400 
    121 C         -2.4763  -21.8138  -52.9546 C.2       22 UNK         0.5000 
    122 N         -3.0939  -22.2798  -54.0344 N.am      22 UNK        -0.7600 
    123 O         -1.6198  -22.5043  -52.4124 O.2       22 UNK        -0.5000 
    124 C124       -1.5994  -19.6543  -51.8408 C.3       23 UNK        -0.0398 
    125 S125       -1.9798  -18.0421  -51.0634 S.3       23 UNK        -0.2404 
    126 C126       -0.8076  -16.9350  -51.9180 C.3       23 UNK        -0.0205 
    127 H127        7.0616  -12.8279  -50.0220 H         1 UNK         0.0600 
    128 H128        7.6396  -13.9568  -48.7938 H         1 UNK         0.0600 
    129 H129        8.2294  -12.2924  -48.8088 H         1 UNK         0.0600 
    130 H130        6.1531  -14.3072  -47.2026 H         1 UNK         0.3000 
    131 H131        4.6097  -14.1230  -45.6766 H         1 UNK         0.0600 
    132 H132        2.5221  -12.6298  -46.1886 H         1 UNK         0.0800 
    133 H133        3.2819  -12.2659  -47.7121 H         1 UNK         0.0800 
    134 H134        2.1782  -13.5641  -49.6432 H         1 UNK         0.0800 
    135 H135        3.7864  -14.2553  -49.5581 H         1 UNK         0.0800 
    136 H136        0.3757  -14.8520  -50.6009 H         1 UNK         0.1150 
    137 H137        1.0514  -18.9360  -51.7236 H         1 UNK         0.1150 
    138 H138        3.9917  -16.8303  -49.4381 H         1 UNK         0.1150 
    139 H139        3.9251  -19.4551  -51.4550 H         1 UNK         0.0800 
    140 H140        4.2692  -19.1585  -49.7671 H         1 UNK         0.0800 
    141 H141        0.9202  -19.5352  -48.6868 H         1 UNK         0.0800 
    142 H142        2.4508  -19.7176  -47.8721 H         1 UNK         0.0800 
    143 H143        1.9511  -22.2019  -47.5943 H         1 UNK         0.0600 
    144 H144        0.7859  -20.0820  -46.0676 H         1 UNK         0.3000 
    145 H145       -0.4157  -22.1591  -43.4121 H         1 UNK         0.0600 
    146 H146        0.9640  -20.5848  -42.0882 H         1 UNK         0.0600 
    147 H147        1.8654  -20.1170  -43.5286 H         1 UNK         0.0600 
    148 H148        1.9909  -21.7550  -42.9019 H         1 UNK         0.0600 
    149 H149       -0.5202  -19.3468  -43.7534 H         1 UNK         0.3000 
    150 H150       -3.5852  -19.2504  -45.6467 H         1 UNK         0.0600 
    151 H151       -4.1686  -19.4945  -43.2227 H         1 UNK         0.0600 
    152 H152       -4.2041  -17.8161  -43.7398 H         1 UNK         0.0600 
    153 H153       -2.8440  -18.4177  -42.7940 H         1 UNK         0.0600 
    154 H154       -1.9554  -17.1356  -44.7322 H         1 UNK         0.3000 
    155 H155        0.2651  -16.9589  -47.5656 H         1 UNK         0.0600 
    156 H156       -1.7567  -15.6620  -48.1224 H         1 UNK         0.0600 
    157 H157       -0.5706  -14.6113  -47.3622 H         1 UNK         0.0600 
    158 H158       -1.9637  -15.1814  -46.4431 H         1 UNK         0.0600 
    159 H159        0.2375  -15.4824  -45.1417 H         1 UNK         0.3000 
    160 H160        2.3553  -17.6620  -43.2524 H         1 UNK         0.0600 
    161 H161        2.8186  -14.8475  -44.3390 H         1 UNK         0.0600 
    162 H162        3.7922  -16.2401  -44.8062 H         1 UNK         0.0600 
    163 H163        3.7762  -15.7129  -43.1361 H         1 UNK         0.0600 
    164 H164        1.0272  -15.1041  -42.8209 H         1 UNK         0.3000 
    165 H165       -1.8319  -16.4843  -41.2055 H         1 UNK         0.0600 
    166 H166       -1.0419  -15.0062  -39.3711 H         1 UNK         0.0600 
    167 H167       -0.0898  -16.4820  -39.4292 H         1 UNK         0.0600 
    168 H168        0.5810  -14.9835  -40.0584 H         1 UNK         0.0600 
    169 H169       -0.9110  -13.7998  -41.6727 H         1 UNK         0.3000 
    170 H170       -2.3518  -13.3980  -44.8894 H         1 UNK         0.0600 
    171 H171       -3.5288  -12.4234  -42.2335 H         1 UNK         0.0600 
    172 H172       -3.8099  -11.7095  -43.8224 H         1 UNK         0.0600 
    173 H173       -4.4078  -13.3214  -43.4654 H         1 UNK         0.0600 
    174 H174       -1.4277  -11.4138  -43.1567 H         1 UNK         0.3000 
    175 H175        1.4655  -10.9863  -44.6757 H         1 UNK         0.0600 
    176 H176       -0.0111  -10.2437  -42.0893 H         1 UNK         0.0600 
    177 H177        1.1441   -9.2350  -42.9481 H         1 UNK         0.0600 
    178 H178       -0.3806   -9.6422  -43.7068 H         1 UNK         0.0600 
    179 H179        3.1225  -11.5433  -43.3427 H         1 UNK         0.3000 
    180 H180        3.7205  -11.8938  -40.2253 H         1 UNK         0.0600 
    181 H181        4.5315  -14.2879  -40.0208 H         1 UNK         0.0600 
    182 H182        3.2506  -14.7773  -41.1304 H         1 UNK         0.0600 
    183 H183        2.8497  -14.0624  -39.5789 H         1 UNK         0.0600 
    184 H184        4.8340  -13.3190  -42.5793 H         1 UNK         0.3000 
    185 H185        6.6184  -10.4890  -43.6946 H         1 UNK         0.0600 
    186 H186        8.5987  -11.9767  -43.5836 H         1 UNK         0.0600 
    187 H187        8.2022  -11.3835  -41.9792 H         1 UNK         0.0600 
    188 H188        7.7792  -13.0307  -42.4302 H         1 UNK         0.0600 
    189 H189        6.6177  -13.1661  -44.6270 H         1 UNK         0.3000 
    190 H190       -1.2669  -20.5735  -47.7750 H         1 UNK         0.3000 
    191 H191       -2.3416  -22.0611  -49.8769 H         1 UNK         0.0600 
    192 H192       -3.3280  -19.9514  -48.9960 H         1 UNK         0.0600 
    193 H193       -3.7905  -20.7710  -47.5060 H         1 UNK         0.0600 
    194 H194       -4.5335  -21.2260  -49.0317 H         1 UNK         0.0600 
    195 H195       -2.3255  -22.8651  -46.4086 H         1 UNK         0.3000 
    196 H196       -4.0412  -25.0806  -46.4492 H         1 UNK         0.0600 
    197 H197       -3.3018  -23.9519  -44.3804 H         1 UNK         0.0600 
    198 H198       -1.6388  -24.4748  -44.6451 H         1 UNK         0.0600 
    199 H199       -2.8935  -25.6564  -44.2885 H         1 UNK         0.0600 
    200 H200       -0.8624  -24.9173  -47.8535 H         1 UNK         0.3000 
    201 H201       -0.3005  -27.7774  -47.7176 H         1 UNK         0.0600 
    202 H202        1.5086  -26.0310  -47.8639 H         1 UNK         0.0600 
    203 H203        0.9502  -25.6140  -49.4847 H         1 UNK         0.0600 
    204 H204        1.5964  -27.2145  -49.1607 H         1 UNK         0.0600 
    205 H205       -2.3179  -25.7412  -49.7104 H         1 UNK         0.3000 
    206 H206       -2.4149  -27.6953  -51.9528 H         1 UNK         0.0600 
    207 H207       -3.6248  -24.8937  -51.6356 H         1 UNK         0.0600 
    208 H208       -2.1808  -25.2919  -52.5578 H         1 UNK         0.0600 
    209 H209       -3.7437  -25.9079  -53.0688 H         1 UNK         0.0600 
    210 H210       -4.4229  -28.6204  -52.5452 H         1 UNK         0.3000 
    211 H211       -6.1883  -29.3187  -50.3747 H         1 UNK         0.0600 
    212 H212       -6.3668  -29.8852  -53.3828 H         1 UNK         0.0600 
    213 H213       -7.3465  -30.6493  -52.1372 H         1 UNK         0.0600 
    214 H214       -5.6123  -30.9232  -52.1727 H         1 UNK         0.0600 
    215 H215       -6.4187  -27.1173  -53.1676 H         1 UNK         0.3000 
    216 H216       -9.2152  -26.4507  -52.7417 H         1 UNK         0.0600 
    217 H217       -8.7754  -24.7779  -54.5477 H         1 UNK         0.0600 
    218 H218       -8.2250  -26.3816  -55.0033 H         1 UNK         0.0600 
    219 H219       -7.0578  -25.1621  -54.4974 H         1 UNK         0.0600 
    220 H220       -6.1026  -24.9334  -52.0429 H         1 UNK         0.3000 
    221 H221       -5.3185  -23.3373  -50.7825 H         1 UNK         0.0600 
    222 H222       -7.8858  -23.5938  -49.1326 H         1 UNK         0.0600 
    223 H223       -6.4024  -24.5223  -48.9144 H         1 UNK         0.0600 
    224 H224       -6.4087  -22.7924  -48.6178 H         1 UNK         0.0600 
    225 H225       -8.7527  -22.5202  -51.3437 H         1 UNK         0.3000 
    226 H226       -8.3943  -19.6654  -51.2496 H         1 UNK         0.0600 
    227 H227      -10.5649  -20.7702  -50.7667 H         1 UNK         0.0600 
    228 H228      -10.7460  -19.6495  -52.1072 H         1 UNK         0.0600 
    229 H229      -10.6537  -21.3796  -52.4191 H         1 UNK         0.0600 
    230 H230       -7.8835  -22.0009  -53.7581 H         1 UNK         0.3000 
    231 H231       -8.0608  -20.2039  -56.0427 H         1 UNK         0.0600 
    232 H232       -7.2411  -22.2013  -57.2738 H         1 UNK         0.0600 
    233 H233       -8.5970  -22.6219  -56.2401 H         1 UNK         0.0600 
    234 H234       -6.9546  -23.0479  -55.7593 H         1 UNK         0.0600 
    235 H235       -6.6488  -18.6437  -54.7711 H         1 UNK         0.3000 
    236 H236       -4.8040  -17.4104  -54.5694 H         1 UNK         0.0600 
    237 H237       -3.9322  -18.8036  -57.1560 H         1 UNK         0.0600 
    238 H238       -5.0267  -17.4249  -57.0575 H         1 UNK         0.0600 
    239 H239       -3.3506  -17.2512  -56.5666 H         1 UNK         0.0600 
    240 H240       -4.7150  -19.6125  -52.9171 H         1 UNK         0.3000 
    241 H241       -3.4481  -20.6565  -51.4825 H         1 UNK         0.0600 
    242 H242       -3.7759  -21.7260  -54.5422 H         1 UNK         0.3800 
    243 H243       -2.8279  -23.1817  -54.3933 H         1 UNK         0.3800 
    244 H244       -0.8964  -19.5151  -52.6615 H         1 UNK         0.0800 
    245 H245       -1.0709  -20.2516  -51.0959 H         1 UNK         0.0800 
    246 H246       -0.6944  -17.2308  -52.9619 H         1 UNK         0.0800 
    247 H247       -1.2424  -15.9347  -51.9372 H         1 UNK         0.0800 
@<TRIPOS>BOND
     1    1    2 1    
     2    1  127 1    
     3    1  128 1    
     4    1  129 1    
     5    2    3 2    
     6    2    4 am   BACKBONE|DICT|INTERRES
     7    4    5 1    
     8    4  130 1    
     9    5    6 1    
    10    5   65 1    
    11    5  131 1    
    12    6    7 1    
    13    6  132 1    
    14    6  133 1    
    15    7    8 1    
    16    8    9 1    
    17    8  134 1    
    18    8  135 1    
    19    9   10 ar   
    20    9   14 ar   
    21   10   11 ar   
    22   10  136 1    
    23   11   12 ar   
    24   11  126 1    
    25   12   13 ar   
    26   12  137 1    
    27   13   14 ar   
    28   13   15 1    
    29   14  138 1    
    30   15   16 1    
    31   15  139 1    
    32   15  140 1    
    33   16   17 1    
    34   17   18 1    
    35   17  141 1    
    36   17  142 1    
    37   18   19 1    
    38   18   67 1    
    39   18  143 1    
    40   19   20 am   BACKBONE|DICT|INTERRES
    41   19  144 1    
    42   20   21 2    
    43   20   22 1    
    44   22   23 1    
    45   22   24 1    
    46   22  145 1    
    47   23  146 1    
    48   23  147 1    
    49   23  148 1    
    50   24   25 am   BACKBONE|DICT|INTERRES
    51   24  149 1    
    52   25   26 2    
    53   25   27 1    
    54   27   28 1    
    55   27   29 1    
    56   27  150 1    
    57   28  151 1    
    58   28  152 1    
    59   28  153 1    
    60   29   30 am   BACKBONE|DICT|INTERRES
    61   29  154 1    
    62   30   31 2    
    63   30   32 1    
    64   32   33 1    
    65   32   34 1    
    66   32  155 1    
    67   33  156 1    
    68   33  157 1    
    69   33  158 1    
    70   34   35 am   BACKBONE|DICT|INTERRES
    71   34  159 1    
    72   35   36 2    
    73   35   37 1    
    74   37   38 1    
    75   37   39 1    
    76   37  160 1    
    77   38  161 1    
    78   38  162 1    
    79   38  163 1    
    80   39   40 am   BACKBONE|DICT|INTERRES
    81   39  164 1    
    82   40   41 2    
    83   40   42 1    
    84   42   43 1    
    85   42   44 1    
    86   42  165 1    
    87   43  166 1    
    88   43  167 1    
    89   43  168 1    
    90   44   45 am   BACKBONE|DICT|INTERRES
    91   44  169 1    
    92   45   46 2    
    93   45   47 1    
    94   47   48 1    
    95   47   49 1    
    96   47  170 1    
    97   48  171 1    
    98   48  172 1    
    99   48  173 1    
   100   49   50 am   BACKBONE|DICT|INTERRES
   101   49  174 1    
   102   50   51 2    
   103   50   52 1    
   104   52   53 1    
   105   52   54 1    
   106   52  175 1    
   107   53  176 1    
   108   53  177 1    
   109   53  178 1    
   110   54   55 am   BACKBONE|DICT|INTERRES
   111   54  179 1    
   112   55   56 2    
   113   55   57 1    
   114   57   58 1    
   115   57   59 1    
   116   57  180 1    
   117   58  181 1    
   118   58  182 1    
   119   58  183 1    
   120   59   60 am   BACKBONE|DICT|INTERRES
   121   59  184 1    
   122   60   61 2    
   123   60   62 1    
   124   62   63 1    
   125   62   64 1    
   126   62  185 1    
   127   63  186 1    
   128   63  187 1    
   129   63  188 1    
   130   64   65 am   BACKBONE|DICT|INTERRES
   131   64  189 1    
   132   65   66 2    
   133   67   68 2    
   134   67   69 am   BACKBONE|DICT|INTERRES
   135   69   70 1    
   136   69  190 1    
   137   70   71 1    
   138   70   72 1    
   139   70  191 1    
   140   71  192 1    
   141   71  193 1    
   142   71  194 1    
   143   72   73 2    
   144   72   74 am   BACKBONE|DICT|INTERRES
   145   74   75 1    
   146   74  195 1    
   147   75   76 1    
   148   75   77 1    
   149   75  196 1    
   150   76  197 1    
   151   76  198 1    
   152   76  199 1    
   153   77   78 2    
   154   77   79 am   BACKBONE|DICT|INTERRES
   155   79   80 1    
   156   79  200 1    
   157   80   81 1    
   158   80   82 1    
   159   80  201 1    
   160   81  202 1    
   161   81  203 1    
   162   81  204 1    
   163   82   83 2    
   164   82   84 am   BACKBONE|DICT|INTERRES
   165   84   85 1    
   166   84  205 1    
   167   85   86 1    
   168   85   87 1    
   169   85  206 1    
   170   86  207 1    
   171   86  208 1    
   172   86  209 1    
   173   87   88 2    
   174   87   89 am   BACKBONE|DICT|INTERRES
   175   89   90 1    
   176   89  210 1    
   177   90   91 1    
   178   90   92 1    
   179   90  211 1    
   180   91  212 1    
   181   91  213 1    
   182   91  214 1    
   183   92   93 2    
   184   92   94 am   BACKBONE|DICT|INTERRES
   185   94   95 1    
   186   94  215 1    
   187   95   96 1    
   188   95   97 1    
   189   95  216 1    
   190   96  217 1    
   191   96  218 1    
   192   96  219 1    
   193   97   98 2    
   194   97   99 am   BACKBONE|DICT|INTERRES
   195   99  100 1    
   196   99  220 1    
   197  100  101 1    
   198  100  102 1    
   199  100  221 1    
   200  101  222 1    
   201  101  223 1    
   202  101  224 1    
   203  102  103 2    
   204  102  104 am   BACKBONE|DICT|INTERRES
   205  104  105 1    
   206  104  225 1    
   207  105  106 1    
   208  105  107 1    
   209  105  226 1    
   210  106  227 1    
   211  106  228 1    
   212  106  229 1    
   213  107  108 2    
   214  107  109 am   BACKBONE|DICT|INTERRES
   215  109  110 1    
   216  109  230 1    
   217  110  111 1    
   218  110  112 1    
   219  110  231 1    
   220  111  232 1    
   221  111  233 1    
   222  111  234 1    
   223  112  113 2    
   224  112  114 am   BACKBONE|DICT|INTERRES
   225  114  115 1    
   226  114  235 1    
   227  115  116 1    
   228  115  117 1    
   229  115  236 1    
   230  116  237 1    
   231  116  238 1    
   232  116  239 1    
   233  117  118 2    
   234  117  119 am   BACKBONE|DICT|INTERRES
   235  119  120 1    
   236  119  240 1    
   237  120  121 1    
   238  120  124 1    
   239  120  241 1    
   240  121  122 am   BACKBONE|DICT|INTERRES
   241  121  123 2    
   242  122  242 1    
   243  122  243 1    
   244  124  125 1    
   245  124  244 1    
   246  124  245 1    
   247  125  126 1    
   248  126  246 1    
   249  126  247 1    
@<TRIPOS>SUBSTRUCTURE
     1 UNK         1 GROUP             0       ****    0 ROOT    
