@<TRIPOS>MOLECULE
3R540
247   249    1
SMALL
USER_CHARGES


@<TRIPOS>ATOM
      1 CA          2.5988  -10.7667  -49.7389 C.3       0 UNK        -0.1800 
      2 C           1.8456  -11.0577  -48.4487 C.2       0 UNK         0.5000 
      3 O           0.9400  -10.3062  -48.0888 O.2       0 UNK        -0.5000 
      4 N           2.2161  -12.1487  -47.7633 N.am      1 UNK        -0.5000 
      5 CA          1.6385  -12.6269  -46.4995 C.3       1 UNK         0.1400 
      6 C6          0.1797  -13.1551  -46.6280 C.3       23 UNK        -0.0398 
      7 S7          0.1160  -14.7781  -47.4569 S.3       23 UNK        -0.2404 
      8 C8         -0.1373  -14.3019  -49.1977 C.3       23 UNK        -0.0205 
      9 C9          0.3204  -15.3907  -50.1590 C.ar      23 UNK        -0.0193 
     10 C10        -0.5349  -15.8613  -51.1602 C.ar      23 UNK        -0.1150 
     11 C11        -0.1047  -16.8419  -52.0612 C.ar      23 UNK        -0.0193 
     12 C12         1.1872  -17.3619  -51.9441 C.ar      23 UNK        -0.1150 
     13 C13         2.0421  -16.9198  -50.9307 C.ar      23 UNK        -0.0193 
     14 C14         1.6128  -15.9156  -50.0612 C.ar      23 UNK        -0.1150 
     15 C15         3.4132  -17.5561  -50.7461 C.3       23 UNK        -0.0205 
     16 S16         3.5235  -18.4927  -49.1826 S.3       23 UNK        -0.2404 
     17 C17         2.0641  -19.5841  -49.3032 C.3       23 UNK        -0.0398 
     18 CA          2.3309  -21.0139  -48.7787 C.3       11 UNK         0.1400 
     19 N           2.6126  -21.0219  -47.3368 N.am      11 UNK        -0.5000 
     20 C           3.2753  -21.9938  -46.6967 C.2       10 UNK         0.5000 
     21 O           3.7569  -22.9773  -47.2599 O.2       10 UNK        -0.5000 
     22 CA          3.3925  -21.8631  -45.1663 C.3       10 UNK         0.1400 
     23 CB          4.5078  -20.8771  -44.7869 C.3       10 UNK        -0.1800 
     24 N           2.1385  -21.4651  -44.5198 N.am      10 UNK        -0.5000 
     25 C           1.0232  -22.2106  -44.4931 C.2       9 UNK         0.5000 
     26 O           0.9242  -23.3122  -45.0327 O.2       9 UNK        -0.5000 
     27 CA         -0.1982  -21.6196  -43.7655 C.3       9 UNK         0.1400 
     28 CB         -0.0707  -21.8023  -42.2461 C.3       9 UNK        -0.1800 
     29 N          -0.4010  -20.2065  -44.0797 N.am      9 UNK        -0.5000 
     30 C          -0.7834  -19.7526  -45.2803 C.2       8 UNK         0.5000 
     31 O          -1.1059  -20.4905  -46.2088 O.2       8 UNK        -0.5000 
     32 CA         -0.7688  -18.2295  -45.5032 C.3       8 UNK         0.1400 
     33 CB         -2.1002  -17.5979  -45.0771 C.3       8 UNK        -0.1800 
     34 N           0.3395  -17.5675  -44.8180 N.am      8 UNK        -0.5000 
     35 C           1.6311  -17.7938  -45.0962 C.2       7 UNK         0.5000 
     36 O           2.0179  -18.5705  -45.9689 O.2       7 UNK        -0.5000 
     37 CA          2.6618  -17.0753  -44.2132 C.3       7 UNK         0.1400 
     38 CB          2.8776  -15.6349  -44.6906 C.3       7 UNK        -0.1800 
     39 N           2.2664  -17.0818  -42.8055 N.am      7 UNK        -0.5000 
     40 C           2.2870  -18.1748  -42.0304 C.2       6 UNK         0.5000 
     41 O           2.6853  -19.2759  -42.4110 O.2       6 UNK        -0.5000 
     42 CA          1.7206  -18.0195  -40.6080 C.3       6 UNK         0.1400 
     43 CB          2.7695  -17.4167  -39.6630 C.3       6 UNK        -0.1800 
     44 N           0.5052  -17.2036  -40.5799 N.am      6 UNK        -0.5000 
     45 C          -0.6633  -17.5926  -41.1107 C.2       5 UNK         0.5000 
     46 O          -0.8312  -18.6799  -41.6594 O.2       5 UNK        -0.5000 
     47 CA         -1.8367  -16.5981  -41.0544 C.3       5 UNK         0.1400 
     48 CB         -2.6552  -16.8082  -39.7721 C.3       5 UNK        -0.1800 
     49 N          -1.4392  -15.1934  -41.1446 N.am      5 UNK        -0.5000 
     50 C          -0.7545  -14.6346  -42.1515 C.2       4 UNK         0.5000 
     51 O          -0.3300  -15.2630  -43.1236 O.2       4 UNK        -0.5000 
     52 CA         -0.4774  -13.1214  -42.0558 C.3       4 UNK         0.1400 
     53 CB         -1.1782  -12.4154  -40.8728 C.3       4 UNK        -0.1800 
     54 N           0.9566  -12.8292  -42.0397 N.am      4 UNK        -0.5000 
     55 C           1.8748  -13.2772  -41.1683 C.2       3 UNK         0.5000 
     56 O           1.6163  -14.0613  -40.2536 O.2       3 UNK        -0.5000 
     57 CA          3.3279  -12.7828  -41.3475 C.3       3 UNK         0.1400 
     58 CB          4.3294  -13.9488  -41.2874 C.3       3 UNK        -0.1800 
     59 N           3.5249  -12.0450  -42.5996 N.am      3 UNK        -0.5000 
     60 C           3.3743  -10.7203  -42.7443 C.2       2 UNK         0.5000 
     61 O           3.1198   -9.9547  -41.8144 O.2       2 UNK        -0.5000 
     62 CA          3.4882  -10.1609  -44.1780 C.3       2 UNK         0.1400 
     63 CB          4.9252   -9.7000  -44.4644 C.3       2 UNK        -0.1800 
     64 N           3.0727  -11.1098  -45.2174 N.am      2 UNK        -0.5000 
     65 C           1.8347  -11.6084  -45.3547 C.2       1 UNK         0.5000 
     66 O           0.9007  -11.3102  -44.6094 O.2       1 UNK        -0.5000 
     67 C           1.1492  -21.9368  -49.1563 C.2       11 UNK         0.5000 
     68 O           0.9406  -22.1845  -50.3441 O.2       11 UNK        -0.5000 
     69 N           0.3854  -22.3953  -48.1535 N.am      12 UNK        -0.5000 
     70 CA         -0.8477  -23.1848  -48.2434 C.3       12 UNK         0.1400 
     71 CB         -0.6056  -24.5410  -48.9344 C.3       12 UNK        -0.1800 
     72 C          -2.0420  -22.4081  -48.8390 C.2       12 UNK         0.5000 
     73 O          -3.0610  -23.0112  -49.1684 O.2       12 UNK        -0.5000 
     74 N          -1.9425  -21.0727  -48.8786 N.am      13 UNK        -0.5000 
     75 CA         -3.0082  -20.1415  -49.2523 C.3       13 UNK         0.1400 
     76 CB         -2.4314  -18.7171  -49.2812 C.3       13 UNK        -0.1800 
     77 C          -4.2250  -20.2030  -48.3040 C.2       13 UNK         0.5000 
     78 O          -5.3304  -19.8450  -48.7076 O.2       13 UNK        -0.5000 
     79 N          -3.9996  -20.6659  -47.0668 N.am      14 UNK        -0.5000 
     80 CA         -5.0237  -20.9130  -46.0533 C.3       14 UNK         0.1400 
     81 CB         -4.3381  -20.9653  -44.6775 C.3       14 UNK        -0.1800 
     82 C          -5.8495  -22.1979  -46.2908 C.2       14 UNK         0.5000 
     83 O          -6.8772  -22.3688  -45.6327 O.2       14 UNK        -0.5000 
     84 N          -5.3922  -23.0931  -47.1798 N.am      15 UNK        -0.5000 
     85 CA         -6.0479  -24.3682  -47.4851 C.3       15 UNK         0.1400 
     86 CB         -5.0157  -25.3157  -48.1198 C.3       15 UNK        -0.1800 
     87 C          -7.2729  -24.2038  -48.4081 C.2       15 UNK         0.5000 
     88 O          -7.5462  -23.1077  -48.9047 O.2       15 UNK        -0.5000 
     89 N          -7.9776  -25.3189  -48.6498 N.am      16 UNK        -0.5000 
     90 CA         -9.0935  -25.4267  -49.5937 C.3       16 UNK         0.1400 
     91 CB         -9.6533  -26.8564  -49.5554 C.3       16 UNK        -0.1800 
     92 C          -8.6624  -25.0501  -51.0238 C.2       16 UNK         0.5000 
     93 O          -7.6213  -25.5222  -51.4892 O.2       16 UNK        -0.5000 
     94 N          -9.4339  -24.1562  -51.6608 N.am      17 UNK        -0.5000 
     95 CA         -9.1611  -23.5206  -52.9606 C.3       17 UNK         0.1400 
     96 CB         -9.2678  -24.5551  -54.1011 C.3       17 UNK        -0.1800 
     97 C          -7.8232  -22.7443  -53.0001 C.2       17 UNK         0.5000 
     98 O          -7.2440  -22.5713  -54.0750 O.2       17 UNK        -0.5000 
     99 N          -7.3287  -22.3411  -51.8184 N.am      18 UNK        -0.5000 
    100 CA        -6.0042  -21.7749  -51.5576 C.3       18 UNK         0.1400 
    101 CB        -5.8996  -20.3524  -52.1493 C.3       18 UNK        -0.1800 
    102 C         -4.8584  -22.7050  -52.0079 C.2       18 UNK         0.5000 
    103 O         -3.8322  -22.2086  -52.4622 O.2       18 UNK        -0.5000 
    104 N         -5.0699  -24.0301  -51.9281 N.am      19 UNK        -0.5000 
    105 CA        -4.2043  -25.0878  -52.4650 C.3       19 UNK         0.1400 
    106 CB        -2.8552  -25.1525  -51.7212 C.3       19 UNK        -0.1800 
    107 C         -4.0460  -24.9700  -53.9944 C.2       19 UNK         0.5000 
    108 O         -2.9259  -24.9556  -54.5100 O.2       19 UNK        -0.5000 
    109 N         -5.1932  -24.8489  -54.6794 N.am      20 UNK        -0.5000 
    110 CA        -5.3486  -24.6445  -56.1230 C.3       20 UNK         0.1400 
    111 CB        -4.9284  -25.9102  -56.8990 C.3       20 UNK        -0.1800 
    112 C         -4.6334  -23.3656  -56.6056 C.2       20 UNK         0.5000 
    113 O         -3.8442  -23.4138  -57.5510 O.2       20 UNK        -0.5000 
    114 N         -4.9203  -22.2513  -55.9164 N.am      21 UNK        -0.5000 
    115 CA        -4.3191  -20.9254  -56.0947 C.3       21 UNK         0.1400 
    116 CB        -4.7134  -20.3192  -57.4583 C.3       21 UNK        -0.1800 
    117 C         -2.7955  -20.9240  -55.8398 C.2       21 UNK         0.5000 
    118 O         -2.0206  -20.4479  -56.6722 O.2       21 UNK        -0.5000 
    119 N         -2.4108  -21.4428  -54.6689 N.am      22 UNK        -0.5000 
    120 CA        -1.0530  -21.4631  -54.1059 C.3       22 UNK         0.1400 
    121 C         -0.0673  -22.3776  -54.8893 C.2       22 UNK         0.5000 
    122 N         -0.5010  -23.5471  -55.3443 N.am      22 UNK        -0.7600 
    123 O          1.0988  -22.0425  -55.0829 O.2       22 UNK        -0.5000 
    124 C124       -0.4927  -20.0418  -53.8111 C.3       23 UNK        -0.0398 
    125 S125       -1.6486  -19.0149  -52.8318 S.3       23 UNK        -0.2404 
    126 C126       -1.0337  -17.3333  -53.1622 C.3       23 UNK        -0.0205 
    127 H127        3.3660  -11.5151  -49.9392 H         1 UNK         0.0600 
    128 H128        3.0821   -9.7915  -49.6797 H         1 UNK         0.0600 
    129 H129        1.9077  -10.7558  -50.5817 H         1 UNK         0.0600 
    130 H130        2.9679  -12.7153  -48.1301 H         1 UNK         0.3000 
    131 H131        2.2639  -13.4690  -46.2143 H         1 UNK         0.0600 
    132 H132       -0.4654  -12.4387  -47.1378 H         1 UNK         0.0800 
    133 H133       -0.2650  -13.3144  -45.6441 H         1 UNK         0.0800 
    134 H134       -1.1918  -14.0649  -49.3461 H         1 UNK         0.0800 
    135 H135        0.4192  -13.3949  -49.4271 H         1 UNK         0.0800 
    136 H136       -1.5345  -15.4585  -51.2440 H         1 UNK         0.1150 
    137 H137        1.5188  -18.1280  -52.6296 H         1 UNK         0.1150 
    138 H138        2.2768  -15.5673  -49.2825 H         1 UNK         0.1150 
    139 H139        3.6470  -18.2231  -51.5774 H         1 UNK         0.0800 
    140 H140        4.1768  -16.7773  -50.7509 H         1 UNK         0.0800 
    141 H141        1.2393  -19.1175  -48.7609 H         1 UNK         0.0800 
    142 H142        1.7560  -19.6264  -50.3491 H         1 UNK         0.0800 
    143 H143        3.2067  -21.4029  -49.3027 H         1 UNK         0.0600 
    144 H144        2.3074  -20.2046  -46.8106 H         1 UNK         0.3000 
    145 H145        3.6669  -22.8443  -44.7734 H         1 UNK         0.0600 
    146 H146        4.6509  -20.8398  -43.7069 H         1 UNK         0.0600 
    147 H147        4.2876  -19.8665  -45.1307 H         1 UNK         0.0600 
    148 H148        5.4588  -21.1740  -45.2308 H         1 UNK         0.0600 
    149 H149        2.1461  -20.5792  -44.0274 H         1 UNK         0.3000 
    150 H150       -1.0809  -22.1708  -44.0967 H         1 UNK         0.0600 
    151 H151        0.7663  -21.2336  -41.8396 H         1 UNK         0.0600 
    152 H152       -0.9760  -21.4751  -41.7346 H         1 UNK         0.0600 
    153 H153        0.0868  -22.8505  -41.9893 H         1 UNK         0.0600 
    154 H154       -0.2402  -19.5439  -43.3277 H         1 UNK         0.3000 
    155 H155       -0.6349  -18.0526  -46.5718 H         1 UNK         0.0600 
    156 H156       -2.9273  -18.0058  -45.6595 H         1 UNK         0.0600 
    157 H157       -2.0931  -16.5188  -45.2329 H         1 UNK         0.0600 
    158 H158       -2.3138  -17.7862  -44.0256 H         1 UNK         0.0600 
    159 H159        0.1015  -16.8739  -44.1147 H         1 UNK         0.3000 
    160 H160        3.6105  -17.6071  -44.3112 H         1 UNK         0.0600 
    161 H161        2.0041  -15.0138  -44.4917 H         1 UNK         0.0600 
    162 H162        3.0688  -15.6131  -45.7644 H         1 UNK         0.0600 
    163 H163        3.7389  -15.1798  -44.2049 H         1 UNK         0.0600 
    164 H164        1.8463  -16.2387  -42.4417 H         1 UNK         0.3000 
    165 H165        1.4691  -19.0170  -40.2409 H         1 UNK         0.0600 
    166 H166        2.3975  -17.3701  -38.6394 H         1 UNK         0.0600 
    167 H167        3.6781  -18.0201  -39.6522 H         1 UNK         0.0600 
    168 H168        3.0490  -16.4075  -39.9634 H         1 UNK         0.0600 
    169 H169        0.5794  -16.2772  -40.1797 H         1 UNK         0.3000 
    170 H170       -2.4853  -16.8071  -41.9063 H         1 UNK         0.0600 
    171 H171       -2.9889  -17.8434  -39.6868 H         1 UNK         0.0600 
    172 H172       -2.0718  -16.5767  -38.8800 H         1 UNK         0.0600 
    173 H173       -3.5461  -16.1801  -39.7642 H         1 UNK         0.0600 
    174 H174       -1.7189  -14.6002  -40.3772 H         1 UNK         0.3000 
    175 H175       -0.8711  -12.6877  -42.9758 H         1 UNK         0.0600 
    176 H176       -0.8276  -12.7792  -39.9062 H         1 UNK         0.0600 
    177 H177       -0.9953  -11.3411  -40.9026 H         1 UNK         0.0600 
    178 H178       -2.2595  -12.5534  -40.9131 H         1 UNK         0.0600 
    179 H179        1.2618  -12.2084  -42.7797 H         1 UNK         0.3000 
    180 H180        3.5434  -12.1230  -40.5047 H         1 UNK         0.0600 
    181 H181        4.3400  -14.3977  -40.2939 H         1 UNK         0.0600 
    182 H182        5.3449  -13.6114  -41.4954 H         1 UNK         0.0600 
    183 H183        4.0830  -14.7369  -41.9971 H         1 UNK         0.0600 
    184 H184        3.7405  -12.5934  -43.4188 H         1 UNK         0.3000 
    185 H185        2.8316   -9.2906  -44.2420 H         1 UNK         0.0600 
    186 H186        5.2569   -8.9715  -43.7233 H         1 UNK         0.0600 
    187 H187        5.6279  -10.5340  -44.4421 H         1 UNK         0.0600 
    188 H188        4.9995   -9.2231  -45.4419 H         1 UNK         0.0600 
    189 H189        3.7809  -11.3875  -45.8817 H         1 UNK         0.3000 
    190 H190        0.6455  -22.1248  -47.2144 H         1 UNK         0.3000 
    191 H191       -1.1269  -23.3969  -47.2103 H         1 UNK         0.0600 
    192 H192       -1.4674  -25.1973  -48.8115 H         1 UNK         0.0600 
    193 H193        0.2543  -25.0547  -48.5047 H         1 UNK         0.0600 
    194 H194       -0.4309  -24.4271  -50.0043 H         1 UNK         0.0600 
    195 H195       -1.1125  -20.6652  -48.4733 H         1 UNK         0.3000 
    196 H196       -3.3393  -20.4083  -50.2567 H         1 UNK         0.0600 
    197 H197       -3.1456  -18.0189  -49.7189 H         1 UNK         0.0600 
    198 H198       -1.5197  -18.6645  -49.8763 H         1 UNK         0.0600 
    199 H199       -2.1949  -18.3577  -48.2804 H         1 UNK         0.0600 
    200 H200       -3.0424  -20.8837  -46.8117 H         1 UNK         0.3000 
    201 H201       -5.7220  -20.0736  -46.0548 H         1 UNK         0.0600 
    202 H202       -5.0640  -21.1379  -43.8818 H         1 UNK         0.0600 
    203 H203       -3.8316  -20.0278  -44.4506 H         1 UNK         0.0600 
    204 H204       -3.5992  -21.7659  -44.6275 H         1 UNK         0.0600 
    205 H205       -4.5736  -22.8698  -47.7341 H         1 UNK         0.3000 
    206 H206       -6.3890  -24.8126  -46.5478 H         1 UNK         0.0600 
    207 H207       -4.7639  -25.0052  -49.1333 H         1 UNK         0.0600 
    208 H208       -4.0934  -25.3503  -47.5396 H         1 UNK         0.0600 
    209 H209       -5.3967  -26.3355  -48.1797 H         1 UNK         0.0600 
    210 H210       -7.6750  -26.1834  -48.2257 H         1 UNK         0.3000 
    211 H211       -9.8753  -24.7400  -49.2628 H         1 UNK         0.0600 
    212 H212       -8.9024  -27.5905  -49.8508 H         1 UNK         0.0600 
    213 H213      -10.5002  -26.9621  -50.2346 H         1 UNK         0.0600 
    214 H214      -10.0042  -27.1173  -48.5567 H         1 UNK         0.0600 
    215 H215      -10.2590  -23.8168  -51.1852 H         1 UNK         0.3000 
    216 H216       -9.9449  -22.7773  -53.1120 H         1 UNK         0.0600 
    217 H217      -10.2207  -25.0829  -54.0652 H         1 UNK         0.0600 
    218 H218       -8.4718  -25.2985  -54.0525 H         1 UNK         0.0600 
    219 H219       -9.2041  -24.0723  -55.0770 H         1 UNK         0.0600 
    220 H220       -7.8569  -22.5597  -50.9815 H         1 UNK         0.3000 
    221 H221       -5.9101  -21.6956  -50.4755 H         1 UNK         0.0600 
    222 H222       -4.9503  -19.8822  -51.8925 H         1 UNK         0.0600 
    223 H223       -5.9759  -20.3574  -53.2359 H         1 UNK         0.0600 
    224 H224       -6.6896  -19.7098  -51.7610 H         1 UNK         0.0600 
    225 H225       -5.9672  -24.3518  -51.5800 H         1 UNK         0.3000 
    226 H226       -4.7225  -26.0303  -52.2827 H         1 UNK         0.0600 
    227 H227       -3.0056  -25.3189  -50.6565 H         1 UNK         0.0600 
    228 H228       -2.2431  -25.9758  -52.0906 H         1 UNK         0.0600 
    229 H229       -2.2753  -24.2369  -51.8395 H         1 UNK         0.0600 
    230 H230       -6.0502  -24.8090  -54.1461 H         1 UNK         0.3000 
    231 H231       -6.4136  -24.4870  -56.3004 H         1 UNK         0.0600 
    232 H232       -5.1371  -25.8013  -57.9639 H         1 UNK         0.0600 
    233 H233       -5.4751  -26.7859  -56.5495 H         1 UNK         0.0600 
    234 H234       -3.8628  -26.1166  -56.7945 H         1 UNK         0.0600 
    235 H235       -5.6050  -22.3281  -55.1688 H         1 UNK         0.3000 
    236 H236       -4.7534  -20.2890  -55.3229 H         1 UNK         0.0600 
    237 H237       -5.7959  -20.3072  -57.5855 H         1 UNK         0.0600 
    238 H238       -4.3660  -19.2887  -57.5398 H         1 UNK         0.0600 
    239 H239       -4.2833  -20.8742  -58.2923 H         1 UNK         0.0600 
    240 H240       -3.1166  -21.7962  -54.0251 H         1 UNK         0.3000 
    241 H241       -1.1565  -21.9526  -53.1365 H         1 UNK         0.0600 
    242 H242       -1.4427  -23.8739  -55.1427 H         1 UNK         0.3800 
    243 H243        0.1305  -24.1439  -55.8533 H         1 UNK         0.3800 
    244 H244       -0.2589  -19.5315  -54.7464 H         1 UNK         0.0800 
    245 H245        0.4431  -20.1198  -53.2563 H         1 UNK         0.0800 
    246 H246       -1.8938  -16.6683  -53.2520 H         1 UNK         0.0800 
    247 H247       -0.5222  -17.2916  -54.1245 H         1 UNK         0.0800 
@<TRIPOS>BOND
     1    1    2 1    
     2    1  127 1    
     3    1  128 1    
     4    1  129 1    
     5    2    3 2    
     6    2    4 am   BACKBONE|DICT|INTERRES
     7    4    5 1    
     8    4  130 1    
     9    5    6 1    
    10    5   65 1    
    11    5  131 1    
    12    6    7 1    
    13    6  132 1    
    14    6  133 1    
    15    7    8 1    
    16    8    9 1    
    17    8  134 1    
    18    8  135 1    
    19    9   10 ar   
    20    9   14 ar   
    21   10   11 ar   
    22   10  136 1    
    23   11   12 ar   
    24   11  126 1    
    25   12   13 ar   
    26   12  137 1    
    27   13   14 ar   
    28   13   15 1    
    29   14  138 1    
    30   15   16 1    
    31   15  139 1    
    32   15  140 1    
    33   16   17 1    
    34   17   18 1    
    35   17  141 1    
    36   17  142 1    
    37   18   19 1    
    38   18   67 1    
    39   18  143 1    
    40   19   20 am   BACKBONE|DICT|INTERRES
    41   19  144 1    
    42   20   21 2    
    43   20   22 1    
    44   22   23 1    
    45   22   24 1    
    46   22  145 1    
    47   23  146 1    
    48   23  147 1    
    49   23  148 1    
    50   24   25 am   BACKBONE|DICT|INTERRES
    51   24  149 1    
    52   25   26 2    
    53   25   27 1    
    54   27   28 1    
    55   27   29 1    
    56   27  150 1    
    57   28  151 1    
    58   28  152 1    
    59   28  153 1    
    60   29   30 am   BACKBONE|DICT|INTERRES
    61   29  154 1    
    62   30   31 2    
    63   30   32 1    
    64   32   33 1    
    65   32   34 1    
    66   32  155 1    
    67   33  156 1    
    68   33  157 1    
    69   33  158 1    
    70   34   35 am   BACKBONE|DICT|INTERRES
    71   34  159 1    
    72   35   36 2    
    73   35   37 1    
    74   37   38 1    
    75   37   39 1    
    76   37  160 1    
    77   38  161 1    
    78   38  162 1    
    79   38  163 1    
    80   39   40 am   BACKBONE|DICT|INTERRES
    81   39  164 1    
    82   40   41 2    
    83   40   42 1    
    84   42   43 1    
    85   42   44 1    
    86   42  165 1    
    87   43  166 1    
    88   43  167 1    
    89   43  168 1    
    90   44   45 am   BACKBONE|DICT|INTERRES
    91   44  169 1    
    92   45   46 2    
    93   45   47 1    
    94   47   48 1    
    95   47   49 1    
    96   47  170 1    
    97   48  171 1    
    98   48  172 1    
    99   48  173 1    
   100   49   50 am   BACKBONE|DICT|INTERRES
   101   49  174 1    
   102   50   51 2    
   103   50   52 1    
   104   52   53 1    
   105   52   54 1    
   106   52  175 1    
   107   53  176 1    
   108   53  177 1    
   109   53  178 1    
   110   54   55 am   BACKBONE|DICT|INTERRES
   111   54  179 1    
   112   55   56 2    
   113   55   57 1    
   114   57   58 1    
   115   57   59 1    
   116   57  180 1    
   117   58  181 1    
   118   58  182 1    
   119   58  183 1    
   120   59   60 am   BACKBONE|DICT|INTERRES
   121   59  184 1    
   122   60   61 2    
   123   60   62 1    
   124   62   63 1    
   125   62   64 1    
   126   62  185 1    
   127   63  186 1    
   128   63  187 1    
   129   63  188 1    
   130   64   65 am   BACKBONE|DICT|INTERRES
   131   64  189 1    
   132   65   66 2    
   133   67   68 2    
   134   67   69 am   BACKBONE|DICT|INTERRES
   135   69   70 1    
   136   69  190 1    
   137   70   71 1    
   138   70   72 1    
   139   70  191 1    
   140   71  192 1    
   141   71  193 1    
   142   71  194 1    
   143   72   73 2    
   144   72   74 am   BACKBONE|DICT|INTERRES
   145   74   75 1    
   146   74  195 1    
   147   75   76 1    
   148   75   77 1    
   149   75  196 1    
   150   76  197 1    
   151   76  198 1    
   152   76  199 1    
   153   77   78 2    
   154   77   79 am   BACKBONE|DICT|INTERRES
   155   79   80 1    
   156   79  200 1    
   157   80   81 1    
   158   80   82 1    
   159   80  201 1    
   160   81  202 1    
   161   81  203 1    
   162   81  204 1    
   163   82   83 2    
   164   82   84 am   BACKBONE|DICT|INTERRES
   165   84   85 1    
   166   84  205 1    
   167   85   86 1    
   168   85   87 1    
   169   85  206 1    
   170   86  207 1    
   171   86  208 1    
   172   86  209 1    
   173   87   88 2    
   174   87   89 am   BACKBONE|DICT|INTERRES
   175   89   90 1    
   176   89  210 1    
   177   90   91 1    
   178   90   92 1    
   179   90  211 1    
   180   91  212 1    
   181   91  213 1    
   182   91  214 1    
   183   92   93 2    
   184   92   94 am   BACKBONE|DICT|INTERRES
   185   94   95 1    
   186   94  215 1    
   187   95   96 1    
   188   95   97 1    
   189   95  216 1    
   190   96  217 1    
   191   96  218 1    
   192   96  219 1    
   193   97   98 2    
   194   97   99 am   BACKBONE|DICT|INTERRES
   195   99  100 1    
   196   99  220 1    
   197  100  101 1    
   198  100  102 1    
   199  100  221 1    
   200  101  222 1    
   201  101  223 1    
   202  101  224 1    
   203  102  103 2    
   204  102  104 am   BACKBONE|DICT|INTERRES
   205  104  105 1    
   206  104  225 1    
   207  105  106 1    
   208  105  107 1    
   209  105  226 1    
   210  106  227 1    
   211  106  228 1    
   212  106  229 1    
   213  107  108 2    
   214  107  109 am   BACKBONE|DICT|INTERRES
   215  109  110 1    
   216  109  230 1    
   217  110  111 1    
   218  110  112 1    
   219  110  231 1    
   220  111  232 1    
   221  111  233 1    
   222  111  234 1    
   223  112  113 2    
   224  112  114 am   BACKBONE|DICT|INTERRES
   225  114  115 1    
   226  114  235 1    
   227  115  116 1    
   228  115  117 1    
   229  115  236 1    
   230  116  237 1    
   231  116  238 1    
   232  116  239 1    
   233  117  118 2    
   234  117  119 am   BACKBONE|DICT|INTERRES
   235  119  120 1    
   236  119  240 1    
   237  120  121 1    
   238  120  124 1    
   239  120  241 1    
   240  121  122 am   BACKBONE|DICT|INTERRES
   241  121  123 2    
   242  122  242 1    
   243  122  243 1    
   244  124  125 1    
   245  124  244 1    
   246  124  245 1    
   247  125  126 1    
   248  126  246 1    
   249  126  247 1    
@<TRIPOS>SUBSTRUCTURE
     1 UNK         1 GROUP             0       ****    0 ROOT    
