@<TRIPOS>MOLECULE
3R540
247   249    1
SMALL
USER_CHARGES


@<TRIPOS>ATOM
      1 CA         -0.8560  -13.4186  -42.5826 C.3       0 UNK        -0.1800 
      2 C          -1.4917  -12.3914  -43.5071 C.2       0 UNK         0.5000 
      3 O          -2.1280  -11.4515  -43.0314 O.2       0 UNK        -0.5000 
      4 N          -1.3276  -12.5743  -44.8241 N.am      1 UNK        -0.5000 
      5 CA         -1.9024  -11.7268  -45.8795 C.3       1 UNK         0.1400 
      6 C6         -1.7343  -12.3492  -47.2888 C.3       23 UNK        -0.0398 
      7 S7         -2.3119  -14.0776  -47.3866 S.3       23 UNK        -0.2404 
      8 C8         -1.2723  -14.6947  -48.7476 C.3       23 UNK        -0.0205 
      9 C9         -1.4416  -16.1919  -48.9512 C.ar      23 UNK        -0.0193 
     10 C10        -2.6440  -16.6956  -49.4545 C.ar      23 UNK        -0.1150 
     11 C11        -2.8061  -18.0657  -49.6751 C.ar      23 UNK        -0.0193 
     12 C12        -1.7504  -18.9350  -49.3861 C.ar      23 UNK        -0.1150 
     13 C13        -0.5457  -18.4474  -48.8710 C.ar      23 UNK        -0.0193 
     14 C14        -0.3954  -17.0734  -48.6586 C.ar      23 UNK        -0.1150 
     15 C15         0.5917  -19.4073  -48.5566 C.3       23 UNK        -0.0205 
     16 S16         0.7178  -19.7219  -46.7675 S.3       23 UNK        -0.2404 
     17 C17         1.3646  -21.4287  -46.7327 C.3       23 UNK        -0.0398 
     18 CA          0.3351  -22.5197  -46.3376 C.3       11 UNK         0.1400 
     19 N          -0.1174  -22.4318  -44.9437 N.am      11 UNK        -0.5000 
     20 C          -0.6738  -23.4647  -44.2902 C.2       10 UNK         0.5000 
     21 O          -0.8564  -24.5707  -44.7985 O.2       10 UNK        -0.5000 
     22 CA         -1.1327  -23.2264  -42.8414 C.3       10 UNK         0.1400 
     23 CB          0.0630  -23.2801  -41.8786 C.3       10 UNK        -0.1800 
     24 N          -1.8452  -21.9641  -42.6575 N.am      10 UNK        -0.5000 
     25 C          -3.0058  -21.6333  -43.2432 C.2       9 UNK         0.5000 
     26 O          -3.6103  -22.3663  -44.0244 O.2       9 UNK        -0.5000 
     27 CA         -3.5670  -20.2325  -42.9217 C.3       9 UNK         0.1400 
     28 CB         -4.5551  -20.3041  -41.7483 C.3       9 UNK        -0.1800 
     29 N          -2.5101  -19.2649  -42.6090 N.am      9 UNK        -0.5000 
     30 C          -1.6049  -18.8512  -43.5039 C.2       8 UNK         0.5000 
     31 O          -1.6544  -19.1492  -44.6990 O.2       8 UNK        -0.5000 
     32 CA         -0.4207  -18.0393  -42.9600 C.3       8 UNK         0.1400 
     33 CB          0.4749  -18.9269  -42.0689 C.3       8 UNK        -0.1800 
     34 N           0.3484  -17.5234  -44.0872 N.am      8 UNK        -0.5000 
     35 C           1.3090  -16.5987  -44.0208 C.2       7 UNK         0.5000 
     36 O           1.6492  -16.0363  -42.9786 O.2       7 UNK        -0.5000 
     37 CA          1.9687  -16.1979  -45.3499 C.3       7 UNK         0.1400 
     38 CB          1.3090  -14.9294  -45.9120 C.3       7 UNK        -0.1800 
     39 N           3.3968  -15.9490  -45.1748 N.am      7 UNK        -0.5000 
     40 C           4.3262  -16.9038  -45.0417 C.2       6 UNK         0.5000 
     41 O           4.0790  -18.1094  -45.0865 O.2       6 UNK        -0.5000 
     42 CA          5.7755  -16.4393  -44.8285 C.3       6 UNK         0.1400 
     43 CB          6.3720  -15.9060  -46.1417 C.3       6 UNK        -0.1800 
     44 N           5.8565  -15.3940  -43.8088 N.am      6 UNK        -0.5000 
     45 C           6.5334  -15.4913  -42.6555 C.2       5 UNK         0.5000 
     46 O           7.1644  -16.4930  -42.3150 O.2       5 UNK        -0.5000 
     47 CA          6.5271  -14.2618  -41.7215 C.3       5 UNK         0.1400 
     48 CB          7.8214  -13.4519  -41.8951 C.3       5 UNK        -0.1800 
     49 N           5.3857  -13.3764  -41.9486 N.am      5 UNK        -0.5000 
     50 C           4.1246  -13.6527  -41.5931 C.2       4 UNK         0.5000 
     51 O           3.8183  -14.6166  -40.8912 O.2       4 UNK        -0.5000 
     52 CA          3.0189  -12.7048  -42.1082 C.3       4 UNK         0.1400 
     53 CB          2.4242  -11.8867  -40.9513 C.3       4 UNK        -0.1800 
     54 N           3.4246  -11.7763  -43.1721 N.am      4 UNK        -0.5000 
     55 C           3.8751  -12.1077  -44.3886 C.2       3 UNK         0.5000 
     56 O           4.0867  -13.2690  -44.7402 O.2       3 UNK        -0.5000 
     57 CA          4.0964  -10.9447  -45.3739 C.3       3 UNK         0.1400 
     58 CB          4.7822  -11.4012  -46.6744 C.3       3 UNK        -0.1800 
     59 N           2.8211  -10.3134  -45.7106 N.am      3 UNK        -0.5000 
     60 C           2.1776   -9.4069  -44.9614 C.2       2 UNK         0.5000 
     61 O           2.6098   -8.9660  -43.8959 O.2       2 UNK        -0.5000 
     62 CA          0.7873   -8.9958  -45.4581 C.3       2 UNK         0.1400 
     63 CB          0.8785   -8.2105  -46.7826 C.3       2 UNK        -0.1800 
     64 N          -0.0083  -10.2126  -45.5973 N.am      2 UNK        -0.5000 
     65 C          -1.3161  -10.2987  -45.8662 C.2       1 UNK         0.5000 
     66 O          -2.0467   -9.3314  -46.0838 O.2       1 UNK        -0.5000 
     67 C          -0.8545  -22.6191  -47.3144 C.2       11 UNK         0.5000 
     68 O          -0.7742  -23.3710  -48.2847 O.2       11 UNK        -0.5000 
     69 N          -1.9539  -21.9122  -47.0099 N.am      12 UNK        -0.5000 
     70 CA         -3.2152  -21.9863  -47.7459 C.3       12 UNK         0.1400 
     71 CB         -4.1682  -20.8863  -47.2555 C.3       12 UNK        -0.1800 
     72 C          -3.8672  -23.3748  -47.6429 C.2       12 UNK         0.5000 
     73 O          -4.3130  -23.9063  -48.6597 O.2       12 UNK        -0.5000 
     74 N          -3.8684  -23.9524  -46.4332 N.am      13 UNK        -0.5000 
     75 CA         -4.3457  -25.3064  -46.1560 C.3       13 UNK         0.1400 
     76 CB         -4.3931  -25.5404  -44.6387 C.3       13 UNK        -0.1800 
     77 C          -3.4993  -26.3860  -46.8529 C.2       13 UNK         0.5000 
     78 O          -4.0670  -27.2934  -47.4606 O.2       13 UNK        -0.5000 
     79 N          -2.1660  -26.2491  -46.7956 N.am      14 UNK        -0.5000 
     80 CA         -1.2075  -27.1374  -47.4612 C.3       14 UNK         0.1400 
     81 CB          0.2188  -26.7805  -47.0174 C.3       14 UNK        -0.1800 
     82 C          -1.3212  -27.1037  -48.9973 C.2       14 UNK         0.5000 
     83 O          -1.2146  -28.1480  -49.6409 O.2       14 UNK        -0.5000 
     84 N          -1.5733  -25.9104  -49.5499 N.am      15 UNK        -0.5000 
     85 CA         -1.8383  -25.6776  -50.9698 C.3       15 UNK         0.1400 
     86 CB         -1.6299  -24.1827  -51.2572 C.3       15 UNK        -0.1800 
     87 C          -3.2525  -26.1014  -51.4165 C.2       15 UNK         0.5000 
     88 O          -3.5241  -26.1019  -52.6194 O.2       15 UNK        -0.5000 
     89 N          -4.1386  -26.3883  -50.4485 N.am      16 UNK        -0.5000 
     90 CA         -5.5766  -26.6433  -50.5943 C.3       16 UNK         0.1400 
     91 CB         -5.8139  -28.0069  -51.2739 C.3       16 UNK        -0.1800 
     92 C          -6.3063  -25.4822  -51.3043 C.2       16 UNK         0.5000 
     93 O          -7.2194  -25.7170  -52.0981 O.2       16 UNK        -0.5000 
     94 N          -5.8292  -24.2524  -51.0550 N.am      17 UNK        -0.5000 
     95 CA         -6.1111  -22.9787  -51.7283 C.3       17 UNK         0.1400 
     96 CB         -7.5819  -22.5629  -51.5464 C.3       17 UNK        -0.1800 
     97 C          -5.7005  -22.9350  -53.2164 C.2       17 UNK         0.5000 
     98 O          -5.1137  -21.9439  -53.6522 O.2       17 UNK        -0.5000 
     99 N          -6.0116  -23.9984  -53.9654 N.am      18 UNK        -0.5000 
    100 CA        -5.8400  -24.1461  -55.4081 C.3       18 UNK         0.1400 
    101 CB        -6.3700  -25.5225  -55.8370 C.3       18 UNK        -0.1800 
    102 C         -4.3996  -23.9427  -55.9041 C.2       18 UNK         0.5000 
    103 O         -4.2004  -23.2042  -56.8689 O.2       18 UNK        -0.5000 
    104 N         -3.4160  -24.5601  -55.2320 N.am      19 UNK        -0.5000 
    105 CA        -2.0026  -24.4732  -55.6225 C.3       19 UNK         0.1400 
    106 CB        -1.2073  -25.6111  -54.9653 C.3       19 UNK        -0.1800 
    107 C         -1.3662  -23.1007  -55.3214 C.2       19 UNK         0.5000 
    108 O         -0.3386  -22.7688  -55.9130 O.2       19 UNK        -0.5000 
    109 N         -1.9977  -22.3214  -54.4336 N.am      20 UNK        -0.5000 
    110 CA        -1.6352  -20.9397  -54.1174 C.3       20 UNK         0.1400 
    111 CB        -1.9064  -20.6940  -52.6234 C.3       20 UNK        -0.1800 
    112 C         -2.3982  -19.9236  -54.9941 C.2       20 UNK         0.5000 
    113 O         -2.1264  -18.7269  -54.8955 O.2       20 UNK        -0.5000 
    114 N         -3.3357  -20.4119  -55.8241 N.am      21 UNK        -0.5000 
    115 CA        -4.2761  -19.6608  -56.6625 C.3       21 UNK         0.1400 
    116 CB        -3.5353  -18.8448  -57.7426 C.3       21 UNK        -0.1800 
    117 C         -5.2779  -18.8190  -55.8416 C.2       21 UNK         0.5000 
    118 O         -5.7453  -17.7812  -56.3147 O.2       21 UNK        -0.5000 
    119 N         -5.5996  -19.2907  -54.6310 N.am      22 UNK        -0.5000 
    120 CA        -6.5304  -18.6520  -53.6873 C.3       22 UNK         0.1400 
    121 C         -8.0046  -19.1251  -53.8493 C.2       22 UNK         0.5000 
    122 N         -8.3072  -20.0894  -54.7105 N.am      22 UNK        -0.7600 
    123 O         -8.8953  -18.5996  -53.1875 O.2       22 UNK        -0.5000 
    124 C124       -6.0540  -18.8175  -52.2211 C.3       23 UNK        -0.0398 
    125 S125       -4.4101  -18.0873  -51.9296 S.3       23 UNK        -0.2404 
    126 C126       -4.1270  -18.5998  -50.2084 C.3       23 UNK        -0.0205 
    127 H127       -1.6278  -14.0134  -42.0948 H         1 UNK         0.0600 
    128 H128       -0.1981  -14.0945  -43.1262 H         1 UNK         0.0600 
    129 H129       -0.2698  -12.9218  -41.8105 H         1 UNK         0.0600 
    130 H130       -0.8412  -13.3951  -45.1512 H         1 UNK         0.3000 
    131 H131       -2.9723  -11.6406  -45.6773 H         1 UNK         0.0600 
    132 H132       -0.6865  -12.3149  -47.5932 H         1 UNK         0.0800 
    133 H133       -2.2860  -11.7666  -48.0290 H         1 UNK         0.0800 
    134 H134       -0.2267  -14.4566  -48.5485 H         1 UNK         0.0800 
    135 H135       -1.5378  -14.1732  -49.6684 H         1 UNK         0.0800 
    136 H136       -3.4558  -16.0179  -49.6794 H         1 UNK         0.1150 
    137 H137       -1.8638  -19.9941  -49.5608 H         1 UNK         0.1150 
    138 H138        0.5385  -16.6941  -48.2692 H         1 UNK         0.1150 
    139 H139        0.4379  -20.3456  -49.0919 H         1 UNK         0.0800 
    140 H140        1.5361  -18.9982  -48.9181 H         1 UNK         0.0800 
    141 H141        1.8079  -21.6694  -47.7003 H         1 UNK         0.0800 
    142 H142        2.1962  -21.4490  -46.0273 H         1 UNK         0.0800 
    143 H143        0.8705  -23.4677  -46.4266 H         1 UNK         0.0600 
    144 H144       -0.0338  -21.5341  -44.4900 H         1 UNK         0.3000 
    145 H145       -1.8185  -24.0340  -42.5766 H         1 UNK         0.0600 
    146 H146       -0.2630  -23.2097  -40.8407 H         1 UNK         0.0600 
    147 H147        0.6065  -24.2201  -41.9836 H         1 UNK         0.0600 
    148 H148        0.7693  -22.4699  -42.0644 H         1 UNK         0.0600 
    149 H149       -1.4272  -21.2992  -42.0252 H         1 UNK         0.3000 
    150 H150       -4.1066  -19.8811  -43.8039 H         1 UNK         0.0600 
    151 H151       -5.3651  -21.0025  -41.9634 H         1 UNK         0.0600 
    152 H152       -5.0088  -19.3319  -41.5549 H         1 UNK         0.0600 
    153 H153       -4.0691  -20.6376  -40.8306 H         1 UNK         0.0600 
    154 H154       -2.4273  -18.9761  -41.6447 H         1 UNK         0.3000 
    155 H155       -0.8127  -17.2008  -42.3810 H         1 UNK         0.0600 
    156 H156        1.3096  -18.3640  -41.6516 H         1 UNK         0.0600 
    157 H157        0.8894  -19.7660  -42.6293 H         1 UNK         0.0600 
    158 H158       -0.0802  -19.3355  -41.2241 H         1 UNK         0.0600 
    159 H159        0.0870  -17.9358  -44.9770 H         1 UNK         0.3000 
    160 H160        1.8410  -17.0055  -46.0730 H         1 UNK         0.0600 
    161 H161        1.4134  -14.0854  -45.2293 H         1 UNK         0.0600 
    162 H162        0.2447  -15.0930  -46.0797 H         1 UNK         0.0600 
    163 H163        1.7517  -14.6442  -46.8665 H         1 UNK         0.0600 
    164 H164        3.6703  -14.9737  -45.0813 H         1 UNK         0.3000 
    165 H165        6.3550  -17.3151  -44.5294 H         1 UNK         0.0600 
    166 H166        5.8498  -15.0138  -46.4904 H         1 UNK         0.0600 
    167 H167        7.4241  -15.6492  -46.0181 H         1 UNK         0.0600 
    168 H168        6.3102  -16.6549  -46.9323 H         1 UNK         0.0600 
    169 H169        5.3285  -14.5477  -43.9961 H         1 UNK         0.3000 
    170 H170        6.4870  -14.6263  -40.6928 H         1 UNK         0.0600 
    171 H171        8.6986  -14.0716  -41.7038 H         1 UNK         0.0600 
    172 H172        7.9150  -13.0543  -42.9066 H         1 UNK         0.0600 
    173 H173        7.8593  -12.6140  -41.1988 H         1 UNK         0.0600 
    174 H174        5.5520  -12.5526  -42.5068 H         1 UNK         0.3000 
    175 H175        2.2312  -13.3395  -42.5180 H         1 UNK         0.0600 
    176 H176        3.1684  -11.2262  -40.5049 H         1 UNK         0.0600 
    177 H177        1.5897  -11.2718  -41.2891 H         1 UNK         0.0600 
    178 H178        2.0470  -12.5389  -40.1625 H         1 UNK         0.0600 
    179 H179        3.2644  -10.7918  -42.9910 H         1 UNK         0.3000 
    180 H180        4.7480  -10.2149  -44.8886 H         1 UNK         0.0600 
    181 H181        4.1766  -12.1271  -47.2188 H         1 UNK         0.0600 
    182 H182        5.7453  -11.8687  -46.4651 H         1 UNK         0.0600 
    183 H183        4.9696  -10.5567  -47.3378 H         1 UNK         0.0600 
    184 H184        2.3893  -10.6224  -46.5694 H         1 UNK         0.3000 
    185 H185        0.3268   -8.3623  -44.6973 H         1 UNK         0.0600 
    186 H186        1.5683   -7.3706  -46.6907 H         1 UNK         0.0600 
    187 H187        1.2292   -8.8362  -47.6038 H         1 UNK         0.0600 
    188 H188       -0.0880   -7.7972  -47.0698 H         1 UNK         0.0600 
    189 H189        0.4791  -11.0686  -45.3731 H         1 UNK         0.3000 
    190 H190       -1.9306  -21.3064  -46.2008 H         1 UNK         0.3000 
    191 H191       -3.0009  -21.8073  -48.8006 H         1 UNK         0.0600 
    192 H192       -5.0861  -20.8759  -47.8444 H         1 UNK         0.0600 
    193 H193       -3.7124  -19.8999  -47.3425 H         1 UNK         0.0600 
    194 H194       -4.4499  -21.0289  -46.2123 H         1 UNK         0.0600 
    195 H195       -3.5363  -23.4180  -45.6351 H         1 UNK         0.3000 
    196 H196       -5.3644  -25.3841  -46.5415 H         1 UNK         0.0600 
    197 H197       -4.7597  -26.5414  -44.4085 H         1 UNK         0.0600 
    198 H198       -5.0612  -24.8294  -44.1522 H         1 UNK         0.0600 
    199 H199       -3.4082  -25.4375  -44.1827 H         1 UNK         0.0600 
    200 H200       -1.7735  -25.5012  -46.2302 H         1 UNK         0.3000 
    201 H201       -1.4194  -28.1580  -47.1359 H         1 UNK         0.0600 
    202 H202        0.3308  -26.8740  -45.9371 H         1 UNK         0.0600 
    203 H203        0.4816  -25.7594  -47.2946 H         1 UNK         0.0600 
    204 H204        0.9500  -27.4452  -47.4790 H         1 UNK         0.0600 
    205 H205       -1.5716  -25.0872  -48.9552 H         1 UNK         0.3000 
    206 H206       -1.1202  -26.2505  -51.5594 H         1 UNK         0.0600 
    207 H207       -0.6034  -23.8793  -51.0512 H         1 UNK         0.0600 
    208 H208       -1.8334  -23.9485  -52.2994 H         1 UNK         0.0600 
    209 H209       -2.2915  -23.5610  -50.6531 H         1 UNK         0.0600 
    210 H210       -3.8111  -26.3429  -49.4922 H         1 UNK         0.3000 
    211 H211       -5.9864  -26.6938  -49.5847 H         1 UNK         0.0600 
    212 H212       -5.4740  -28.0072  -52.3101 H         1 UNK         0.0600 
    213 H213       -6.8737  -28.2642  -51.2765 H         1 UNK         0.0600 
    214 H214       -5.2884  -28.8042  -50.7482 H         1 UNK         0.0600 
    215 H215       -5.1150  -24.1924  -50.3319 H         1 UNK         0.3000 
    216 H216       -5.4942  -22.2384  -51.2165 H         1 UNK         0.0600 
    217 H217       -8.2670  -23.2617  -52.0267 H         1 UNK         0.0600 
    218 H218       -7.7690  -21.5808  -51.9805 H         1 UNK         0.0600 
    219 H219       -7.8462  -22.5069  -50.4904 H         1 UNK         0.0600 
    220 H220       -6.4879  -24.7601  -53.4885 H         1 UNK         0.3000 
    221 H221       -6.4586  -23.3823  -55.8834 H         1 UNK         0.0600 
    222 H222       -5.8293  -26.3319  -55.3443 H         1 UNK         0.0600 
    223 H223       -7.4270  -25.6307  -55.5931 H         1 UNK         0.0600 
    224 H224       -6.2687  -25.6648  -56.9138 H         1 UNK         0.0600 
    225 H225       -3.6379  -25.1312  -54.4211 H         1 UNK         0.3000 
    226 H226       -1.9449  -24.6197  -56.7033 H         1 UNK         0.0600 
    227 H227       -1.6482  -26.5826  -55.1891 H         1 UNK         0.0600 
    228 H228       -0.1800  -25.6282  -55.3310 H         1 UNK         0.0600 
    229 H229       -1.1632  -25.5049  -53.8838 H         1 UNK         0.0600 
    230 H230       -2.8583  -22.6595  -54.0246 H         1 UNK         0.3000 
    231 H231       -0.5692  -20.7851  -54.2954 H         1 UNK         0.0600 
    232 H232       -2.9542  -20.8567  -52.3699 H         1 UNK         0.0600 
    233 H233       -1.3027  -21.3515  -51.9985 H         1 UNK         0.0600 
    234 H234       -1.6578  -19.6694  -52.3439 H         1 UNK         0.0600 
    235 H235       -3.4668  -21.4154  -55.8426 H         1 UNK         0.3000 
    236 H236       -4.8753  -20.4117  -57.1792 H         1 UNK         0.0600 
    237 H237       -2.8354  -19.4696  -58.2975 H         1 UNK         0.0600 
    238 H238       -4.2370  -18.4260  -58.4647 H         1 UNK         0.0600 
    239 H239       -2.9766  -18.0131  -57.3129 H         1 UNK         0.0600 
    240 H240       -5.2017  -20.1744  -54.3245 H         1 UNK         0.3000 
    241 H241       -6.5485  -17.5805  -53.8950 H         1 UNK         0.0600 
    242 H242       -7.5876  -20.5199  -55.2672 H         1 UNK         0.3800 
    243 H243       -9.2667  -20.3802  -54.8136 H         1 UNK         0.3800 
    244 H244       -6.7546  -18.3425  -51.5320 H         1 UNK         0.0800 
    245 H245       -6.0188  -19.8725  -51.9500 H         1 UNK         0.0800 
    246 H246       -4.1526  -19.6890  -50.1522 H         1 UNK         0.0800 
    247 H247       -4.9408  -18.2348  -49.5801 H         1 UNK         0.0800 
@<TRIPOS>BOND
     1    1    2 1    
     2    1  127 1    
     3    1  128 1    
     4    1  129 1    
     5    2    3 2    
     6    2    4 am   BACKBONE|DICT|INTERRES
     7    4    5 1    
     8    4  130 1    
     9    5    6 1    
    10    5   65 1    
    11    5  131 1    
    12    6    7 1    
    13    6  132 1    
    14    6  133 1    
    15    7    8 1    
    16    8    9 1    
    17    8  134 1    
    18    8  135 1    
    19    9   10 ar   
    20    9   14 ar   
    21   10   11 ar   
    22   10  136 1    
    23   11   12 ar   
    24   11  126 1    
    25   12   13 ar   
    26   12  137 1    
    27   13   14 ar   
    28   13   15 1    
    29   14  138 1    
    30   15   16 1    
    31   15  139 1    
    32   15  140 1    
    33   16   17 1    
    34   17   18 1    
    35   17  141 1    
    36   17  142 1    
    37   18   19 1    
    38   18   67 1    
    39   18  143 1    
    40   19   20 am   BACKBONE|DICT|INTERRES
    41   19  144 1    
    42   20   21 2    
    43   20   22 1    
    44   22   23 1    
    45   22   24 1    
    46   22  145 1    
    47   23  146 1    
    48   23  147 1    
    49   23  148 1    
    50   24   25 am   BACKBONE|DICT|INTERRES
    51   24  149 1    
    52   25   26 2    
    53   25   27 1    
    54   27   28 1    
    55   27   29 1    
    56   27  150 1    
    57   28  151 1    
    58   28  152 1    
    59   28  153 1    
    60   29   30 am   BACKBONE|DICT|INTERRES
    61   29  154 1    
    62   30   31 2    
    63   30   32 1    
    64   32   33 1    
    65   32   34 1    
    66   32  155 1    
    67   33  156 1    
    68   33  157 1    
    69   33  158 1    
    70   34   35 am   BACKBONE|DICT|INTERRES
    71   34  159 1    
    72   35   36 2    
    73   35   37 1    
    74   37   38 1    
    75   37   39 1    
    76   37  160 1    
    77   38  161 1    
    78   38  162 1    
    79   38  163 1    
    80   39   40 am   BACKBONE|DICT|INTERRES
    81   39  164 1    
    82   40   41 2    
    83   40   42 1    
    84   42   43 1    
    85   42   44 1    
    86   42  165 1    
    87   43  166 1    
    88   43  167 1    
    89   43  168 1    
    90   44   45 am   BACKBONE|DICT|INTERRES
    91   44  169 1    
    92   45   46 2    
    93   45   47 1    
    94   47   48 1    
    95   47   49 1    
    96   47  170 1    
    97   48  171 1    
    98   48  172 1    
    99   48  173 1    
   100   49   50 am   BACKBONE|DICT|INTERRES
   101   49  174 1    
   102   50   51 2    
   103   50   52 1    
   104   52   53 1    
   105   52   54 1    
   106   52  175 1    
   107   53  176 1    
   108   53  177 1    
   109   53  178 1    
   110   54   55 am   BACKBONE|DICT|INTERRES
   111   54  179 1    
   112   55   56 2    
   113   55   57 1    
   114   57   58 1    
   115   57   59 1    
   116   57  180 1    
   117   58  181 1    
   118   58  182 1    
   119   58  183 1    
   120   59   60 am   BACKBONE|DICT|INTERRES
   121   59  184 1    
   122   60   61 2    
   123   60   62 1    
   124   62   63 1    
   125   62   64 1    
   126   62  185 1    
   127   63  186 1    
   128   63  187 1    
   129   63  188 1    
   130   64   65 am   BACKBONE|DICT|INTERRES
   131   64  189 1    
   132   65   66 2    
   133   67   68 2    
   134   67   69 am   BACKBONE|DICT|INTERRES
   135   69   70 1    
   136   69  190 1    
   137   70   71 1    
   138   70   72 1    
   139   70  191 1    
   140   71  192 1    
   141   71  193 1    
   142   71  194 1    
   143   72   73 2    
   144   72   74 am   BACKBONE|DICT|INTERRES
   145   74   75 1    
   146   74  195 1    
   147   75   76 1    
   148   75   77 1    
   149   75  196 1    
   150   76  197 1    
   151   76  198 1    
   152   76  199 1    
   153   77   78 2    
   154   77   79 am   BACKBONE|DICT|INTERRES
   155   79   80 1    
   156   79  200 1    
   157   80   81 1    
   158   80   82 1    
   159   80  201 1    
   160   81  202 1    
   161   81  203 1    
   162   81  204 1    
   163   82   83 2    
   164   82   84 am   BACKBONE|DICT|INTERRES
   165   84   85 1    
   166   84  205 1    
   167   85   86 1    
   168   85   87 1    
   169   85  206 1    
   170   86  207 1    
   171   86  208 1    
   172   86  209 1    
   173   87   88 2    
   174   87   89 am   BACKBONE|DICT|INTERRES
   175   89   90 1    
   176   89  210 1    
   177   90   91 1    
   178   90   92 1    
   179   90  211 1    
   180   91  212 1    
   181   91  213 1    
   182   91  214 1    
   183   92   93 2    
   184   92   94 am   BACKBONE|DICT|INTERRES
   185   94   95 1    
   186   94  215 1    
   187   95   96 1    
   188   95   97 1    
   189   95  216 1    
   190   96  217 1    
   191   96  218 1    
   192   96  219 1    
   193   97   98 2    
   194   97   99 am   BACKBONE|DICT|INTERRES
   195   99  100 1    
   196   99  220 1    
   197  100  101 1    
   198  100  102 1    
   199  100  221 1    
   200  101  222 1    
   201  101  223 1    
   202  101  224 1    
   203  102  103 2    
   204  102  104 am   BACKBONE|DICT|INTERRES
   205  104  105 1    
   206  104  225 1    
   207  105  106 1    
   208  105  107 1    
   209  105  226 1    
   210  106  227 1    
   211  106  228 1    
   212  106  229 1    
   213  107  108 2    
   214  107  109 am   BACKBONE|DICT|INTERRES
   215  109  110 1    
   216  109  230 1    
   217  110  111 1    
   218  110  112 1    
   219  110  231 1    
   220  111  232 1    
   221  111  233 1    
   222  111  234 1    
   223  112  113 2    
   224  112  114 am   BACKBONE|DICT|INTERRES
   225  114  115 1    
   226  114  235 1    
   227  115  116 1    
   228  115  117 1    
   229  115  236 1    
   230  116  237 1    
   231  116  238 1    
   232  116  239 1    
   233  117  118 2    
   234  117  119 am   BACKBONE|DICT|INTERRES
   235  119  120 1    
   236  119  240 1    
   237  120  121 1    
   238  120  124 1    
   239  120  241 1    
   240  121  122 am   BACKBONE|DICT|INTERRES
   241  121  123 2    
   242  122  242 1    
   243  122  243 1    
   244  124  125 1    
   245  124  244 1    
   246  124  245 1    
   247  125  126 1    
   248  126  246 1    
   249  126  247 1    
@<TRIPOS>SUBSTRUCTURE
     1 UNK         1 GROUP             0       ****    0 ROOT    
