@<TRIPOS>MOLECULE
3R540
247   249    1
SMALL
USER_CHARGES


@<TRIPOS>ATOM
      1 CA          2.5703   -9.5517  -49.5233 C.3       0 UNK        -0.1800 
      2 C           2.3078  -10.4543  -48.3267 C.2       0 UNK         0.5000 
      3 O           3.0387  -10.3890  -47.3400 O.2       0 UNK        -0.5000 
      4 N           1.2519  -11.2755  -48.4004 N.am      1 UNK        -0.5000 
      5 CA          0.8530  -12.2830  -47.4018 C.3       1 UNK         0.1400 
      6 C6         -0.2202  -13.2429  -47.9737 C.3       23 UNK        -0.0398 
      7 S7          0.4278  -14.2295  -49.3662 S.3       23 UNK        -0.2404 
      8 C8         -0.5307  -15.7652  -49.1901 C.3       23 UNK        -0.0205 
      9 C9          0.0067  -16.8565  -50.1015 C.ar      23 UNK        -0.0193 
     10 C10        -0.3748  -16.9076  -51.4462 C.ar      23 UNK        -0.1150 
     11 C11         0.1131  -17.9159  -52.2835 C.ar      23 UNK        -0.0193 
     12 C12         0.9801  -18.8809  -51.7638 C.ar      23 UNK        -0.1150 
     13 C13         1.3741  -18.8357  -50.4237 C.ar      23 UNK        -0.0193 
     14 C14         0.8869  -17.8191  -49.5978 C.ar      23 UNK        -0.1150 
     15 C15         2.3410  -19.8764  -49.8812 C.3       23 UNK        -0.0205 
     16 S16         1.4752  -21.3751  -49.3233 S.3       23 UNK        -0.2404 
     17 C17         0.9292  -20.8691  -47.6586 C.3       23 UNK        -0.0398 
     18 CA          0.2080  -22.0175  -46.9134 C.3       11 UNK         0.1400 
     19 N           0.3417  -21.9093  -45.4576 N.am      11 UNK        -0.5000 
     20 C          -0.0340  -22.8542  -44.5832 C.2       10 UNK         0.5000 
     21 O          -0.5051  -23.9414  -44.9167 O.2       10 UNK        -0.5000 
     22 CA          0.0832  -22.5041  -43.0881 C.3       10 UNK         0.1400 
     23 CB          1.5264  -22.6693  -42.5894 C.3       10 UNK        -0.1800 
     24 N          -0.3914  -21.1487  -42.8060 N.am      10 UNK        -0.5000 
     25 C          -1.6714  -20.7655  -42.9209 C.2       9 UNK         0.5000 
     26 O          -2.5926  -21.5397  -43.1802 O.2       9 UNK        -0.5000 
     27 CA         -1.9727  -19.2643  -42.7548 C.3       9 UNK         0.1400 
     28 CB         -2.1716  -18.9127  -41.2732 C.3       9 UNK        -0.1800 
     29 N          -0.9389  -18.4021  -43.3316 N.am      9 UNK        -0.5000 
     30 C          -0.6308  -18.3439  -44.6354 C.2       8 UNK         0.5000 
     31 O          -1.2132  -18.9910  -45.5039 O.2       8 UNK        -0.5000 
     32 CA          0.5691  -17.4639  -45.0321 C.3       8 UNK         0.1400 
     33 CB          0.1714  -15.9833  -45.0919 C.3       8 UNK        -0.1800 
     34 N           1.7105  -17.6404  -44.1335 N.am      8 UNK        -0.5000 
     35 C           2.3682  -18.7973  -43.9699 C.2       7 UNK         0.5000 
     36 O           2.1269  -19.8158  -44.6162 O.2       7 UNK        -0.5000 
     37 CA          3.4283  -18.8438  -42.8585 C.3       7 UNK         0.1400 
     38 CB          4.7793  -18.3117  -43.3596 C.3       7 UNK        -0.1800 
     39 N           2.9971  -18.0926  -41.6796 N.am      7 UNK        -0.5000 
     40 C           2.0510  -18.5127  -40.8276 C.2       6 UNK         0.5000 
     41 O           1.4807  -19.5993  -40.9264 O.2       6 UNK        -0.5000 
     42 CA          1.6486  -17.5431  -39.6994 C.3       6 UNK         0.1400 
     43 CB          2.6006  -17.6817  -38.5023 C.3       6 UNK        -0.1800 
     44 N           1.6180  -16.1453  -40.1350 N.am      6 UNK        -0.5000 
     45 C           0.7400  -15.6488  -41.0178 C.2       5 UNK         0.5000 
     46 O          -0.1677  -16.3113  -41.5171 O.2       5 UNK        -0.5000 
     47 CA          0.9329  -14.1834  -41.4551 C.3       5 UNK         0.1400 
     48 CB          0.1292  -13.2389  -40.5499 C.3       5 UNK        -0.1800 
     49 N           2.3291  -13.7391  -41.4961 N.am      5 UNK        -0.5000 
     50 C           3.3075  -14.3106  -42.2132 C.2       4 UNK         0.5000 
     51 O           3.1618  -15.3501  -42.8586 O.2       4 UNK        -0.5000 
     52 CA          4.6610  -13.5690  -42.2068 C.3       4 UNK         0.1400 
     53 CB          5.7235  -14.2387  -43.1035 C.3       4 UNK        -0.1800 
     54 N           4.5036  -12.1476  -42.5443 N.am      4 UNK        -0.5000 
     55 C           3.9747  -11.6529  -43.6732 C.2       3 UNK         0.5000 
     56 O           3.6286  -12.3415  -44.6360 O.2       3 UNK        -0.5000 
     57 CA          3.8098  -10.1261  -43.7380 C.3       3 UNK         0.1400 
     58 CB          4.9720   -9.4836  -44.5105 C.3       3 UNK        -0.1800 
     59 N           2.5526   -9.8153  -44.4113 N.am      3 UNK        -0.5000 
     60 C           1.3679   -9.7090  -43.7921 C.2       2 UNK         0.5000 
     61 O           1.2368   -9.6916  -42.5675 O.2       2 UNK        -0.5000 
     62 CA          0.1125   -9.6353  -44.6871 C.3       2 UNK         0.1400 
     63 CB         -0.2466   -8.1742  -44.9969 C.3       2 UNK        -0.1800 
     64 N           0.2782  -10.3650  -45.9447 N.am      2 UNK        -0.5000 
     65 C           0.4041  -11.6966  -46.0409 C.2       1 UNK         0.5000 
     66 O           0.1956  -12.4592  -45.0964 O.2       1 UNK        -0.5000 
     67 C          -1.2650  -22.1452  -47.3547 C.2       11 UNK         0.5000 
     68 O          -1.5610  -22.9540  -48.2315 O.2       11 UNK        -0.5000 
     69 N          -2.1697  -21.4108  -46.6915 N.am      12 UNK        -0.5000 
     70 CA         -3.6185  -21.4442  -46.9118 C.3       12 UNK         0.1400 
     71 CB         -4.2840  -20.3180  -46.1066 C.3       12 UNK        -0.1800 
     72 C          -4.2914  -22.8024  -46.6175 C.2       12 UNK         0.5000 
     73 O          -5.4173  -23.0194  -47.0653 O.2       12 UNK        -0.5000 
     74 N          -3.6082  -23.6915  -45.8839 N.am      13 UNK        -0.5000 
     75 CA         -4.0395  -25.0700  -45.6545 C.3       13 UNK         0.1400 
     76 CB         -3.5707  -25.5110  -44.2590 C.3       13 UNK        -0.1800 
     77 C          -3.5143  -26.0395  -46.7337 C.2       13 UNK         0.5000 
     78 O          -4.0458  -27.1446  -46.8480 O.2       13 UNK        -0.5000 
     79 N          -2.4837  -25.6341  -47.4887 N.am      14 UNK        -0.5000 
     80 CA         -1.8326  -26.4391  -48.5230 C.3       14 UNK         0.1400 
     81 CB         -0.3100  -26.2565  -48.4139 C.3       14 UNK        -0.1800 
     82 C          -2.3207  -26.0581  -49.9304 C.2       14 UNK         0.5000 
     83 O          -2.5497  -26.9444  -50.7542 O.2       14 UNK        -0.5000 
     84 N          -2.4842  -24.7547  -50.1761 N.am      15 UNK        -0.5000 
     85 CA         -2.9934  -24.1685  -51.4097 C.3       15 UNK         0.1400 
     86 CB         -1.8516  -24.0008  -52.4324 C.3       15 UNK        -0.1800 
     87 C          -3.7184  -22.8558  -51.0676 C.2       15 UNK         0.5000 
     88 O          -4.2369  -22.7278  -49.9592 O.2       15 UNK        -0.5000 
     89 N          -3.7879  -21.9217  -52.0240 N.am      16 UNK        -0.5000 
     90 CA         -4.4312  -20.6059  -51.9524 C.3       16 UNK         0.1400 
     91 CB         -3.7208  -19.6901  -50.9304 C.3       16 UNK        -0.1800 
     92 C          -5.9475  -20.7315  -51.7199 C.2       16 UNK         0.5000 
     93 O          -6.7005  -20.8399  -52.6870 O.2       16 UNK        -0.5000 
     94 N          -6.3676  -20.7642  -50.4499 N.am      17 UNK        -0.5000 
     95 CA         -7.7379  -21.0716  -50.0444 C.3       17 UNK         0.1400 
     96 CB         -7.9306  -20.6705  -48.5743 C.3       17 UNK        -0.1800 
     97 C          -8.0895  -22.5577  -50.2575 C.2       17 UNK         0.5000 
     98 O          -9.2416  -22.8674  -50.5628 O.2       17 UNK        -0.5000 
     99 N          -7.0958  -23.4456  -50.1087 N.am      18 UNK        -0.5000 
    100 CA        -7.2443  -24.8907  -50.2835 C.3       18 UNK         0.1400 
    101 CB        -6.2139  -25.6086  -49.3991 C.3       18 UNK        -0.1800 
    102 C         -7.1168  -25.3463  -51.7510 C.2       18 UNK         0.5000 
    103 O         -7.5799  -26.4410  -52.0735 O.2       18 UNK        -0.5000 
    104 N         -6.5082  -24.5219  -52.6151 N.am      19 UNK        -0.5000 
    105 CA        -6.3357  -24.7844  -54.0422 C.3       19 UNK         0.1400 
    106 CB        -5.2170  -25.8148  -54.2938 C.3       19 UNK        -0.1800 
    107 C         -6.0317  -23.4576  -54.7448 C.2       19 UNK         0.5000 
    108 O         -4.9561  -22.8916  -54.5325 O.2       19 UNK        -0.5000 
    109 N         -6.9764  -22.9947  -55.5738 N.am      20 UNK        -0.5000 
    110 CA        -6.9691  -21.6937  -56.2556 C.3       20 UNK         0.1400 
    111 CB        -8.3065  -21.5176  -56.9920 C.3       20 UNK        -0.1800 
    112 C         -5.7881  -21.4539  -57.2195 C.2       20 UNK         0.5000 
    113 O         -5.5284  -20.3046  -57.5782 O.2       20 UNK        -0.5000 
    114 N         -5.0808  -22.5261  -57.6036 N.am      21 UNK        -0.5000 
    115 CA        -3.8271  -22.4849  -58.3598 C.3       21 UNK         0.1400 
    116 CB        -3.4422  -23.9177  -58.7591 C.3       21 UNK        -0.1800 
    117 C         -2.6700  -21.8108  -57.5910 C.2       21 UNK         0.5000 
    118 O         -1.7463  -21.2992  -58.2245 O.2       21 UNK        -0.5000 
    119 N         -2.7497  -21.8049  -56.2516 N.am      22 UNK        -0.5000 
    120 CA        -1.8140  -21.1362  -55.3320 C.3       22 UNK         0.1400 
    121 C         -0.3961  -21.7824  -55.2428 C.2       22 UNK         0.5000 
    122 N         -0.2055  -23.0131  -55.7025 N.am      22 UNK        -0.7600 
    123 O          0.5401  -21.1810  -54.7260 O.2       22 UNK        -0.5000 
    124 C124       -1.7911  -19.5888  -55.5310 C.3       23 UNK        -0.0398 
    125 S125       -1.9394  -18.6866  -53.9524 S.3       23 UNK        -0.2404 
    126 C126       -0.2847  -17.9630  -53.7504 C.3       23 UNK        -0.0205 
    127 H127        1.8385   -9.7060  -50.3166 H         1 UNK         0.0600 
    128 H128        3.5612   -9.7506  -49.9314 H         1 UNK         0.0600 
    129 H129        2.5291   -8.5055  -49.2203 H         1 UNK         0.0600 
    130 H130        0.6946  -11.2714  -49.2430 H         1 UNK         0.3000 
    131 H131        1.7430  -12.8753  -47.1770 H         1 UNK         0.0600 
    132 H132       -0.5717  -13.9275  -47.2012 H         1 UNK         0.0800 
    133 H133       -1.0978  -12.6881  -48.3096 H         1 UNK         0.0800 
    134 H134       -1.5788  -15.5685  -49.4207 H         1 UNK         0.0800 
    135 H135       -0.4998  -16.1043  -48.1544 H         1 UNK         0.0800 
    136 H136       -1.0500  -16.1620  -51.8420 H         1 UNK         0.1150 
    137 H137        1.3530  -19.6677  -52.4055 H         1 UNK         0.1150 
    138 H138        1.1936  -17.7766  -48.5625 H         1 UNK         0.1150 
    139 H139        3.0507  -20.1545  -50.6618 H         1 UNK         0.0800 
    140 H140        2.9369  -19.4623  -49.0663 H         1 UNK         0.0800 
    141 H141        0.3044  -19.9765  -47.7210 H         1 UNK         0.0800 
    142 H142        1.8252  -20.5746  -47.1119 H         1 UNK         0.0800 
    143 H143        0.7009  -22.9550  -47.1813 H         1 UNK         0.0600 
    144 H144        0.7701  -21.0586  -45.1023 H         1 UNK         0.3000 
    145 H145       -0.5454  -23.2036  -42.5328 H         1 UNK         0.0600 
    146 H146        1.5999  -22.4628  -41.5214 H         1 UNK         0.0600 
    147 H147        1.8780  -23.6893  -42.7490 H         1 UNK         0.0600 
    148 H148        2.2152  -22.0019  -43.1062 H         1 UNK         0.0600 
    149 H149        0.3032  -20.4656  -42.5285 H         1 UNK         0.3000 
    150 H150       -2.9069  -19.0560  -43.2801 H         1 UNK         0.0600 
    151 H151       -2.9473  -19.5343  -40.8241 H         1 UNK         0.0600 
    152 H152       -2.4781  -17.8736  -41.1528 H         1 UNK         0.0600 
    153 H153       -1.2572  -19.0607  -40.6982 H         1 UNK         0.0600 
    154 H154       -0.4547  -17.7843  -42.6855 H         1 UNK         0.3000 
    155 H155        0.8846  -17.7683  -46.0320 H         1 UNK         0.0600 
    156 H156       -0.1258  -15.6050  -44.1154 H         1 UNK         0.0600 
    157 H157        0.9923  -15.3647  -45.4557 H         1 UNK         0.0600 
    158 H158       -0.6754  -15.8366  -45.7619 H         1 UNK         0.0600 
    159 H159        2.0080  -16.8350  -43.5920 H         1 UNK         0.3000 
    160 H160        3.5665  -19.8878  -42.5692 H         1 UNK         0.0600 
    161 H161        5.1508  -18.9199  -44.1852 H         1 UNK         0.0600 
    162 H162        4.7062  -17.2861  -43.7207 H         1 UNK         0.0600 
    163 H163        5.5320  -18.3383  -42.5717 H         1 UNK         0.0600 
    164 H164        3.3517  -17.1497  -41.5930 H         1 UNK         0.3000 
    165 H165        0.6445  -17.8175  -39.3692 H         1 UNK         0.0600 
    166 H166        2.2790  -17.0576  -37.6684 H         1 UNK         0.0600 
    167 H167        2.6288  -18.7117  -38.1441 H         1 UNK         0.0600 
    168 H168        3.6208  -17.3965  -38.7622 H         1 UNK         0.0600 
    169 H169        2.3343  -15.5341  -39.7719 H         1 UNK         0.3000 
    170 H170        0.5399  -14.0899  -42.4689 H         1 UNK         0.0600 
    171 H171       -0.9221  -13.5283  -40.5188 H         1 UNK         0.0600 
    172 H172        0.5034  -13.2472  -39.5255 H         1 UNK         0.0600 
    173 H173        0.1709  -12.2125  -40.9161 H         1 UNK         0.0600 
    174 H174        2.5364  -12.8811  -41.0063 H         1 UNK         0.3000 
    175 H175        5.0286  -13.6075  -41.1804 H         1 UNK         0.0600 
    176 H176        5.4019  -14.2979  -44.1438 H         1 UNK         0.0600 
    177 H177        6.6656  -13.6916  -43.0745 H         1 UNK         0.0600 
    178 H178        5.9287  -15.2559  -42.7683 H         1 UNK         0.0600 
    179 H179        4.7684  -11.4981  -41.8165 H         1 UNK         0.3000 
    180 H180        3.8006   -9.7164  -42.7257 H         1 UNK         0.0600 
    181 H181        5.0484   -9.8762  -45.5252 H         1 UNK         0.0600 
    182 H182        5.9234   -9.6748  -44.0127 H         1 UNK         0.0600 
    183 H183        4.8504   -8.4025  -44.5781 H         1 UNK         0.0600 
    184 H184        2.5690   -9.9178  -45.4213 H         1 UNK         0.3000 
    185 H185       -0.7169  -10.0842  -44.1365 H         1 UNK         0.0600 
    186 H186       -1.1683   -8.1083  -45.5752 H         1 UNK         0.0600 
    187 H187       -0.3992   -7.6071  -44.0776 H         1 UNK         0.0600 
    188 H188        0.5424   -7.6768  -45.5625 H         1 UNK         0.0600 
    189 H189        0.4603   -9.8138  -46.7703 H         1 UNK         0.3000 
    190 H190       -1.8335  -20.7214  -46.0245 H         1 UNK         0.3000 
    191 H191       -3.7836  -21.2314  -47.9657 H         1 UNK         0.0600 
    192 H192       -4.1586  -20.4623  -45.0342 H         1 UNK         0.0600 
    193 H193       -5.3551  -20.2745  -46.3073 H         1 UNK         0.0600 
    194 H194       -3.8664  -19.3453  -46.3671 H         1 UNK         0.0600 
    195 H195       -2.6958  -23.4361  -45.5284 H         1 UNK         0.3000 
    196 H196       -5.1302  -25.1212  -45.6701 H         1 UNK         0.0600 
    197 H197       -3.9439  -26.5076  -44.0201 H         1 UNK         0.0600 
    198 H198       -3.9356  -24.8331  -43.4871 H         1 UNK         0.0600 
    199 H199       -2.4835  -25.5449  -44.1889 H         1 UNK         0.0600 
    200 H200       -2.1455  -24.6845  -47.3850 H         1 UNK         0.3000 
    201 H201       -2.0522  -27.4976  -48.3683 H         1 UNK         0.0600 
    202 H202        0.0526  -26.5595  -47.4315 H         1 UNK         0.0600 
    203 H203       -0.0125  -25.2194  -48.5735 H         1 UNK         0.0600 
    204 H204        0.2097  -26.8646  -49.1553 H         1 UNK         0.0600 
    205 H205       -2.2909  -24.0804  -49.4357 H         1 UNK         0.3000 
    206 H206       -3.7464  -24.8396  -51.8228 H         1 UNK         0.0600 
    207 H207       -1.3119  -24.9363  -52.5796 H         1 UNK         0.0600 
    208 H208       -2.2347  -23.7041  -53.4088 H         1 UNK         0.0600 
    209 H209       -1.1299  -23.2489  -52.1095 H         1 UNK         0.0600 
    210 H210       -3.4620  -22.1771  -52.9453 H         1 UNK         0.3000 
    211 H211       -4.3118  -20.1547  -52.9380 H         1 UNK         0.0600 
    212 H212       -3.7721  -20.0725  -49.9133 H         1 UNK         0.0600 
    213 H213       -4.1623  -18.6931  -50.9297 H         1 UNK         0.0600 
    214 H214       -2.6651  -19.5752  -51.1764 H         1 UNK         0.0600 
    215 H215       -5.6709  -20.7421  -49.7191 H         1 UNK         0.3000 
    216 H216       -8.4214  -20.4754  -50.6528 H         1 UNK         0.0600 
    217 H217       -8.9539  -20.8620  -48.2490 H         1 UNK         0.0600 
    218 H218       -7.7356  -19.6083  -48.4258 H         1 UNK         0.0600 
    219 H219       -7.2670  -21.2292  -47.9139 H         1 UNK         0.0600 
    220 H220       -6.1729  -23.1134  -49.8416 H         1 UNK         0.3000 
    221 H221       -8.2369  -25.1888  -49.9390 H         1 UNK         0.0600 
    222 H222       -5.1955  -25.3273  -49.6593 H         1 UNK         0.0600 
    223 H223       -6.3645  -25.3688  -48.3464 H         1 UNK         0.0600 
    224 H224       -6.2913  -26.6919  -49.4992 H         1 UNK         0.0600 
    225 H225       -6.2145  -23.6075  -52.3007 H         1 UNK         0.3000 
    226 H226       -7.2709  -25.1870  -54.4373 H         1 UNK         0.0600 
    227 H227       -5.4115  -26.7551  -53.7783 H         1 UNK         0.0600 
    228 H228       -5.1366  -26.0422  -55.3573 H         1 UNK         0.0600 
    229 H229       -4.2426  -25.4514  -53.9693 H         1 UNK         0.0600 
    230 H230       -7.8172  -23.5411  -55.6931 H         1 UNK         0.3000 
    231 H231       -6.9030  -20.9250  -55.4830 H         1 UNK         0.0600 
    232 H232       -8.3593  -20.5455  -57.4842 H         1 UNK         0.0600 
    233 H233       -9.1482  -21.5742  -56.3015 H         1 UNK         0.0600 
    234 H234       -8.4462  -22.2813  -57.7581 H         1 UNK         0.0600 
    235 H235       -5.3765  -23.4298  -57.2664 H         1 UNK         0.3000 
    236 H236       -3.9995  -21.9067  -59.2698 H         1 UNK         0.0600 
    237 H237       -4.2181  -24.3789  -59.3704 H         1 UNK         0.0600 
    238 H238       -2.5216  -23.9266  -59.3443 H         1 UNK         0.0600 
    239 H239       -3.2821  -24.5502  -57.8849 H         1 UNK         0.0600 
    240 H240       -3.5499  -22.2501  -55.8131 H         1 UNK         0.3000 
    241 H241       -2.2459  -21.3370  -54.3528 H         1 UNK         0.0600 
    242 H242        0.7099  -23.4287  -55.6348 H         1 UNK         0.3800 
    243 H243       -0.9587  -23.5242  -56.1327 H         1 UNK         0.3800 
    244 H244       -0.9124  -19.2634  -56.0902 H         1 UNK         0.0800 
    245 H245       -2.6435  -19.2702  -56.1330 H         1 UNK         0.0800 
    246 H246        0.4520  -18.5365  -54.3141 H         1 UNK         0.0800 
    247 H247       -0.2773  -16.9572  -54.1726 H         1 UNK         0.0800 
@<TRIPOS>BOND
     1    1    2 1    
     2    1  127 1    
     3    1  128 1    
     4    1  129 1    
     5    2    3 2    
     6    2    4 am   BACKBONE|DICT|INTERRES
     7    4    5 1    
     8    4  130 1    
     9    5    6 1    
    10    5   65 1    
    11    5  131 1    
    12    6    7 1    
    13    6  132 1    
    14    6  133 1    
    15    7    8 1    
    16    8    9 1    
    17    8  134 1    
    18    8  135 1    
    19    9   10 ar   
    20    9   14 ar   
    21   10   11 ar   
    22   10  136 1    
    23   11   12 ar   
    24   11  126 1    
    25   12   13 ar   
    26   12  137 1    
    27   13   14 ar   
    28   13   15 1    
    29   14  138 1    
    30   15   16 1    
    31   15  139 1    
    32   15  140 1    
    33   16   17 1    
    34   17   18 1    
    35   17  141 1    
    36   17  142 1    
    37   18   19 1    
    38   18   67 1    
    39   18  143 1    
    40   19   20 am   BACKBONE|DICT|INTERRES
    41   19  144 1    
    42   20   21 2    
    43   20   22 1    
    44   22   23 1    
    45   22   24 1    
    46   22  145 1    
    47   23  146 1    
    48   23  147 1    
    49   23  148 1    
    50   24   25 am   BACKBONE|DICT|INTERRES
    51   24  149 1    
    52   25   26 2    
    53   25   27 1    
    54   27   28 1    
    55   27   29 1    
    56   27  150 1    
    57   28  151 1    
    58   28  152 1    
    59   28  153 1    
    60   29   30 am   BACKBONE|DICT|INTERRES
    61   29  154 1    
    62   30   31 2    
    63   30   32 1    
    64   32   33 1    
    65   32   34 1    
    66   32  155 1    
    67   33  156 1    
    68   33  157 1    
    69   33  158 1    
    70   34   35 am   BACKBONE|DICT|INTERRES
    71   34  159 1    
    72   35   36 2    
    73   35   37 1    
    74   37   38 1    
    75   37   39 1    
    76   37  160 1    
    77   38  161 1    
    78   38  162 1    
    79   38  163 1    
    80   39   40 am   BACKBONE|DICT|INTERRES
    81   39  164 1    
    82   40   41 2    
    83   40   42 1    
    84   42   43 1    
    85   42   44 1    
    86   42  165 1    
    87   43  166 1    
    88   43  167 1    
    89   43  168 1    
    90   44   45 am   BACKBONE|DICT|INTERRES
    91   44  169 1    
    92   45   46 2    
    93   45   47 1    
    94   47   48 1    
    95   47   49 1    
    96   47  170 1    
    97   48  171 1    
    98   48  172 1    
    99   48  173 1    
   100   49   50 am   BACKBONE|DICT|INTERRES
   101   49  174 1    
   102   50   51 2    
   103   50   52 1    
   104   52   53 1    
   105   52   54 1    
   106   52  175 1    
   107   53  176 1    
   108   53  177 1    
   109   53  178 1    
   110   54   55 am   BACKBONE|DICT|INTERRES
   111   54  179 1    
   112   55   56 2    
   113   55   57 1    
   114   57   58 1    
   115   57   59 1    
   116   57  180 1    
   117   58  181 1    
   118   58  182 1    
   119   58  183 1    
   120   59   60 am   BACKBONE|DICT|INTERRES
   121   59  184 1    
   122   60   61 2    
   123   60   62 1    
   124   62   63 1    
   125   62   64 1    
   126   62  185 1    
   127   63  186 1    
   128   63  187 1    
   129   63  188 1    
   130   64   65 am   BACKBONE|DICT|INTERRES
   131   64  189 1    
   132   65   66 2    
   133   67   68 2    
   134   67   69 am   BACKBONE|DICT|INTERRES
   135   69   70 1    
   136   69  190 1    
   137   70   71 1    
   138   70   72 1    
   139   70  191 1    
   140   71  192 1    
   141   71  193 1    
   142   71  194 1    
   143   72   73 2    
   144   72   74 am   BACKBONE|DICT|INTERRES
   145   74   75 1    
   146   74  195 1    
   147   75   76 1    
   148   75   77 1    
   149   75  196 1    
   150   76  197 1    
   151   76  198 1    
   152   76  199 1    
   153   77   78 2    
   154   77   79 am   BACKBONE|DICT|INTERRES
   155   79   80 1    
   156   79  200 1    
   157   80   81 1    
   158   80   82 1    
   159   80  201 1    
   160   81  202 1    
   161   81  203 1    
   162   81  204 1    
   163   82   83 2    
   164   82   84 am   BACKBONE|DICT|INTERRES
   165   84   85 1    
   166   84  205 1    
   167   85   86 1    
   168   85   87 1    
   169   85  206 1    
   170   86  207 1    
   171   86  208 1    
   172   86  209 1    
   173   87   88 2    
   174   87   89 am   BACKBONE|DICT|INTERRES
   175   89   90 1    
   176   89  210 1    
   177   90   91 1    
   178   90   92 1    
   179   90  211 1    
   180   91  212 1    
   181   91  213 1    
   182   91  214 1    
   183   92   93 2    
   184   92   94 am   BACKBONE|DICT|INTERRES
   185   94   95 1    
   186   94  215 1    
   187   95   96 1    
   188   95   97 1    
   189   95  216 1    
   190   96  217 1    
   191   96  218 1    
   192   96  219 1    
   193   97   98 2    
   194   97   99 am   BACKBONE|DICT|INTERRES
   195   99  100 1    
   196   99  220 1    
   197  100  101 1    
   198  100  102 1    
   199  100  221 1    
   200  101  222 1    
   201  101  223 1    
   202  101  224 1    
   203  102  103 2    
   204  102  104 am   BACKBONE|DICT|INTERRES
   205  104  105 1    
   206  104  225 1    
   207  105  106 1    
   208  105  107 1    
   209  105  226 1    
   210  106  227 1    
   211  106  228 1    
   212  106  229 1    
   213  107  108 2    
   214  107  109 am   BACKBONE|DICT|INTERRES
   215  109  110 1    
   216  109  230 1    
   217  110  111 1    
   218  110  112 1    
   219  110  231 1    
   220  111  232 1    
   221  111  233 1    
   222  111  234 1    
   223  112  113 2    
   224  112  114 am   BACKBONE|DICT|INTERRES
   225  114  115 1    
   226  114  235 1    
   227  115  116 1    
   228  115  117 1    
   229  115  236 1    
   230  116  237 1    
   231  116  238 1    
   232  116  239 1    
   233  117  118 2    
   234  117  119 am   BACKBONE|DICT|INTERRES
   235  119  120 1    
   236  119  240 1    
   237  120  121 1    
   238  120  124 1    
   239  120  241 1    
   240  121  122 am   BACKBONE|DICT|INTERRES
   241  121  123 2    
   242  122  242 1    
   243  122  243 1    
   244  124  125 1    
   245  124  244 1    
   246  124  245 1    
   247  125  126 1    
   248  126  246 1    
   249  126  247 1    
@<TRIPOS>SUBSTRUCTURE
     1 UNK         1 GROUP             0       ****    0 ROOT    
