@<TRIPOS>MOLECULE
3R540
247   249    1
SMALL
USER_CHARGES


@<TRIPOS>ATOM
      1 CA         -0.0317   -9.7456  -49.7753 C.3       0 UNK        -0.1800 
      2 C           1.3093  -10.4658  -49.7491 C.2       0 UNK         0.5000 
      3 O           2.2263  -10.0799  -50.4750 O.2       0 UNK        -0.5000 
      4 N           1.4237  -11.5135  -48.9238 N.am      1 UNK        -0.5000 
      5 CA          2.6546  -12.2801  -48.7131 C.3       1 UNK         0.1400 
      6 C6          2.3483  -13.6575  -48.0672 C.3       23 UNK        -0.0398 
      7 S7          3.6574  -14.8975  -48.3602 S.3       23 UNK        -0.2404 
      8 C8          3.3075  -15.4400  -50.0653 C.3       23 UNK        -0.0205 
      9 C9          2.1905  -16.4707  -50.1374 C.ar      23 UNK        -0.0193 
     10 C10         0.8636  -16.0652  -50.3047 C.ar      23 UNK        -0.1150 
     11 C11        -0.1597  -17.0107  -50.4052 C.ar      23 UNK        -0.0193 
     12 C12         0.1493  -18.3721  -50.3417 C.ar      23 UNK        -0.1150 
     13 C13         1.4747  -18.7927  -50.1976 C.ar      23 UNK        -0.0193 
     14 C14         2.4898  -17.8360  -50.0897 C.ar      23 UNK        -0.1150 
     15 C15         1.8053  -20.2804  -50.2093 C.3       23 UNK        -0.0205 
     16 S16         2.7249  -20.8347  -48.7368 S.3       23 UNK        -0.2404 
     17 C17         1.5780  -20.4178  -47.3834 C.3       23 UNK        -0.0398 
     18 CA          0.7034  -21.6141  -46.9350 C.3       11 UNK         0.1400 
     19 N           0.3369  -21.5155  -45.5204 N.am      11 UNK        -0.5000 
     20 C          -0.2798  -22.4700  -44.8115 C.2       10 UNK         0.5000 
     21 O          -0.5548  -23.5818  -45.2601 O.2       10 UNK        -0.5000 
     22 CA         -0.7130  -22.1020  -43.3797 C.3       10 UNK         0.1400 
     23 CB          0.4453  -22.2819  -42.3877 C.3       10 UNK        -0.1800 
     24 N          -1.2410  -20.7387  -43.2893 N.am      10 UNK        -0.5000 
     25 C          -2.3582  -20.3253  -43.9056 C.2       9 UNK         0.5000 
     26 O          -3.0925  -21.0715  -44.5527 O.2       9 UNK        -0.5000 
     27 CA         -2.6852  -18.8227  -43.8340 C.3       9 UNK         0.1400 
     28 CB         -3.3738  -18.4762  -42.5060 C.3       9 UNK        -0.1800 
     29 N          -1.5037  -17.9781  -44.0215 N.am      9 UNK        -0.5000 
     30 C          -0.7800  -17.9267  -45.1501 C.2       8 UNK         0.5000 
     31 O          -1.0701  -18.5467  -46.1722 O.2       8 UNK        -0.5000 
     32 CA          0.5167  -17.0964  -45.1166 C.3       8 UNK         0.1400 
     33 CB          0.2270  -15.6046  -45.3348 C.3       8 UNK        -0.1800 
     34 N           1.2585  -17.2733  -43.8688 N.am      8 UNK        -0.5000 
     35 C           1.7922  -18.4297  -43.4543 C.2       7 UNK         0.5000 
     36 O           1.7615  -19.4683  -44.1112 O.2       7 UNK        -0.5000 
     37 CA          2.4100  -18.4458  -42.0466 C.3       7 UNK         0.1400 
     38 CB          3.8338  -17.8705  -42.0521 C.3       7 UNK        -0.1800 
     39 N           1.5861  -17.7160  -41.0844 N.am      7 UNK        -0.5000 
     40 C           0.3956  -18.1371  -40.6370 C.2       6 UNK         0.5000 
     41 O          -0.1181  -19.2066  -40.9654 O.2       6 UNK        -0.5000 
     42 CA         -0.3600  -17.1866  -39.6897 C.3       6 UNK         0.1400 
     43 CB          0.1196  -17.3712  -38.2424 C.3       6 UNK        -0.1800 
     44 N          -0.2200  -15.7797  -40.0715 N.am      6 UNK        -0.5000 
     45 C          -0.7507  -15.2447  -41.1798 C.2       5 UNK         0.5000 
     46 O          -1.4328  -15.8777  -41.9845 O.2       5 UNK        -0.5000 
     47 CA         -0.4211  -13.7666  -41.4639 C.3       5 UNK         0.1400 
     48 CB         -1.3724  -12.8423  -40.6894 C.3       5 UNK        -0.1800 
     49 N           0.9680  -13.3941  -41.1709 N.am      5 UNK        -0.5000 
     50 C           2.0441  -13.9778  -41.7144 C.2       4 UNK         0.5000 
     51 O           1.9824  -14.9625  -42.4522 O.2       4 UNK        -0.5000 
     52 CA          3.4195  -13.3926  -41.3388 C.3       4 UNK         0.1400 
     53 CB          3.8791  -13.9545  -39.9843 C.3       4 UNK        -0.1800 
     54 N           4.4424  -13.6989  -42.3428 N.am      4 UNK        -0.5000 
     55 C           4.4170  -13.2801  -43.6150 C.2       3 UNK         0.5000 
     56 O           3.5726  -12.4990  -44.0615 O.2       3 UNK        -0.5000 
     57 CA          5.5006  -13.8702  -44.5398 C.3       3 UNK         0.1400 
     58 CB          5.1703  -15.3311  -44.8898 C.3       3 UNK        -0.1800 
     59 N           5.6235  -13.1171  -45.7860 N.am      3 UNK        -0.5000 
     60 C           6.1766  -11.9024  -45.9072 C.2       2 UNK         0.5000 
     61 O           6.7519  -11.3179  -44.9879 O.2       2 UNK        -0.5000 
     62 CA          6.0735  -11.2269  -47.2909 C.3       2 UNK         0.1400 
     63 CB          7.3841  -11.4010  -48.0739 C.3       2 UNK        -0.1800 
     64 N           4.9670  -11.7531  -48.0949 N.am      2 UNK        -0.5000 
     65 C           3.6747  -11.4753  -47.8778 C.2       1 UNK         0.5000 
     66 O           3.2819  -10.6565  -47.0429 O.2       1 UNK        -0.5000 
     67 C          -0.5387  -21.7816  -47.8364 C.2       11 UNK         0.5000 
     68 O          -0.5469  -22.6497  -48.7083 O.2       11 UNK        -0.5000 
     69 N          -1.5835  -20.9804  -47.5848 N.am      12 UNK        -0.5000 
     70 CA         -2.8715  -21.0574  -48.2730 C.3       12 UNK         0.1400 
     71 CB         -3.7430  -19.8580  -47.8747 C.3       12 UNK        -0.1800 
     72 C          -3.6127  -22.3835  -48.0238 C.2       12 UNK         0.5000 
     73 O          -4.1997  -22.9314  -48.9582 O.2       12 UNK        -0.5000 
     74 N          -3.5418  -22.8932  -46.7860 N.am      13 UNK        -0.5000 
     75 CA         -4.0476  -24.2108  -46.4033 C.3       13 UNK         0.1400 
     76 CB         -3.9894  -24.3762  -44.8776 C.3       13 UNK        -0.1800 
     77 C          -3.2972  -25.3478  -47.1200 C.2       13 UNK         0.5000 
     78 O          -3.9414  -26.2396  -47.6747 O.2       13 UNK        -0.5000 
     79 N          -1.9579  -25.2629  -47.1401 N.am      14 UNK        -0.5000 
     80 CA         -1.0603  -26.1903  -47.8340 C.3       14 UNK         0.1400 
     81 CB          0.3990  -25.8583  -47.4893 C.3       14 UNK        -0.1800 
     82 C          -1.2697  -26.2203  -49.3599 C.2       14 UNK         0.5000 
     83 O          -1.1374  -27.2849  -49.9643 O.2       14 UNK        -0.5000 
     84 N          -1.6706  -25.0852  -49.9496 N.am      15 UNK        -0.5000 
     85 CA         -2.1091  -24.9362  -51.3423 C.3       15 UNK         0.1400 
     86 CB         -1.9919  -23.4541  -51.7454 C.3       15 UNK        -0.1800 
     87 C          -3.5275  -25.5071  -51.5928 C.2       15 UNK         0.5000 
     88 O          -4.3317  -24.8814  -52.2873 O.2       15 UNK        -0.5000 
     89 N          -3.8045  -26.6825  -51.0078 N.am      16 UNK        -0.5000 
     90 CA         -5.0415  -27.4666  -51.0507 C.3       16 UNK         0.1400 
     91 CB         -5.1508  -28.2036  -52.3993 C.3       16 UNK        -0.1800 
     92 C          -6.2997  -26.6529  -50.6831 C.2       16 UNK         0.5000 
     93 O          -7.3203  -26.7492  -51.3666 O.2       16 UNK        -0.5000 
     94 N          -6.1853  -25.8608  -49.6058 N.am      17 UNK        -0.5000 
     95 CA         -7.1891  -24.9255  -49.0884 C.3       17 UNK         0.1400 
     96 CB         -8.3910  -25.6883  -48.4933 C.3       17 UNK        -0.1800 
     97 C          -7.5909  -23.8627  -50.1320 C.2       17 UNK         0.5000 
     98 O          -8.7750  -23.7077  -50.4382 O.2       17 UNK        -0.5000 
     99 N          -6.5758  -23.1591  -50.6537 N.am      18 UNK        -0.5000 
    100 CA        -6.6526  -22.1073  -51.6712 C.3       18 UNK         0.1400 
    101 CB        -7.3636  -20.8610  -51.1031 C.3       18 UNK        -0.1800 
    102 C         -7.2602  -22.6039  -53.0002 C.2       18 UNK         0.5000 
    103 O         -8.2182  -22.0178  -53.5105 O.2       18 UNK        -0.5000 
    104 N         -6.6999  -23.6969  -53.5344 N.am      19 UNK        -0.5000 
    105 CA        -7.0636  -24.2534  -54.8353 C.3       19 UNK         0.1400 
    106 CB        -6.6190  -25.7214  -54.9029 C.3       19 UNK        -0.1800 
    107 C         -6.4196  -23.4184  -55.9550 C.2       19 UNK         0.5000 
    108 O         -5.2210  -23.5611  -56.2062 O.2       19 UNK        -0.5000 
    109 N         -7.2133  -22.5288  -56.5679 N.am      20 UNK        -0.5000 
    110 CA        -6.8786  -21.5584  -57.6243 C.3       20 UNK         0.1400 
    111 CB        -6.3490  -22.2567  -58.8916 C.3       20 UNK        -0.1800 
    112 C         -5.9359  -20.4221  -57.1738 C.2       20 UNK         0.5000 
    113 O         -6.1786  -19.2627  -57.5132 O.2       20 UNK        -0.5000 
    114 N         -4.8993  -20.7644  -56.4026 N.am      21 UNK        -0.5000 
    115 CA        -4.0246  -19.8466  -55.6782 C.3       21 UNK         0.1400 
    116 CB        -2.7958  -20.6378  -55.1973 C.3       21 UNK        -0.1800 
    117 C         -4.7478  -19.1939  -54.4828 C.2       21 UNK         0.5000 
    118 O         -5.8374  -19.6249  -54.1003 O.2       21 UNK        -0.5000 
    119 N         -4.1030  -18.1862  -53.8852 N.am      22 UNK        -0.5000 
    120 CA        -4.5611  -17.4922  -52.6679 C.3       22 UNK         0.1400 
    121 C         -4.6400  -18.3690  -51.3828 C.2       22 UNK         0.5000 
    122 N         -4.0249  -19.5446  -51.3404 N.am      22 UNK        -0.7600 
    123 O         -5.2766  -17.9743  -50.4109 O.2       22 UNK        -0.5000 
    124 C124       -3.7558  -16.1901  -52.4120 C.3       23 UNK        -0.0398 
    125 S125       -1.9448  -16.4365  -52.4062 S.3       23 UNK        -0.2404 
    126 C126       -1.5941  -16.5644  -50.6257 C.3       23 UNK        -0.0205 
    127 H127        0.0970   -8.7030  -49.4845 H         1 UNK         0.0600 
    128 H128       -0.7510  -10.2019  -49.0948 H         1 UNK         0.0600 
    129 H129       -0.4520   -9.7710  -50.7807 H         1 UNK         0.0600 
    130 H130        0.6475  -11.7531  -48.3242 H         1 UNK         0.3000 
    131 H131        3.0918  -12.4489  -49.6992 H         1 UNK         0.0600 
    132 H132        2.1991  -13.5564  -46.9904 H         1 UNK         0.0800 
    133 H133        1.4108  -14.0598  -48.4479 H         1 UNK         0.0800 
    134 H134        4.2208  -15.8660  -50.4834 H         1 UNK         0.0800 
    135 H135        3.0675  -14.5818  -50.6939 H         1 UNK         0.0800 
    136 H136        0.6257  -15.0137  -50.3801 H         1 UNK         0.1150 
    137 H137       -0.6424  -19.1027  -50.4352 H         1 UNK         0.1150 
    138 H138        3.5166  -18.1567  -49.9826 H         1 UNK         0.1150 
    139 H139        0.8997  -20.8801  -50.3097 H         1 UNK         0.0800 
    140 H140        2.4067  -20.4940  -51.0937 H         1 UNK         0.0800 
    141 H141        0.9771  -19.5424  -47.6329 H         1 UNK         0.0800 
    142 H142        2.2172  -20.0999  -46.5602 H         1 UNK         0.0800 
    143 H143        1.2972  -22.5260  -47.0277 H         1 UNK         0.0600 
    144 H144        0.5896  -20.6526  -45.0467 H         1 UNK         0.3000 
    145 H145       -1.5121  -22.7872  -43.0898 H         1 UNK         0.0600 
    146 H146        0.1234  -22.0796  -41.3660 H         1 UNK         0.0600 
    147 H147        0.8242  -23.3043  -42.4136 H         1 UNK         0.0600 
    148 H148        1.2794  -21.6178  -42.6122 H         1 UNK         0.0600 
    149 H149       -0.7135  -20.0785  -42.7282 H         1 UNK         0.3000 
    150 H150       -3.3836  -18.5984  -44.6426 H         1 UNK         0.0600 
    151 H151       -4.2618  -19.0911  -42.3544 H         1 UNK         0.0600 
    152 H152       -3.6940  -17.4344  -42.4891 H         1 UNK         0.0600 
    153 H153       -2.7133  -18.6371  -41.6540 H         1 UNK         0.0600 
    154 H154       -1.2379  -17.3884  -43.2388 H         1 UNK         0.3000 
    155 H155        1.1547  -17.4398  -45.9338 H         1 UNK         0.0600 
    156 H156       -0.4239  -15.2031  -44.5577 H         1 UNK         0.0600 
    157 H157       -0.2617  -15.4388  -46.2957 H         1 UNK         0.0600 
    158 H158        1.1484  -15.0222  -45.3300 H         1 UNK         0.0600 
    159 H159        1.3770  -16.4474  -43.2845 H         1 UNK         0.3000 
    160 H160        2.4708  -19.4874  -41.7240 H         1 UNK         0.0600 
    161 H161        4.3062  -17.9828  -41.0762 H         1 UNK         0.0600 
    162 H162        3.8403  -16.8113  -42.3048 H         1 UNK         0.0600 
    163 H163        4.4615  -18.3870  -42.7794 H         1 UNK         0.0600 
    164 H164        1.9023  -16.7935  -40.8250 H         1 UNK         0.3000 
    165 H165       -1.4196  -17.4476  -39.7330 H         1 UNK         0.0600 
    166 H166       -0.4627  -16.7594  -37.5532 H         1 UNK         0.0600 
    167 H167        0.0108  -18.4092  -37.9252 H         1 UNK         0.0600 
    168 H168        1.1700  -17.1008  -38.1268 H         1 UNK         0.0600 
    169 H169        0.3332  -15.1906  -39.4669 H         1 UNK         0.3000 
    170 H170       -0.5823  -13.5995  -42.5308 H         1 UNK         0.0600 
    171 H171       -2.4140  -13.0869  -40.9023 H         1 UNK         0.0600 
    172 H172       -1.2289  -12.9272  -39.6115 H         1 UNK         0.0600 
    173 H173       -1.2224  -11.7990  -40.9675 H         1 UNK         0.0600 
    174 H174        1.0989  -12.6021  -40.5582 H         1 UNK         0.3000 
    175 H175        3.3281  -12.3072  -41.2641 H         1 UNK         0.0600 
    176 H176        3.9912  -15.0393  -40.0154 H         1 UNK         0.0600 
    177 H177        4.8362  -13.5271  -39.6843 H         1 UNK         0.0600 
    178 H178        3.1617  -13.7213  -39.1965 H         1 UNK         0.0600 
    179 H179        5.1534  -14.3581  -42.0637 H         1 UNK         0.3000 
    180 H180        6.4605  -13.8388  -44.0202 H         1 UNK         0.0600 
    181 H181        4.1659  -15.4302  -45.3045 H         1 UNK         0.0600 
    182 H182        5.2236  -15.9660  -44.0063 H         1 UNK         0.0600 
    183 H183        5.8749  -15.7359  -45.6166 H         1 UNK         0.0600 
    184 H184        5.1484  -13.5043  -46.5876 H         1 UNK         0.3000 
    185 H185        5.9117  -10.1593  -47.1277 H         1 UNK         0.0600 
    186 H186        8.2289  -10.9945  -47.5163 H         1 UNK         0.0600 
    187 H187        7.5979  -12.4518  -48.2736 H         1 UNK         0.0600 
    188 H188        7.3454  -10.8777  -49.0295 H         1 UNK         0.0600 
    189 H189        5.2110  -12.4329  -48.8013 H         1 UNK         0.3000 
    190 H190       -1.4810  -20.2445  -46.8900 H         1 UNK         0.3000 
    191 H191       -2.6688  -20.9940  -49.3431 H         1 UNK         0.0600 
    192 H192       -3.9189  -19.8268  -46.7999 H         1 UNK         0.0600 
    193 H193       -4.7180  -19.8988  -48.3617 H         1 UNK         0.0600 
    194 H194       -3.2731  -18.9172  -48.1630 H         1 UNK         0.0600 
    195 H195       -3.1040  -22.3398  -46.0554 H         1 UNK         0.3000 
    196 H196       -5.0956  -24.2627  -46.6980 H         1 UNK         0.0600 
    197 H197       -4.4108  -25.3354  -44.5745 H         1 UNK         0.0600 
    198 H198       -4.5612  -23.5959  -44.3751 H         1 UNK         0.0600 
    199 H199       -2.9680  -24.3349  -44.5013 H         1 UNK         0.0600 
    200 H200       -1.5107  -24.5127  -46.6192 H         1 UNK         0.3000 
    201 H201       -1.2755  -27.1921  -47.4572 H         1 UNK         0.0600 
    202 H202        0.5726  -25.9126  -46.4145 H         1 UNK         0.0600 
    203 H203        0.6753  -24.8583  -47.8227 H         1 UNK         0.0600 
    204 H204        1.0825  -26.5627  -47.9648 H         1 UNK         0.0600 
    205 H205       -1.6994  -24.2454  -49.3819 H         1 UNK         0.3000 
    206 H206       -1.4259  -25.5044  -51.9763 H         1 UNK         0.0600 
    207 H207       -0.9835  -23.0765  -51.5748 H         1 UNK         0.0600 
    208 H208       -2.2145  -23.3160  -52.8041 H         1 UNK         0.0600 
    209 H209       -2.6825  -22.8281  -51.1807 H         1 UNK         0.0600 
    210 H210       -3.0510  -27.0974  -50.4705 H         1 UNK         0.3000 
    211 H211       -4.9468  -28.2261  -50.2734 H         1 UNK         0.0600 
    212 H212       -5.1748  -27.5082  -53.2353 H         1 UNK         0.0600 
    213 H213       -6.0528  -28.8147  -52.4479 H         1 UNK         0.0600 
    214 H214       -4.3017  -28.8702  -52.5493 H         1 UNK         0.0600 
    215 H215       -5.3028  -25.8792  -49.1033 H         1 UNK         0.3000 
    216 H216       -6.7162  -24.3796  -48.2732 H         1 UNK         0.0600 
    217 H217       -9.0924  -25.0004  -48.0198 H         1 UNK         0.0600 
    218 H218       -8.0681  -26.3976  -47.7314 H         1 UNK         0.0600 
    219 H219       -8.9409  -26.2416  -49.2551 H         1 UNK         0.0600 
    220 H220       -5.6422  -23.3549  -50.3049 H         1 UNK         0.3000 
    221 H221       -5.6237  -21.8254  -51.8974 H         1 UNK         0.0600 
    222 H222       -8.4118  -21.0560  -50.8758 H         1 UNK         0.0600 
    223 H223       -6.8800  -20.5141  -50.1899 H         1 UNK         0.0600 
    224 H224       -7.3332  -20.0374  -51.8169 H         1 UNK         0.0600 
    225 H225       -5.9033  -24.1233  -53.0655 H         1 UNK         0.3000 
    226 H226       -8.1496  -24.2299  -54.9480 H         1 UNK         0.0600 
    227 H227       -7.1066  -26.3139  -54.1289 H         1 UNK         0.0600 
    228 H228       -5.5404  -25.8193  -54.7765 H         1 UNK         0.0600 
    229 H229       -6.8789  -26.1641  -55.8651 H         1 UNK         0.0600 
    230 H230       -8.1575  -22.4462  -56.2152 H         1 UNK         0.3000 
    231 H231       -7.8250  -21.0845  -57.8900 H         1 UNK         0.0600 
    232 H232       -7.0447  -23.0191  -59.2419 H         1 UNK         0.0600 
    233 H233       -5.3834  -22.7343  -58.7241 H         1 UNK         0.0600 
    234 H234       -6.2179  -21.5390  -59.7023 H         1 UNK         0.0600 
    235 H235       -4.8017  -21.7526  -56.1863 H         1 UNK         0.3000 
    236 H236       -3.7000  -19.0585  -56.3605 H         1 UNK         0.0600 
    237 H237       -2.2733  -21.0996  -56.0353 H         1 UNK         0.0600 
    238 H238       -2.0788  -19.9922  -54.6888 H         1 UNK         0.0600 
    239 H239       -3.0765  -21.4310  -54.5026 H         1 UNK         0.0600 
    240 H240       -3.1998  -17.8973  -54.2329 H         1 UNK         0.3000 
    241 H241       -5.5919  -17.1893  -52.8618 H         1 UNK         0.0600 
    242 H242       -4.1146  -20.1068  -50.5139 H         1 UNK         0.3800 
    243 H243       -3.4899  -19.8687  -52.1283 H         1 UNK         0.3800 
    244 H244       -3.9806  -15.4744  -53.2037 H         1 UNK         0.0800 
    245 H245       -4.0695  -15.7027  -51.4869 H         1 UNK         0.0800 
    246 H246       -1.7711  -15.6002  -50.1469 H         1 UNK         0.0800 
    247 H247       -2.2750  -17.2745  -50.1553 H         1 UNK         0.0800 
@<TRIPOS>BOND
     1    1    2 1    
     2    1  127 1    
     3    1  128 1    
     4    1  129 1    
     5    2    3 2    
     6    2    4 am   BACKBONE|DICT|INTERRES
     7    4    5 1    
     8    4  130 1    
     9    5    6 1    
    10    5   65 1    
    11    5  131 1    
    12    6    7 1    
    13    6  132 1    
    14    6  133 1    
    15    7    8 1    
    16    8    9 1    
    17    8  134 1    
    18    8  135 1    
    19    9   10 ar   
    20    9   14 ar   
    21   10   11 ar   
    22   10  136 1    
    23   11   12 ar   
    24   11  126 1    
    25   12   13 ar   
    26   12  137 1    
    27   13   14 ar   
    28   13   15 1    
    29   14  138 1    
    30   15   16 1    
    31   15  139 1    
    32   15  140 1    
    33   16   17 1    
    34   17   18 1    
    35   17  141 1    
    36   17  142 1    
    37   18   19 1    
    38   18   67 1    
    39   18  143 1    
    40   19   20 am   BACKBONE|DICT|INTERRES
    41   19  144 1    
    42   20   21 2    
    43   20   22 1    
    44   22   23 1    
    45   22   24 1    
    46   22  145 1    
    47   23  146 1    
    48   23  147 1    
    49   23  148 1    
    50   24   25 am   BACKBONE|DICT|INTERRES
    51   24  149 1    
    52   25   26 2    
    53   25   27 1    
    54   27   28 1    
    55   27   29 1    
    56   27  150 1    
    57   28  151 1    
    58   28  152 1    
    59   28  153 1    
    60   29   30 am   BACKBONE|DICT|INTERRES
    61   29  154 1    
    62   30   31 2    
    63   30   32 1    
    64   32   33 1    
    65   32   34 1    
    66   32  155 1    
    67   33  156 1    
    68   33  157 1    
    69   33  158 1    
    70   34   35 am   BACKBONE|DICT|INTERRES
    71   34  159 1    
    72   35   36 2    
    73   35   37 1    
    74   37   38 1    
    75   37   39 1    
    76   37  160 1    
    77   38  161 1    
    78   38  162 1    
    79   38  163 1    
    80   39   40 am   BACKBONE|DICT|INTERRES
    81   39  164 1    
    82   40   41 2    
    83   40   42 1    
    84   42   43 1    
    85   42   44 1    
    86   42  165 1    
    87   43  166 1    
    88   43  167 1    
    89   43  168 1    
    90   44   45 am   BACKBONE|DICT|INTERRES
    91   44  169 1    
    92   45   46 2    
    93   45   47 1    
    94   47   48 1    
    95   47   49 1    
    96   47  170 1    
    97   48  171 1    
    98   48  172 1    
    99   48  173 1    
   100   49   50 am   BACKBONE|DICT|INTERRES
   101   49  174 1    
   102   50   51 2    
   103   50   52 1    
   104   52   53 1    
   105   52   54 1    
   106   52  175 1    
   107   53  176 1    
   108   53  177 1    
   109   53  178 1    
   110   54   55 am   BACKBONE|DICT|INTERRES
   111   54  179 1    
   112   55   56 2    
   113   55   57 1    
   114   57   58 1    
   115   57   59 1    
   116   57  180 1    
   117   58  181 1    
   118   58  182 1    
   119   58  183 1    
   120   59   60 am   BACKBONE|DICT|INTERRES
   121   59  184 1    
   122   60   61 2    
   123   60   62 1    
   124   62   63 1    
   125   62   64 1    
   126   62  185 1    
   127   63  186 1    
   128   63  187 1    
   129   63  188 1    
   130   64   65 am   BACKBONE|DICT|INTERRES
   131   64  189 1    
   132   65   66 2    
   133   67   68 2    
   134   67   69 am   BACKBONE|DICT|INTERRES
   135   69   70 1    
   136   69  190 1    
   137   70   71 1    
   138   70   72 1    
   139   70  191 1    
   140   71  192 1    
   141   71  193 1    
   142   71  194 1    
   143   72   73 2    
   144   72   74 am   BACKBONE|DICT|INTERRES
   145   74   75 1    
   146   74  195 1    
   147   75   76 1    
   148   75   77 1    
   149   75  196 1    
   150   76  197 1    
   151   76  198 1    
   152   76  199 1    
   153   77   78 2    
   154   77   79 am   BACKBONE|DICT|INTERRES
   155   79   80 1    
   156   79  200 1    
   157   80   81 1    
   158   80   82 1    
   159   80  201 1    
   160   81  202 1    
   161   81  203 1    
   162   81  204 1    
   163   82   83 2    
   164   82   84 am   BACKBONE|DICT|INTERRES
   165   84   85 1    
   166   84  205 1    
   167   85   86 1    
   168   85   87 1    
   169   85  206 1    
   170   86  207 1    
   171   86  208 1    
   172   86  209 1    
   173   87   88 2    
   174   87   89 am   BACKBONE|DICT|INTERRES
   175   89   90 1    
   176   89  210 1    
   177   90   91 1    
   178   90   92 1    
   179   90  211 1    
   180   91  212 1    
   181   91  213 1    
   182   91  214 1    
   183   92   93 2    
   184   92   94 am   BACKBONE|DICT|INTERRES
   185   94   95 1    
   186   94  215 1    
   187   95   96 1    
   188   95   97 1    
   189   95  216 1    
   190   96  217 1    
   191   96  218 1    
   192   96  219 1    
   193   97   98 2    
   194   97   99 am   BACKBONE|DICT|INTERRES
   195   99  100 1    
   196   99  220 1    
   197  100  101 1    
   198  100  102 1    
   199  100  221 1    
   200  101  222 1    
   201  101  223 1    
   202  101  224 1    
   203  102  103 2    
   204  102  104 am   BACKBONE|DICT|INTERRES
   205  104  105 1    
   206  104  225 1    
   207  105  106 1    
   208  105  107 1    
   209  105  226 1    
   210  106  227 1    
   211  106  228 1    
   212  106  229 1    
   213  107  108 2    
   214  107  109 am   BACKBONE|DICT|INTERRES
   215  109  110 1    
   216  109  230 1    
   217  110  111 1    
   218  110  112 1    
   219  110  231 1    
   220  111  232 1    
   221  111  233 1    
   222  111  234 1    
   223  112  113 2    
   224  112  114 am   BACKBONE|DICT|INTERRES
   225  114  115 1    
   226  114  235 1    
   227  115  116 1    
   228  115  117 1    
   229  115  236 1    
   230  116  237 1    
   231  116  238 1    
   232  116  239 1    
   233  117  118 2    
   234  117  119 am   BACKBONE|DICT|INTERRES
   235  119  120 1    
   236  119  240 1    
   237  120  121 1    
   238  120  124 1    
   239  120  241 1    
   240  121  122 am   BACKBONE|DICT|INTERRES
   241  121  123 2    
   242  122  242 1    
   243  122  243 1    
   244  124  125 1    
   245  124  244 1    
   246  124  245 1    
   247  125  126 1    
   248  126  246 1    
   249  126  247 1    
@<TRIPOS>SUBSTRUCTURE
     1 UNK         1 GROUP             0       ****    0 ROOT    
