@<TRIPOS>MOLECULE
3R540
247   249    1
SMALL
USER_CHARGES


@<TRIPOS>ATOM
      1 CA         -2.6823  -12.9250  -45.5903 C.3       0 UNK        -0.1800 
      2 C          -1.7400  -12.4457  -46.6850 C.2       0 UNK         0.5000 
      3 O          -2.1114  -11.5752  -47.4731 O.2       0 UNK        -0.5000 
      4 N          -0.5312  -13.0170  -46.7467 N.am      1 UNK        -0.5000 
      5 CA          0.5069  -12.6623  -47.7206 C.3       1 UNK         0.1400 
      6 C6          1.5647  -13.7842  -47.9139 C.3       23 UNK        -0.0398 
      7 S7          0.8642  -15.4603  -48.0150 S.3       23 UNK        -0.2404 
      8 C8          0.3513  -15.5681  -49.7493 C.3       23 UNK        -0.0205 
      9 C9         -0.4808  -16.8212  -49.9490 C.ar      23 UNK        -0.0193 
     10 C10        -1.8626  -16.7813  -49.7446 C.ar      23 UNK        -0.1150 
     11 C11        -2.6327  -17.9377  -49.8860 C.ar      23 UNK        -0.0193 
     12 C12        -2.0092  -19.1390  -50.2355 C.ar      23 UNK        -0.1150 
     13 C13        -0.6251  -19.1954  -50.4231 C.ar      23 UNK        -0.0193 
     14 C14         0.1333  -18.0299  -50.2880 C.ar      23 UNK        -0.1150 
     15 C15         0.0538  -20.5177  -50.7496 C.3       23 UNK        -0.0205 
     16 S16         0.6104  -21.3780  -49.2415 S.3       23 UNK        -0.2404 
     17 C17        -0.9915  -21.7819  -48.4772 C.3       23 UNK        -0.0398 
     18 CA         -0.8972  -22.9109  -47.4260 C.3       11 UNK         0.1400 
     19 N          -0.2833  -22.4843  -46.1633 N.am      11 UNK        -0.5000 
     20 C          -0.0144  -23.3110  -45.1401 C.2       10 UNK         0.5000 
     21 O          -0.1875  -24.5289  -45.1812 O.2       10 UNK        -0.5000 
     22 CA          0.4628  -22.6725  -43.8245 C.3       10 UNK         0.1400 
     23 CB          1.9576  -22.3261  -43.8868 C.3       10 UNK        -0.1800 
     24 N          -0.3177  -21.4885  -43.4647 N.am      10 UNK        -0.5000 
     25 C          -1.6298  -21.5003  -43.1865 C.2       9 UNK         0.5000 
     26 O          -2.3074  -22.5267  -43.1418 O.2       9 UNK        -0.5000 
     27 CA         -2.3129  -20.1364  -42.9728 C.3       9 UNK         0.1400 
     28 CB         -2.1010  -19.6327  -41.5380 C.3       9 UNK        -0.1800 
     29 N          -1.8549  -19.1239  -43.9246 N.am      9 UNK        -0.5000 
     30 C          -2.0317  -19.1938  -45.2525 C.2       8 UNK         0.5000 
     31 O          -2.6569  -20.0930  -45.8145 O.2       8 UNK        -0.5000 
     32 CA         -1.3494  -18.1021  -46.0937 C.3       8 UNK         0.1400 
     33 CB         -2.2109  -16.8311  -46.1362 C.3       8 UNK        -0.1800 
     34 N          -0.0131  -17.7883  -45.5848 N.am      8 UNK        -0.5000 
     35 C           1.0278  -18.6311  -45.6486 C.2       7 UNK         0.5000 
     36 O           0.9693  -19.7465  -46.1655 O.2       7 UNK        -0.5000 
     37 CA          2.3303  -18.1846  -44.9567 C.3       7 UNK         0.1400 
     38 CB          3.1710  -17.2697  -45.8585 C.3       7 UNK        -0.1800 
     39 N           2.0823  -17.5130  -43.6811 N.am      7 UNK        -0.5000 
     40 C           1.6146  -18.1315  -42.5875 C.2       6 UNK         0.5000 
     41 O           1.3846  -19.3382  -42.5356 O.2       6 UNK        -0.5000 
     42 CA          1.3169  -17.2559  -41.3559 C.3       6 UNK         0.1400 
     43 CB          2.5547  -17.1652  -40.4512 C.3       6 UNK        -0.1800 
     44 N           0.8721  -15.9038  -41.6939 N.am      6 UNK        -0.5000 
     45 C          -0.2218  -15.5986  -42.4070 C.2       5 UNK         0.5000 
     46 O          -1.0050  -16.4403  -42.8478 O.2       5 UNK        -0.5000 
     47 CA         -0.4549  -14.1058  -42.7129 C.3       5 UNK         0.1400 
     48 CB         -1.5003  -13.5119  -41.7585 C.3       5 UNK        -0.1800 
     49 N           0.7730  -13.3058  -42.6497 N.am      5 UNK        -0.5000 
     50 C           1.7670  -13.3883  -43.5429 C.2       4 UNK         0.5000 
     51 O           1.7219  -14.1027  -44.5480 O.2       4 UNK        -0.5000 
     52 CA          3.0465  -12.6070  -43.2161 C.3       4 UNK         0.1400 
     53 CB          3.9030  -13.4146  -42.2182 C.3       4 UNK        -0.1800 
     54 N           3.7808  -12.3712  -44.4550 N.am      4 UNK        -0.5000 
     55 C           4.8648  -11.5996  -44.6026 C.2       3 UNK         0.5000 
     56 O           5.3950  -10.9711  -43.6855 O.2       3 UNK        -0.5000 
     57 CA          5.4408  -11.4978  -46.0270 C.3       3 UNK         0.1400 
     58 CB          6.0230  -12.8442  -46.4892 C.3       3 UNK        -0.1800 
     59 N           4.4349  -11.0463  -46.9875 N.am      3 UNK        -0.5000 
     60 C           3.9333   -9.8032  -47.0425 C.2       2 UNK         0.5000 
     61 O           4.3348   -8.8699  -46.3465 O.2       2 UNK        -0.5000 
     62 CA          2.7764   -9.5639  -48.0357 C.3       2 UNK         0.1400 
     63 CB          3.3177   -9.0627  -49.3834 C.3       2 UNK        -0.1800 
     64 N           1.9486  -10.7537  -48.2621 N.am      2 UNK        -0.5000 
     65 C           1.2031  -11.3450  -47.3180 C.2       1 UNK         0.5000 
     66 O           1.1059  -10.9163  -46.1646 O.2       1 UNK        -0.5000 
     67 C          -2.2897  -23.5313  -47.2063 C.2       11 UNK         0.5000 
     68 O          -2.5622  -24.5865  -47.7702 O.2       11 UNK        -0.5000 
     69 N          -3.1346  -22.8924  -46.3849 N.am      12 UNK        -0.5000 
     70 CA         -4.4698  -23.3846  -46.0396 C.3       12 UNK         0.1400 
     71 CB         -5.2179  -22.3230  -45.2199 C.3       12 UNK        -0.1800 
     72 C          -4.4415  -24.7386  -45.3046 C.2       12 UNK         0.5000 
     73 O          -5.2415  -25.6176  -45.6260 O.2       12 UNK        -0.5000 
     74 N          -3.5027  -24.8945  -44.3611 N.am      13 UNK        -0.5000 
     75 CA         -3.2788  -26.1271  -43.6048 C.3       13 UNK         0.1400 
     76 CB         -2.3240  -25.8399  -42.4359 C.3       13 UNK        -0.1800 
     77 C          -2.7432  -27.2810  -44.4741 C.2       13 UNK         0.5000 
     78 O          -3.1999  -28.4152  -44.3269 O.2       13 UNK        -0.5000 
     79 N          -1.7932  -26.9733  -45.3666 N.am      14 UNK        -0.5000 
     80 CA         -1.1494  -27.9339  -46.2670 C.3       14 UNK         0.1400 
     81 CB          0.2394  -27.3911  -46.6407 C.3       14 UNK        -0.1800 
     82 C          -1.9612  -28.2361  -47.5431 C.2       14 UNK         0.5000 
     83 O          -1.5491  -29.0960  -48.3233 O.2       14 UNK        -0.5000 
     84 N          -3.0537  -27.4941  -47.7698 N.am      15 UNK        -0.5000 
     85 CA         -3.8798  -27.3997  -48.9810 C.3       15 UNK         0.1400 
     86 CB         -4.4511  -28.7614  -49.4203 C.3       15 UNK        -0.1800 
     87 C          -3.1579  -26.6719  -50.1323 C.2       15 UNK         0.5000 
     88 O          -3.7161  -25.7164  -50.6717 O.2       15 UNK        -0.5000 
     89 N          -1.9236  -27.1052  -50.4365 N.am      16 UNK        -0.5000 
     90 CA         -0.8973  -26.4707  -51.2719 C.3       16 UNK         0.1400 
     91 CB         -0.0745  -25.5028  -50.3937 C.3       16 UNK        -0.1800 
     92 C          -1.4445  -25.8130  -52.5573 C.2       16 UNK         0.5000 
     93 O          -1.7766  -26.5220  -53.5086 O.2       16 UNK        -0.5000 
     94 N          -1.5424  -24.4791  -52.5417 N.am      17 UNK        -0.5000 
     95 CA         -2.1356  -23.6473  -53.5827 C.3       17 UNK         0.1400 
     96 CB         -1.0145  -22.9461  -54.3695 C.3       17 UNK        -0.1800 
     97 C          -3.1396  -22.6576  -52.9626 C.2       17 UNK         0.5000 
     98 O          -3.2679  -21.5286  -53.4427 O.2       17 UNK        -0.5000 
     99 N          -3.8410  -23.0794  -51.8997 N.am      18 UNK        -0.5000 
    100 CA        -4.9183  -22.3115  -51.2756 C.3       18 UNK         0.1400 
    101 CB        -5.4010  -23.0284  -50.0074 C.3       18 UNK        -0.1800 
    102 C         -6.0774  -22.0822  -52.2644 C.2       18 UNK         0.5000 
    103 O         -6.4995  -23.0206  -52.9433 O.2       18 UNK        -0.5000 
    104 N         -6.5245  -20.8238  -52.3460 N.am      19 UNK        -0.5000 
    105 CA        -7.4967  -20.2639  -53.2917 C.3       19 UNK         0.1400 
    106 CB        -8.8597  -20.9815  -53.1984 C.3       19 UNK        -0.1800 
    107 C         -6.9827  -20.1550  -54.7460 C.2       19 UNK         0.5000 
    108 O         -7.7687  -19.7979  -55.6251 O.2       19 UNK        -0.5000 
    109 N         -5.6898  -20.4245  -54.9817 N.am      20 UNK        -0.5000 
    110 CA        -5.0357  -20.3047  -56.2861 C.3       20 UNK         0.1400 
    111 CB        -4.5139  -21.6808  -56.7328 C.3       20 UNK        -0.1800 
    112 C         -3.9012  -19.2700  -56.2329 C.2       20 UNK         0.5000 
    113 O         -3.8588  -18.3743  -57.0769 O.2       20 UNK        -0.5000 
    114 N         -3.0131  -19.3951  -55.2378 N.am      21 UNK        -0.5000 
    115 CA        -1.8774  -18.4951  -55.0198 C.3       21 UNK         0.1400 
    116 CB        -0.7712  -19.2666  -54.2837 C.3       21 UNK        -0.1800 
    117 C         -2.2504  -17.2225  -54.2362 C.2       21 UNK         0.5000 
    118 O         -1.4669  -16.2717  -54.2300 O.2       21 UNK        -0.5000 
    119 N         -3.4134  -17.2349  -53.5739 N.am      22 UNK        -0.5000 
    120 CA        -3.9161  -16.1527  -52.7170 C.3       22 UNK         0.1400 
    121 C         -4.1859  -14.8282  -53.4852 C.2       22 UNK         0.5000 
    122 N         -3.9149  -13.6820  -52.8753 N.am      22 UNK        -0.7600 
    123 O         -4.6855  -14.8288  -54.6081 O.2       22 UNK        -0.5000 
    124 C124       -5.1797  -16.5737  -51.9209 C.3       23 UNK        -0.0398 
    125 S125       -5.0865  -18.2213  -51.1374 S.3       23 UNK        -0.2404 
    126 C126       -4.1301  -17.9043  -49.6243 C.3       23 UNK        -0.0205 
    127 H127       -2.5448  -12.3304  -44.6872 H         1 UNK         0.0600 
    128 H128       -2.5101  -13.9729  -45.3497 H         1 UNK         0.0600 
    129 H129       -3.7196  -12.8252  -45.9104 H         1 UNK         0.0600 
    130 H130       -0.2492  -13.6989  -46.0569 H         1 UNK         0.3000 
    131 H131        0.0190  -12.4977  -48.6837 H         1 UNK         0.0600 
    132 H132        2.2722  -13.7969  -47.0840 H         1 UNK         0.0800 
    133 H133        2.1600  -13.6020  -48.8099 H         1 UNK         0.0800 
    134 H134        1.2300  -15.5825  -50.3957 H         1 UNK         0.0800 
    135 H135       -0.2292  -14.6856  -50.0215 H         1 UNK         0.0800 
    136 H136       -2.3333  -15.8516  -49.4577 H         1 UNK         0.1150 
    137 H137       -2.6023  -20.0351  -50.3419 H         1 UNK         0.1150 
    138 H138        1.2053  -18.0688  -50.4204 H         1 UNK         0.1150 
    139 H139       -0.6199  -21.1622  -51.3162 H         1 UNK         0.0800 
    140 H140        0.9158  -20.3398  -51.3941 H         1 UNK         0.0800 
    141 H141       -1.6683  -22.0685  -49.2851 H         1 UNK         0.0800 
    142 H142       -1.4086  -20.8775  -48.0336 H         1 UNK         0.0800 
    143 H143       -0.2640  -23.7024  -47.8317 H         1 UNK         0.0600 
    144 H144       -0.0606  -21.4977  -46.0741 H         1 UNK         0.3000 
    145 H145        0.3240  -23.4103  -43.0316 H         1 UNK         0.0600 
    146 H146        2.1680  -21.5692  -44.6417 H         1 UNK         0.0600 
    147 H147        2.3149  -21.9506  -42.9279 H         1 UNK         0.0600 
    148 H148        2.5514  -23.2074  -44.1321 H         1 UNK         0.0600 
    149 H149        0.1887  -20.6100  -43.4119 H         1 UNK         0.3000 
    150 H150       -3.3849  -20.2730  -43.1281 H         1 UNK         0.0600 
    151 H151       -2.5127  -20.3377  -40.8149 H         1 UNK         0.0600 
    152 H152       -2.5950  -18.6741  -41.3778 H         1 UNK         0.0600 
    153 H153       -1.0439  -19.5081  -41.3063 H         1 UNK         0.0600 
    154 H154       -1.3671  -18.3197  -43.5438 H         1 UNK         0.3000 
    155 H155       -1.2442  -18.4755  -47.1149 H         1 UNK         0.0600 
    156 H156       -3.1908  -17.0434  -46.5652 H         1 UNK         0.0600 
    157 H157       -1.7512  -16.0592  -46.7520 H         1 UNK         0.0600 
    158 H158       -2.3725  -16.4172  -45.1411 H         1 UNK         0.0600 
    159 H159        0.1024  -16.9045  -45.1121 H         1 UNK         0.3000 
    160 H160        2.9161  -19.0850  -44.7599 H         1 UNK         0.0600 
    161 H161        2.7218  -16.2826  -45.9599 H         1 UNK         0.0600 
    162 H162        3.2780  -17.6906  -46.8592 H         1 UNK         0.0600 
    163 H163        4.1733  -17.1345  -45.4522 H         1 UNK         0.0600 
    164 H164        2.2185  -16.5124  -43.6578 H         1 UNK         0.3000 
    165 H165        0.5154  -17.7370  -40.7927 H         1 UNK         0.0600 
    166 H166        2.3339  -16.6208  -39.5330 H         1 UNK         0.0600 
    167 H167        2.9009  -18.1587  -40.1628 H         1 UNK         0.0600 
    168 H168        3.3830  -16.6609  -40.9507 H         1 UNK         0.0600 
    169 H169        1.4501  -15.1452  -41.3664 H         1 UNK         0.3000 
    170 H170       -0.8449  -14.0465  -43.7285 H         1 UNK         0.0600 
    171 H171       -2.4359  -14.0708  -41.8083 H         1 UNK         0.0600 
    172 H172       -1.1591  -13.5333  -40.7228 H         1 UNK         0.0600 
    173 H173       -1.7276  -12.4776  -42.0173 H         1 UNK         0.0600 
    174 H174        0.8760  -12.6984  -41.8491 H         1 UNK         0.3000 
    175 H175        2.7714  -11.6442  -42.7812 H         1 UNK         0.0600 
    176 H176        4.2211  -14.3674  -42.6439 H         1 UNK         0.0600 
    177 H177        4.7975  -12.8694  -41.9185 H         1 UNK         0.0600 
    178 H178        3.3476  -13.6318  -41.3053 H         1 UNK         0.0600 
    179 H179        3.3830  -12.8432  -45.2555 H         1 UNK         0.3000 
    180 H180        6.2533  -10.7679  -46.0099 H         1 UNK         0.0600 
    181 H181        5.2554  -13.6142  -46.5764 H         1 UNK         0.0600 
    182 H182        6.7723  -13.2066  -45.7841 H         1 UNK         0.0600 
    183 H183        6.5114  -12.7484  -47.4590 H         1 UNK         0.0600 
    184 H184        4.0604  -11.7398  -47.6159 H         1 UNK         0.3000 
    185 H185        2.1375   -8.7852  -47.6136 H         1 UNK         0.0600 
    186 H186        2.5059   -8.8125  -50.0668 H         1 UNK         0.0600 
    187 H187        3.9185   -8.1617  -49.2519 H         1 UNK         0.0600 
    188 H188        3.9481   -9.8093  -49.8678 H         1 UNK         0.0600 
    189 H189        1.9754  -11.1452  -49.1928 H         1 UNK         0.3000 
    190 H190       -2.8608  -21.9952  -45.9928 H         1 UNK         0.3000 
    191 H191       -5.0178  -23.5325  -46.9717 H         1 UNK         0.0600 
    192 H192       -5.2947  -21.3840  -45.7685 H         1 UNK         0.0600 
    193 H193       -6.2325  -22.6510  -44.9911 H         1 UNK         0.0600 
    194 H194       -4.7188  -22.1170  -44.2734 H         1 UNK         0.0600 
    195 H195       -2.9162  -24.0996  -44.1219 H         1 UNK         0.3000 
    196 H196       -4.2373  -26.4433  -43.1879 H         1 UNK         0.0600 
    197 H197       -2.1508  -26.7379  -41.8417 H         1 UNK         0.0600 
    198 H198       -2.7356  -25.0821  -41.7689 H         1 UNK         0.0600 
    199 H199       -1.3544  -25.4840  -42.7860 H         1 UNK         0.0600 
    200 H200       -1.4357  -26.0218  -45.3951 H         1 UNK         0.3000 
    201 H201       -1.0122  -28.8794  -45.7383 H         1 UNK         0.0600 
    202 H202        0.8503  -27.2268  -45.7528 H         1 UNK         0.0600 
    203 H203        0.1655  -26.4429  -47.1745 H         1 UNK         0.0600 
    204 H204        0.7798  -28.0892  -47.2812 H         1 UNK         0.0600 
    205 H205       -3.2327  -26.7601  -47.0966 H         1 UNK         0.3000 
    206 H206       -4.7256  -26.7709  -48.6977 H         1 UNK         0.0600 
    207 H207       -3.6776  -29.4381  -49.7834 H         1 UNK         0.0600 
    208 H208       -4.9706  -29.2539  -48.5983 H         1 UNK         0.0600 
    209 H209       -5.1705  -28.6321  -50.2296 H         1 UNK         0.0600 
    210 H210       -1.6120  -27.9229  -49.9223 H         1 UNK         0.3000 
    211 H211       -0.2279  -27.2674  -51.5994 H         1 UNK         0.0600 
    212 H212        0.7093  -25.0085  -50.9696 H         1 UNK         0.0600 
    213 H213        0.4172  -26.0386  -49.5823 H         1 UNK         0.0600 
    214 H214       -0.7005  -24.7319  -49.9445 H         1 UNK         0.0600 
    215 H215       -1.2729  -23.9965  -51.6969 H         1 UNK         0.3000 
    216 H216       -2.7091  -24.2640  -54.2774 H         1 UNK         0.0600 
    217 H217       -1.4194  -22.3423  -55.1822 H         1 UNK         0.0600 
    218 H218       -0.3356  -23.6724  -54.8163 H         1 UNK         0.0600 
    219 H219       -0.4260  -22.2903  -53.7273 H         1 UNK         0.0600 
    220 H220       -3.7232  -24.0352  -51.5701 H         1 UNK         0.3000 
    221 H221       -4.5046  -21.3456  -50.9799 H         1 UNK         0.0600 
    222 H222       -5.8516  -23.9945  -50.2383 H         1 UNK         0.0600 
    223 H223       -4.5741  -23.2023  -49.3196 H         1 UNK         0.0600 
    224 H224       -6.1473  -22.4328  -49.4807 H         1 UNK         0.0600 
    225 H225       -6.0873  -20.1308  -51.7495 H         1 UNK         0.3000 
    226 H226       -7.6549  -19.2354  -52.9641 H         1 UNK         0.0600 
    227 H227       -9.1999  -21.0510  -52.1653 H         1 UNK         0.0600 
    228 H228       -9.6249  -20.4384  -53.7541 H         1 UNK         0.0600 
    229 H229       -8.8189  -21.9904  -53.6090 H         1 UNK         0.0600 
    230 H230       -5.1038  -20.7226  -54.2119 H         1 UNK         0.3000 
    231 H231       -5.7443  -19.9616  -57.0426 H         1 UNK         0.0600 
    232 H232       -3.7951  -22.0961  -56.0274 H         1 UNK         0.0600 
    233 H233       -4.0203  -21.6142  -57.7030 H         1 UNK         0.0600 
    234 H234       -5.3316  -22.3947  -56.8320 H         1 UNK         0.0600 
    235 H235       -3.0993  -20.1724  -54.5848 H         1 UNK         0.3000 
    236 H236       -1.4801  -18.1768  -55.9859 H         1 UNK         0.0600 
    237 H237       -0.3926  -20.0848  -54.8949 H         1 UNK         0.0600 
    238 H238        0.0759  -18.6204  -54.0500 H         1 UNK         0.0600 
    239 H239       -1.1347  -19.6835  -53.3446 H         1 UNK         0.0600 
    240 H240       -3.9894  -18.0595  -53.6352 H         1 UNK         0.3000 
    241 H241       -3.1239  -15.9476  -51.9976 H         1 UNK         0.0600 
    242 H242       -4.1027  -12.8168  -53.3580 H         1 UNK         0.3800 
    243 H243       -3.5140  -13.6527  -51.9510 H         1 UNK         0.3800 
    244 H244       -5.4084  -15.8325  -51.1533 H         1 UNK         0.0800 
    245 H245       -6.0472  -16.5929  -52.5833 H         1 UNK         0.0800 
    246 H246       -4.3716  -18.6742  -48.8898 H         1 UNK         0.0800 
    247 H247       -4.4357  -16.9554  -49.1812 H         1 UNK         0.0800 
@<TRIPOS>BOND
     1    1    2 1    
     2    1  127 1    
     3    1  128 1    
     4    1  129 1    
     5    2    3 2    
     6    2    4 am   BACKBONE|DICT|INTERRES
     7    4    5 1    
     8    4  130 1    
     9    5    6 1    
    10    5   65 1    
    11    5  131 1    
    12    6    7 1    
    13    6  132 1    
    14    6  133 1    
    15    7    8 1    
    16    8    9 1    
    17    8  134 1    
    18    8  135 1    
    19    9   10 ar   
    20    9   14 ar   
    21   10   11 ar   
    22   10  136 1    
    23   11   12 ar   
    24   11  126 1    
    25   12   13 ar   
    26   12  137 1    
    27   13   14 ar   
    28   13   15 1    
    29   14  138 1    
    30   15   16 1    
    31   15  139 1    
    32   15  140 1    
    33   16   17 1    
    34   17   18 1    
    35   17  141 1    
    36   17  142 1    
    37   18   19 1    
    38   18   67 1    
    39   18  143 1    
    40   19   20 am   BACKBONE|DICT|INTERRES
    41   19  144 1    
    42   20   21 2    
    43   20   22 1    
    44   22   23 1    
    45   22   24 1    
    46   22  145 1    
    47   23  146 1    
    48   23  147 1    
    49   23  148 1    
    50   24   25 am   BACKBONE|DICT|INTERRES
    51   24  149 1    
    52   25   26 2    
    53   25   27 1    
    54   27   28 1    
    55   27   29 1    
    56   27  150 1    
    57   28  151 1    
    58   28  152 1    
    59   28  153 1    
    60   29   30 am   BACKBONE|DICT|INTERRES
    61   29  154 1    
    62   30   31 2    
    63   30   32 1    
    64   32   33 1    
    65   32   34 1    
    66   32  155 1    
    67   33  156 1    
    68   33  157 1    
    69   33  158 1    
    70   34   35 am   BACKBONE|DICT|INTERRES
    71   34  159 1    
    72   35   36 2    
    73   35   37 1    
    74   37   38 1    
    75   37   39 1    
    76   37  160 1    
    77   38  161 1    
    78   38  162 1    
    79   38  163 1    
    80   39   40 am   BACKBONE|DICT|INTERRES
    81   39  164 1    
    82   40   41 2    
    83   40   42 1    
    84   42   43 1    
    85   42   44 1    
    86   42  165 1    
    87   43  166 1    
    88   43  167 1    
    89   43  168 1    
    90   44   45 am   BACKBONE|DICT|INTERRES
    91   44  169 1    
    92   45   46 2    
    93   45   47 1    
    94   47   48 1    
    95   47   49 1    
    96   47  170 1    
    97   48  171 1    
    98   48  172 1    
    99   48  173 1    
   100   49   50 am   BACKBONE|DICT|INTERRES
   101   49  174 1    
   102   50   51 2    
   103   50   52 1    
   104   52   53 1    
   105   52   54 1    
   106   52  175 1    
   107   53  176 1    
   108   53  177 1    
   109   53  178 1    
   110   54   55 am   BACKBONE|DICT|INTERRES
   111   54  179 1    
   112   55   56 2    
   113   55   57 1    
   114   57   58 1    
   115   57   59 1    
   116   57  180 1    
   117   58  181 1    
   118   58  182 1    
   119   58  183 1    
   120   59   60 am   BACKBONE|DICT|INTERRES
   121   59  184 1    
   122   60   61 2    
   123   60   62 1    
   124   62   63 1    
   125   62   64 1    
   126   62  185 1    
   127   63  186 1    
   128   63  187 1    
   129   63  188 1    
   130   64   65 am   BACKBONE|DICT|INTERRES
   131   64  189 1    
   132   65   66 2    
   133   67   68 2    
   134   67   69 am   BACKBONE|DICT|INTERRES
   135   69   70 1    
   136   69  190 1    
   137   70   71 1    
   138   70   72 1    
   139   70  191 1    
   140   71  192 1    
   141   71  193 1    
   142   71  194 1    
   143   72   73 2    
   144   72   74 am   BACKBONE|DICT|INTERRES
   145   74   75 1    
   146   74  195 1    
   147   75   76 1    
   148   75   77 1    
   149   75  196 1    
   150   76  197 1    
   151   76  198 1    
   152   76  199 1    
   153   77   78 2    
   154   77   79 am   BACKBONE|DICT|INTERRES
   155   79   80 1    
   156   79  200 1    
   157   80   81 1    
   158   80   82 1    
   159   80  201 1    
   160   81  202 1    
   161   81  203 1    
   162   81  204 1    
   163   82   83 2    
   164   82   84 am   BACKBONE|DICT|INTERRES
   165   84   85 1    
   166   84  205 1    
   167   85   86 1    
   168   85   87 1    
   169   85  206 1    
   170   86  207 1    
   171   86  208 1    
   172   86  209 1    
   173   87   88 2    
   174   87   89 am   BACKBONE|DICT|INTERRES
   175   89   90 1    
   176   89  210 1    
   177   90   91 1    
   178   90   92 1    
   179   90  211 1    
   180   91  212 1    
   181   91  213 1    
   182   91  214 1    
   183   92   93 2    
   184   92   94 am   BACKBONE|DICT|INTERRES
   185   94   95 1    
   186   94  215 1    
   187   95   96 1    
   188   95   97 1    
   189   95  216 1    
   190   96  217 1    
   191   96  218 1    
   192   96  219 1    
   193   97   98 2    
   194   97   99 am   BACKBONE|DICT|INTERRES
   195   99  100 1    
   196   99  220 1    
   197  100  101 1    
   198  100  102 1    
   199  100  221 1    
   200  101  222 1    
   201  101  223 1    
   202  101  224 1    
   203  102  103 2    
   204  102  104 am   BACKBONE|DICT|INTERRES
   205  104  105 1    
   206  104  225 1    
   207  105  106 1    
   208  105  107 1    
   209  105  226 1    
   210  106  227 1    
   211  106  228 1    
   212  106  229 1    
   213  107  108 2    
   214  107  109 am   BACKBONE|DICT|INTERRES
   215  109  110 1    
   216  109  230 1    
   217  110  111 1    
   218  110  112 1    
   219  110  231 1    
   220  111  232 1    
   221  111  233 1    
   222  111  234 1    
   223  112  113 2    
   224  112  114 am   BACKBONE|DICT|INTERRES
   225  114  115 1    
   226  114  235 1    
   227  115  116 1    
   228  115  117 1    
   229  115  236 1    
   230  116  237 1    
   231  116  238 1    
   232  116  239 1    
   233  117  118 2    
   234  117  119 am   BACKBONE|DICT|INTERRES
   235  119  120 1    
   236  119  240 1    
   237  120  121 1    
   238  120  124 1    
   239  120  241 1    
   240  121  122 am   BACKBONE|DICT|INTERRES
   241  121  123 2    
   242  122  242 1    
   243  122  243 1    
   244  124  125 1    
   245  124  244 1    
   246  124  245 1    
   247  125  126 1    
   248  126  246 1    
   249  126  247 1    
@<TRIPOS>SUBSTRUCTURE
     1 UNK         1 GROUP             0       ****    0 ROOT    
