@<TRIPOS>MOLECULE
3R540
247   249    1
SMALL
USER_CHARGES


@<TRIPOS>ATOM
      1 CA          7.3465   -9.0671  -46.9169 C.3       0 UNK        -0.1800 
      2 C           6.5701  -10.3710  -46.7958 C.2       0 UNK         0.5000 
      3 O           6.8329  -11.1597  -45.8878 O.2       0 UNK        -0.5000 
      4 N           5.6174  -10.5998  -47.7035 N.am      1 UNK        -0.5000 
      5 CA          4.7439  -11.7688  -47.7466 C.3       1 UNK         0.1400 
      6 C6          5.4693  -13.0104  -48.3309 C.3       23 UNK        -0.0398 
      7 S7          4.4832  -14.5514  -48.2979 S.3       23 UNK        -0.2404 
      8 C8          4.5743  -15.0169  -50.0536 C.3       23 UNK        -0.0205 
      9 C9          3.6198  -16.1454  -50.4106 C.ar      23 UNK        -0.0193 
     10 C10         2.4957  -15.8843  -51.1998 C.ar      23 UNK        -0.1150 
     11 C11         1.6537  -16.9231  -51.6040 C.ar      23 UNK        -0.0193 
     12 C12         1.9331  -18.2311  -51.1948 C.ar      23 UNK        -0.1150 
     13 C13         3.0392  -18.5042  -50.3832 C.ar      23 UNK        -0.0193 
     14 C14         3.8849  -17.4570  -50.0025 C.ar      23 UNK        -0.1150 
     15 C15         3.3378  -19.9340  -49.9525 C.3       23 UNK        -0.0205 
     16 S16         3.0594  -20.1914  -48.1706 S.3       23 UNK        -0.2404 
     17 C17         3.2358  -22.0061  -48.0519 C.3       23 UNK        -0.0398 
     18 CA          2.0065  -22.7532  -47.4762 C.3       11 UNK         0.1400 
     19 N           1.7566  -22.4385  -46.0666 N.am      11 UNK        -0.5000 
     20 C           1.0333  -23.2090  -45.2418 C.2       10 UNK         0.5000 
     21 O           0.5207  -24.2707  -45.5970 O.2       10 UNK        -0.5000 
     22 CA          0.7786  -22.7003  -43.8093 C.3       10 UNK         0.1400 
     23 CB          0.9053  -23.8185  -42.7547 C.3       10 UNK        -0.1800 
     24 N           1.5590  -21.5200  -43.4350 N.am      10 UNK        -0.5000 
     25 C           2.8760  -21.4170  -43.2112 C.2       9 UNK         0.5000 
     26 O           3.6682  -22.3548  -43.3038 O.2       9 UNK        -0.5000 
     27 CA          3.4024  -20.0156  -42.8401 C.3       9 UNK         0.1400 
     28 CB          4.1642  -19.4097  -44.0298 C.3       9 UNK        -0.1800 
     29 N           2.3424  -19.0861  -42.4374 N.am      9 UNK        -0.5000 
     30 C           1.6618  -19.1327  -41.2837 C.2       8 UNK         0.5000 
     31 O           1.9093  -19.9269  -40.3758 O.2       8 UNK        -0.5000 
     32 CA          0.4762  -18.1572  -41.1423 C.3       8 UNK         0.1400 
     33 CB          0.9561  -16.7705  -40.6881 C.3       8 UNK        -0.1800 
     34 N          -0.3064  -18.0285  -42.3761 N.am      8 UNK        -0.5000 
     35 C          -1.0370  -19.0142  -42.9189 C.2       7 UNK         0.5000 
     36 O          -1.1501  -20.1335  -42.4210 O.2       7 UNK        -0.5000 
     37 CA         -1.7193  -18.7236  -44.2668 C.3       7 UNK         0.1400 
     38 CB         -3.0340  -17.9557  -44.0701 C.3       7 UNK        -0.1800 
     39 N          -0.8449  -17.9843  -45.1744 N.am      7 UNK        -0.5000 
     40 C           0.2404  -18.4987  -45.7683 C.2       6 UNK         0.5000 
     41 O           0.5469  -19.6905  -45.7080 O.2       6 UNK        -0.5000 
     42 CA          1.1391  -17.5178  -46.5438 C.3       6 UNK         0.1400 
     43 CB          0.6515  -17.3763  -47.9881 C.3       6 UNK        -0.1800 
     44 N           1.2008  -16.1918  -45.9330 N.am      6 UNK        -0.5000 
     45 C           1.7257  -15.9236  -44.7313 C.2       5 UNK         0.5000 
     46 O           2.2496  -16.7698  -44.0113 O.2       5 UNK        -0.5000 
     47 CA          1.5917  -14.4788  -44.2238 C.3       5 UNK         0.1400 
     48 CB          2.7211  -13.5970  -44.7753 C.3       5 UNK        -0.1800 
     49 N           0.2925  -13.9030  -44.5725 N.am      5 UNK        -0.5000 
     50 C          -0.8684  -14.2780  -44.0170 C.2       4 UNK         0.5000 
     51 O          -0.9551  -15.1188  -43.1215 O.2       4 UNK        -0.5000 
     52 CA         -2.1462  -13.6344  -44.5887 C.3       4 UNK         0.1400 
     53 CB         -2.3775  -12.2466  -43.9725 C.3       4 UNK        -0.1800 
     54 N          -2.1133  -13.5189  -46.0488 N.am      4 UNK        -0.5000 
     55 C          -2.1416  -14.5654  -46.8864 C.2       3 UNK         0.5000 
     56 O          -2.2440  -15.7321  -46.5106 O.2       3 UNK        -0.5000 
     57 CA         -1.9742  -14.2655  -48.3902 C.3       3 UNK         0.1400 
     58 CB         -3.3369  -14.0213  -49.0526 C.3       3 UNK        -0.1800 
     59 N          -1.0732  -13.1462  -48.6917 N.am      3 UNK        -0.5000 
     60 C           0.2101  -13.0881  -48.3134 C.2       2 UNK         0.5000 
     61 O           0.7489  -13.9575  -47.6227 O.2       2 UNK        -0.5000 
     62 CA          1.0181  -11.8474  -48.7297 C.3       2 UNK         0.1400 
     63 CB          0.3939  -10.5524  -48.1733 C.3       2 UNK        -0.1800 
     64 N           2.3628  -12.0228  -48.1972 N.am      2 UNK        -0.5000 
     65 C           3.4745  -11.3622  -48.5215 C.2       1 UNK         0.5000 
     66 O           3.5247  -10.4642  -49.3673 O.2       1 UNK        -0.5000 
     67 C           0.7312  -22.5936  -48.3333 C.2       11 UNK         0.5000 
     68 O           0.5513  -23.3476  -49.2898 O.2       11 UNK        -0.5000 
     69 N          -0.1548  -21.6635  -47.9418 N.am      12 UNK        -0.5000 
     70 CA         -1.5050  -21.5436  -48.4922 C.3       12 UNK         0.1400 
     71 CB         -2.0879  -20.1645  -48.1506 C.3       12 UNK        -0.1800 
     72 C          -2.4205  -22.6557  -47.9542 C.2       12 UNK         0.5000 
     73 O          -3.1199  -23.3042  -48.7310 O.2       12 UNK        -0.5000 
     74 N          -2.3794  -22.8702  -46.6298 N.am      13 UNK        -0.5000 
     75 CA         -3.2197  -23.8252  -45.8992 C.3       13 UNK         0.1400 
     76 CB         -2.9526  -23.6942  -44.3929 C.3       13 UNK        -0.1800 
     77 C          -3.0448  -25.2858  -46.3541 C.2       13 UNK         0.5000 
     78 O          -4.0157  -26.0426  -46.3410 O.2       13 UNK        -0.5000 
     79 N          -1.8322  -25.6372  -46.8041 N.am      14 UNK        -0.5000 
     80 CA         -1.4717  -26.9320  -47.3863 C.3       14 UNK         0.1400 
     81 CB          0.0281  -26.9227  -47.7198 C.3       14 UNK        -0.1800 
     82 C          -2.2944  -27.3313  -48.6307 C.2       14 UNK         0.5000 
     83 O          -2.4043  -28.5244  -48.9156 O.2       14 UNK        -0.5000 
     84 N          -2.8742  -26.3487  -49.3370 N.am      15 UNK        -0.5000 
     85 CA         -3.7688  -26.5692  -50.4752 C.3       15 UNK         0.1400 
     86 CB         -3.7815  -25.3090  -51.3542 C.3       15 UNK        -0.1800 
     87 C          -5.2073  -26.9433  -50.0608 C.2       15 UNK         0.5000 
     88 O          -5.9962  -27.3117  -50.9319 O.2       15 UNK        -0.5000 
     89 N          -5.5434  -26.8079  -48.7668 N.am      16 UNK        -0.5000 
     90 CA         -6.8380  -27.0452  -48.1084 C.3       16 UNK         0.1400 
     91 CB         -7.3090  -28.5016  -48.2824 C.3       16 UNK        -0.1800 
     92 C          -7.9394  -26.0434  -48.5089 C.2       16 UNK         0.5000 
     93 O          -8.5809  -25.4614  -47.6344 O.2       16 UNK        -0.5000 
     94 N          -8.1072  -25.8254  -49.8174 N.am      17 UNK        -0.5000 
     95 CA         -8.9987  -24.8323  -50.4220 C.3       17 UNK         0.1400 
     96 CB         -9.4424  -25.3595  -51.7968 C.3       17 UNK        -0.1800 
     97 C          -8.3373  -23.4426  -50.5547 C.2       17 UNK         0.5000 
     98 O          -8.9375  -22.5390  -51.1371 O.2       17 UNK        -0.5000 
     99 N          -7.0967  -23.3096  -50.0605 N.am      18 UNK        -0.5000 
    100 CA        -6.2189  -22.1312  -50.0722 C.3       18 UNK         0.1400 
    101 CB        -6.8816  -20.9248  -49.3764 C.3       18 UNK        -0.1800 
    102 C         -5.6610  -21.7511  -51.4591 C.2       18 UNK         0.5000 
    103 O         -4.8661  -20.8182  -51.5374 O.2       18 UNK        -0.5000 
    104 N         -6.0712  -22.4665  -52.5191 N.am      19 UNK        -0.5000 
    105 CA        -5.6962  -22.2706  -53.9271 C.3       19 UNK         0.1400 
    106 CB        -4.2137  -22.6399  -54.1475 C.3       19 UNK        -0.1800 
    107 C         -6.0481  -20.8665  -54.4714 C.2       19 UNK         0.5000 
    108 O         -5.3502  -20.3628  -55.3521 O.2       19 UNK        -0.5000 
    109 N         -7.1269  -20.2758  -53.9315 N.am      20 UNK        -0.5000 
    110 CA        -7.5669  -18.8849  -54.0800 C.3       20 UNK         0.1400 
    111 CB        -7.8298  -18.5048  -55.5520 C.3       20 UNK        -0.1800 
    112 C         -6.5792  -17.9282  -53.3842 C.2       20 UNK         0.5000 
    113 O         -5.5596  -17.5507  -53.9686 O.2       20 UNK        -0.5000 
    114 N         -6.8960  -17.5892  -52.1254 N.am      21 UNK        -0.5000 
    115 CA        -6.1490  -16.7480  -51.1784 C.3       21 UNK         0.1400 
    116 CB        -5.9599  -15.3145  -51.7138 C.3       21 UNK        -0.1800 
    117 C         -4.8187  -17.3770  -50.7228 C.2       21 UNK         0.5000 
    118 O         -4.6534  -17.6542  -49.5349 O.2       21 UNK        -0.5000 
    119 N         -3.9190  -17.6154  -51.6773 N.am      22 UNK        -0.5000 
    120 CA        -2.6778  -18.3781  -51.5129 C.3       22 UNK         0.1400 
    121 C         -2.1994  -19.0906  -52.8102 C.2       22 UNK         0.5000 
    122 N         -2.9005  -18.9971  -53.9352 N.am      22 UNK        -0.7600 
    123 O         -1.1729  -19.7641  -52.7956 O.2       22 UNK        -0.5000 
    124 C124       -1.5606  -17.5807  -50.7905 C.3       23 UNK        -0.0398 
    125 S125       -1.0085  -16.0636  -51.6465 S.3       23 UNK        -0.2404 
    126 C126        0.4799  -16.6345  -52.5306 C.3       23 UNK        -0.0205 
    127 H127        7.2240   -8.4719  -46.0120 H         1 UNK         0.0600 
    128 H128        8.4085   -9.2737  -47.0494 H         1 UNK         0.0600 
    129 H129        7.0077   -8.4710  -47.7646 H         1 UNK         0.0600 
    130 H130        5.4037   -9.9107  -48.4152 H         1 UNK         0.3000 
    131 H131        4.4406  -11.9935  -46.7218 H         1 UNK         0.0600 
    132 H132        6.3761  -13.2065  -47.7576 H         1 UNK         0.0800 
    133 H133        5.8075  -12.7989  -49.3465 H         1 UNK         0.0800 
    134 H134        5.5954  -15.3179  -50.2924 H         1 UNK         0.0800 
    135 H135        4.3599  -14.1413  -50.6686 H         1 UNK         0.0800 
    136 H136        2.2881  -14.8744  -51.5246 H         1 UNK         0.1150 
    137 H137        1.2913  -19.0396  -51.5163 H         1 UNK         0.1150 
    138 H138        4.7524  -17.6635  -49.3915 H         1 UNK         0.1150 
    139 H139        2.7172  -20.6331  -50.5156 H         1 UNK         0.0800 
    140 H140        4.3740  -20.1752  -50.1938 H         1 UNK         0.0800 
    141 H141        4.1068  -22.2128  -47.4286 H         1 UNK         0.0800 
    142 H142        3.4831  -22.4149  -49.0329 H         1 UNK         0.0800 
    143 H143        2.2579  -23.8158  -47.5154 H         1 UNK         0.0600 
    144 H144        2.0679  -21.5346  -45.7380 H         1 UNK         0.3000 
    145 H145       -0.2583  -22.3647  -43.8014 H         1 UNK         0.0600 
    146 H146        0.6945  -23.4408  -41.7541 H         1 UNK         0.0600 
    147 H147        0.1984  -24.6253  -42.9505 H         1 UNK         0.0600 
    148 H148        1.9024  -24.2587  -42.7461 H         1 UNK         0.0600 
    149 H149        1.0188  -20.6694  -43.3533 H         1 UNK         0.3000 
    150 H150        4.0968  -20.1317  -42.0057 H         1 UNK         0.0600 
    151 H151        4.9878  -20.0540  -44.3398 H         1 UNK         0.0600 
    152 H152        4.5899  -18.4394  -43.7733 H         1 UNK         0.0600 
    153 H153        3.5130  -19.2710  -44.8939 H         1 UNK         0.0600 
    154 H154        2.1326  -18.3347  -43.0924 H         1 UNK         0.3000 
    155 H155       -0.1862  -18.5527  -40.3695 H         1 UNK         0.0600 
    156 H156        1.6286  -16.3165  -41.4156 H         1 UNK         0.0600 
    157 H157        1.4937  -16.8354  -39.7414 H         1 UNK         0.0600 
    158 H158        0.1163  -16.0913  -40.5401 H         1 UNK         0.0600 
    159 H159       -0.2967  -17.1216  -42.8289 H         1 UNK         0.3000 
    160 H160       -1.9587  -19.6841  -44.7269 H         1 UNK         0.0600 
    161 H161       -3.5509  -17.8145  -45.0196 H         1 UNK         0.0600 
    162 H162       -2.8672  -16.9715  -43.6323 H         1 UNK         0.0600 
    163 H163       -3.7093  -18.5002  -43.4091 H         1 UNK         0.0600 
    164 H164       -1.0864  -17.0164  -45.3554 H         1 UNK         0.3000 
    165 H165        2.1523  -17.9215  -46.5555 H         1 UNK         0.0600 
    166 H166        1.2696  -16.6747  -48.5478 H         1 UNK         0.0600 
    167 H167        0.6914  -18.3339  -48.5062 H         1 UNK         0.0600 
    168 H168       -0.3765  -17.0218  -48.0273 H         1 UNK         0.0600 
    169 H169        0.8495  -15.4175  -46.4912 H         1 UNK         0.3000 
    170 H170        1.6767  -14.4937  -43.1353 H         1 UNK         0.0600 
    171 H171        3.6941  -13.9634  -44.4457 H         1 UNK         0.0600 
    172 H172        2.7302  -13.5930  -45.8634 H         1 UNK         0.0600 
    173 H173        2.6268  -12.5667  -44.4321 H         1 UNK         0.0600 
    174 H174        0.2732  -13.2609  -45.3506 H         1 UNK         0.3000 
    175 H175       -2.9895  -14.2729  -44.3165 H         1 UNK         0.0600 
    176 H176       -3.3208  -11.8176  -44.3111 H         1 UNK         0.0600 
    177 H177       -2.4207  -12.3058  -42.8842 H         1 UNK         0.0600 
    178 H178       -1.5792  -11.5502  -44.2322 H         1 UNK         0.0600 
    179 H179       -2.0271  -12.5913  -46.4366 H         1 UNK         0.3000 
    180 H180       -1.5368  -15.1549  -48.8427 H         1 UNK         0.0600 
    181 H181       -3.8061  -13.1073  -48.6872 H         1 UNK         0.0600 
    182 H182       -4.0205  -14.8470  -48.8502 H         1 UNK         0.0600 
    183 H183       -3.2373  -13.9424  -50.1354 H         1 UNK         0.0600 
    184 H184       -1.4563  -12.3978  -49.2504 H         1 UNK         0.3000 
    185 H185        1.0623  -11.8100  -49.8197 H         1 UNK         0.0600 
    186 H186        0.3172  -10.5797  -47.0855 H         1 UNK         0.0600 
    187 H187        0.9864   -9.6779  -48.4422 H         1 UNK         0.0600 
    188 H188       -0.6080  -10.3899  -48.5712 H         1 UNK         0.0600 
    189 H189        2.4231  -12.8199  -47.5739 H         1 UNK         0.3000 
    190 H190        0.0891  -21.0623  -47.1612 H         1 UNK         0.3000 
    191 H191       -1.4563  -21.6336  -49.5799 H         1 UNK         0.0600 
    192 H192       -2.1804  -20.0144  -47.0757 H         1 UNK         0.0600 
    193 H193       -3.0827  -20.0428  -48.5815 H         1 UNK         0.0600 
    194 H194       -1.4628  -19.3660  -48.5426 H         1 UNK         0.0600 
    195 H195       -1.7536  -22.3076  -46.0761 H         1 UNK         0.3000 
    196 H196       -4.2593  -23.5477  -46.0857 H         1 UNK         0.0600 
    197 H197       -3.6533  -24.3046  -43.8218 H         1 UNK         0.0600 
    198 H198       -3.0673  -22.6647  -44.0528 H         1 UNK         0.0600 
    199 H199       -1.9486  -24.0286  -44.1336 H         1 UNK         0.0600 
    200 H200       -1.0763  -24.9684  -46.7039 H         1 UNK         0.3000 
    201 H201       -1.6493  -27.6934  -46.6244 H         1 UNK         0.0600 
    202 H202        0.6300  -26.7605  -46.8256 H         1 UNK         0.0600 
    203 H203        0.2739  -26.1376  -48.4361 H         1 UNK         0.0600 
    204 H204        0.3416  -27.8739  -48.1520 H         1 UNK         0.0600 
    205 H205       -2.7506  -25.3867  -49.0401 H         1 UNK         0.3000 
    206 H206       -3.3783  -27.3931  -51.0760 H         1 UNK         0.0600 
    207 H207       -2.7750  -25.0342  -51.6702 H         1 UNK         0.0600 
    208 H208       -4.3728  -25.4712  -52.2560 H         1 UNK         0.0600 
    209 H209       -4.2133  -24.4560  -50.8319 H         1 UNK         0.0600 
    210 H210       -4.8184  -26.4920  -48.1301 H         1 UNK         0.3000 
    211 H211       -6.6524  -26.8928  -47.0439 H         1 UNK         0.0600 
    212 H212       -7.5468  -28.7370  -49.3200 H         1 UNK         0.0600 
    213 H213       -8.2076  -28.6904  -47.6939 H         1 UNK         0.0600 
    214 H214       -6.5464  -29.2038  -47.9455 H         1 UNK         0.0600 
    215 H215       -7.5148  -26.3574  -50.4515 H         1 UNK         0.3000 
    216 H216       -9.8859  -24.7132  -49.7970 H         1 UNK         0.0600 
    217 H217      -10.1491  -24.6782  -52.2725 H         1 UNK         0.0600 
    218 H218       -9.9393  -26.3255  -51.7053 H         1 UNK         0.0600 
    219 H219       -8.5955  -25.4819  -52.4733 H         1 UNK         0.0600 
    220 H220       -6.7026  -24.1284  -49.6210 H         1 UNK         0.3000 
    221 H221       -5.3554  -22.4074  -49.4706 H         1 UNK         0.0600 
    222 H222       -7.7115  -20.5222  -49.9572 H         1 UNK         0.0600 
    223 H223       -7.2590  -21.1955  -48.3904 H         1 UNK         0.0600 
    224 H224       -6.1640  -20.1153  -49.2362 H         1 UNK         0.0600 
    225 H225       -6.7460  -23.1966  -52.3452 H         1 UNK         0.3000 
    226 H226       -6.2982  -22.9735  -54.5043 H         1 UNK         0.0600 
    227 H227       -4.0021  -23.6503  -53.8012 H         1 UNK         0.0600 
    228 H228       -3.9514  -22.6037  -55.2053 H         1 UNK         0.0600 
    229 H229       -3.5443  -21.9585  -53.6217 H         1 UNK         0.0600 
    230 H230       -7.6166  -20.8026  -53.2213 H         1 UNK         0.3000 
    231 H231       -8.5245  -18.8152  -53.5614 H         1 UNK         0.0600 
    232 H232       -8.5143  -19.2088  -56.0249 H         1 UNK         0.0600 
    233 H233       -6.9159  -18.4754  -56.1453 H         1 UNK         0.0600 
    234 H234       -8.2839  -17.5155  -55.6164 H         1 UNK         0.0600 
    235 H235       -7.7388  -17.9911  -51.7396 H         1 UNK         0.3000 
    236 H236       -6.7794  -16.6765  -50.2904 H         1 UNK         0.0600 
    237 H237       -5.5173  -14.6725  -50.9524 H         1 UNK         0.0600 
    238 H238       -5.3073  -15.2799  -52.5863 H         1 UNK         0.0600 
    239 H239       -6.9152  -14.8709  -51.9939 H         1 UNK         0.0600 
    240 H240       -4.1785  -17.3823  -52.6288 H         1 UNK         0.3000 
    241 H241       -2.9240  -19.2123  -50.8556 H         1 UNK         0.0600 
    242 H242       -2.5713  -19.4898  -54.7491 H         1 UNK         0.3800 
    243 H243       -3.8023  -18.5387  -53.9819 H         1 UNK         0.3800 
    244 H244       -1.9268  -17.2810  -49.8093 H         1 UNK         0.0800 
    245 H245       -0.7090  -18.2270  -50.5881 H         1 UNK         0.0800 
    246 H246        0.2440  -17.5135  -53.1300 H         1 UNK         0.0800 
    247 H247        0.7700  -15.8627  -53.2448 H         1 UNK         0.0800 
@<TRIPOS>BOND
     1    1    2 1    
     2    1  127 1    
     3    1  128 1    
     4    1  129 1    
     5    2    3 2    
     6    2    4 am   BACKBONE|DICT|INTERRES
     7    4    5 1    
     8    4  130 1    
     9    5    6 1    
    10    5   65 1    
    11    5  131 1    
    12    6    7 1    
    13    6  132 1    
    14    6  133 1    
    15    7    8 1    
    16    8    9 1    
    17    8  134 1    
    18    8  135 1    
    19    9   10 ar   
    20    9   14 ar   
    21   10   11 ar   
    22   10  136 1    
    23   11   12 ar   
    24   11  126 1    
    25   12   13 ar   
    26   12  137 1    
    27   13   14 ar   
    28   13   15 1    
    29   14  138 1    
    30   15   16 1    
    31   15  139 1    
    32   15  140 1    
    33   16   17 1    
    34   17   18 1    
    35   17  141 1    
    36   17  142 1    
    37   18   19 1    
    38   18   67 1    
    39   18  143 1    
    40   19   20 am   BACKBONE|DICT|INTERRES
    41   19  144 1    
    42   20   21 2    
    43   20   22 1    
    44   22   23 1    
    45   22   24 1    
    46   22  145 1    
    47   23  146 1    
    48   23  147 1    
    49   23  148 1    
    50   24   25 am   BACKBONE|DICT|INTERRES
    51   24  149 1    
    52   25   26 2    
    53   25   27 1    
    54   27   28 1    
    55   27   29 1    
    56   27  150 1    
    57   28  151 1    
    58   28  152 1    
    59   28  153 1    
    60   29   30 am   BACKBONE|DICT|INTERRES
    61   29  154 1    
    62   30   31 2    
    63   30   32 1    
    64   32   33 1    
    65   32   34 1    
    66   32  155 1    
    67   33  156 1    
    68   33  157 1    
    69   33  158 1    
    70   34   35 am   BACKBONE|DICT|INTERRES
    71   34  159 1    
    72   35   36 2    
    73   35   37 1    
    74   37   38 1    
    75   37   39 1    
    76   37  160 1    
    77   38  161 1    
    78   38  162 1    
    79   38  163 1    
    80   39   40 am   BACKBONE|DICT|INTERRES
    81   39  164 1    
    82   40   41 2    
    83   40   42 1    
    84   42   43 1    
    85   42   44 1    
    86   42  165 1    
    87   43  166 1    
    88   43  167 1    
    89   43  168 1    
    90   44   45 am   BACKBONE|DICT|INTERRES
    91   44  169 1    
    92   45   46 2    
    93   45   47 1    
    94   47   48 1    
    95   47   49 1    
    96   47  170 1    
    97   48  171 1    
    98   48  172 1    
    99   48  173 1    
   100   49   50 am   BACKBONE|DICT|INTERRES
   101   49  174 1    
   102   50   51 2    
   103   50   52 1    
   104   52   53 1    
   105   52   54 1    
   106   52  175 1    
   107   53  176 1    
   108   53  177 1    
   109   53  178 1    
   110   54   55 am   BACKBONE|DICT|INTERRES
   111   54  179 1    
   112   55   56 2    
   113   55   57 1    
   114   57   58 1    
   115   57   59 1    
   116   57  180 1    
   117   58  181 1    
   118   58  182 1    
   119   58  183 1    
   120   59   60 am   BACKBONE|DICT|INTERRES
   121   59  184 1    
   122   60   61 2    
   123   60   62 1    
   124   62   63 1    
   125   62   64 1    
   126   62  185 1    
   127   63  186 1    
   128   63  187 1    
   129   63  188 1    
   130   64   65 am   BACKBONE|DICT|INTERRES
   131   64  189 1    
   132   65   66 2    
   133   67   68 2    
   134   67   69 am   BACKBONE|DICT|INTERRES
   135   69   70 1    
   136   69  190 1    
   137   70   71 1    
   138   70   72 1    
   139   70  191 1    
   140   71  192 1    
   141   71  193 1    
   142   71  194 1    
   143   72   73 2    
   144   72   74 am   BACKBONE|DICT|INTERRES
   145   74   75 1    
   146   74  195 1    
   147   75   76 1    
   148   75   77 1    
   149   75  196 1    
   150   76  197 1    
   151   76  198 1    
   152   76  199 1    
   153   77   78 2    
   154   77   79 am   BACKBONE|DICT|INTERRES
   155   79   80 1    
   156   79  200 1    
   157   80   81 1    
   158   80   82 1    
   159   80  201 1    
   160   81  202 1    
   161   81  203 1    
   162   81  204 1    
   163   82   83 2    
   164   82   84 am   BACKBONE|DICT|INTERRES
   165   84   85 1    
   166   84  205 1    
   167   85   86 1    
   168   85   87 1    
   169   85  206 1    
   170   86  207 1    
   171   86  208 1    
   172   86  209 1    
   173   87   88 2    
   174   87   89 am   BACKBONE|DICT|INTERRES
   175   89   90 1    
   176   89  210 1    
   177   90   91 1    
   178   90   92 1    
   179   90  211 1    
   180   91  212 1    
   181   91  213 1    
   182   91  214 1    
   183   92   93 2    
   184   92   94 am   BACKBONE|DICT|INTERRES
   185   94   95 1    
   186   94  215 1    
   187   95   96 1    
   188   95   97 1    
   189   95  216 1    
   190   96  217 1    
   191   96  218 1    
   192   96  219 1    
   193   97   98 2    
   194   97   99 am   BACKBONE|DICT|INTERRES
   195   99  100 1    
   196   99  220 1    
   197  100  101 1    
   198  100  102 1    
   199  100  221 1    
   200  101  222 1    
   201  101  223 1    
   202  101  224 1    
   203  102  103 2    
   204  102  104 am   BACKBONE|DICT|INTERRES
   205  104  105 1    
   206  104  225 1    
   207  105  106 1    
   208  105  107 1    
   209  105  226 1    
   210  106  227 1    
   211  106  228 1    
   212  106  229 1    
   213  107  108 2    
   214  107  109 am   BACKBONE|DICT|INTERRES
   215  109  110 1    
   216  109  230 1    
   217  110  111 1    
   218  110  112 1    
   219  110  231 1    
   220  111  232 1    
   221  111  233 1    
   222  111  234 1    
   223  112  113 2    
   224  112  114 am   BACKBONE|DICT|INTERRES
   225  114  115 1    
   226  114  235 1    
   227  115  116 1    
   228  115  117 1    
   229  115  236 1    
   230  116  237 1    
   231  116  238 1    
   232  116  239 1    
   233  117  118 2    
   234  117  119 am   BACKBONE|DICT|INTERRES
   235  119  120 1    
   236  119  240 1    
   237  120  121 1    
   238  120  124 1    
   239  120  241 1    
   240  121  122 am   BACKBONE|DICT|INTERRES
   241  121  123 2    
   242  122  242 1    
   243  122  243 1    
   244  124  125 1    
   245  124  244 1    
   246  124  245 1    
   247  125  126 1    
   248  126  246 1    
   249  126  247 1    
@<TRIPOS>SUBSTRUCTURE
     1 UNK         1 GROUP             0       ****    0 ROOT    
