@<TRIPOS>MOLECULE
3R540
247   249    1
SMALL
USER_CHARGES


@<TRIPOS>ATOM
      1 CA          2.4724  -11.6041  -52.4094 C.3       0 UNK        -0.1800 
      2 C           2.6723  -11.8976  -50.9296 C.2       0 UNK         0.5000 
      3 O           3.3429  -11.1325  -50.2353 O.2       0 UNK        -0.5000 
      4 N           2.0822  -12.9932  -50.4369 N.am      1 UNK        -0.5000 
      5 CA          2.1635  -13.4621  -49.0469 C.3       1 UNK         0.1400 
      6 C6          1.9694  -14.9971  -48.9417 C.3       23 UNK        -0.0398 
      7 S7          3.2714  -15.9194  -49.8299 S.3       23 UNK        -0.2404 
      8 C8          2.3889  -16.5011  -51.3135 C.3       23 UNK        -0.0205 
      9 C9          1.4439  -17.6505  -50.9983 C.ar      23 UNK        -0.0193 
     10 C10         0.0628  -17.4431  -50.9402 C.ar      23 UNK        -0.1150 
     11 C11        -0.8024  -18.5026  -50.6502 C.ar      23 UNK        -0.0193 
     12 C12        -0.2772  -19.7760  -50.4111 C.ar      23 UNK        -0.1150 
     13 C13         1.1014  -19.9975  -50.4833 C.ar      23 UNK        -0.0193 
     14 C14         1.9550  -18.9321  -50.7810 C.ar      23 UNK        -0.1150 
     15 C15         1.6694  -21.3903  -50.2594 C.3       23 UNK        -0.0205 
     16 S16         2.7608  -21.4828  -48.8023 S.3       23 UNK        -0.2404 
     17 C17         1.6648  -20.9652  -47.4375 C.3       23 UNK        -0.0398 
     18 CA          0.9441  -22.1607  -46.7690 C.3       11 UNK         0.1400 
     19 N           0.7486  -21.9649  -45.3318 N.am      11 UNK        -0.5000 
     20 C           0.3464  -22.9232  -44.4856 C.2       10 UNK         0.5000 
     21 O           0.1500  -24.0916  -44.8208 O.2       10 UNK        -0.5000 
     22 CA          0.0649  -22.4930  -43.0347 C.3       10 UNK         0.1400 
     23 CB          1.3646  -22.4273  -42.2195 C.3       10 UNK        -0.1800 
     24 N          -0.6372  -21.2103  -42.9583 N.am      10 UNK        -0.5000 
     25 C          -1.8716  -20.9993  -43.4382 C.2       9 UNK         0.5000 
     26 O          -2.5648  -21.8817  -43.9435 O.2       9 UNK        -0.5000 
     27 CA         -2.4080  -19.5579  -43.3887 C.3       9 UNK         0.1400 
     28 CB         -2.9514  -19.2283  -41.9908 C.3       9 UNK        -0.1800 
     29 N          -1.4083  -18.5637  -43.7828 N.am      9 UNK        -0.5000 
     30 C          -0.8508  -18.4847  -45.0006 C.2       8 UNK         0.5000 
     31 O          -1.1466  -19.2257  -45.9369 O.2       8 UNK        -0.5000 
     32 CA          0.2684  -17.4448  -45.1908 C.3       8 UNK         0.1400 
     33 CB         -0.3097  -16.0363  -45.3888 C.3       8 UNK        -0.1800 
     34 N           1.2141  -17.4346  -44.0757 N.am      8 UNK        -0.5000 
     35 C           1.9800  -18.4746  -43.7177 C.2       7 UNK         0.5000 
     36 O           2.0054  -19.5470  -44.3202 O.2       7 UNK        -0.5000 
     37 CA          2.8137  -18.3070  -42.4375 C.3       7 UNK         0.1400 
     38 CB          4.0858  -17.4890  -42.7079 C.3       7 UNK        -0.1800 
     39 N           2.0386  -17.6844  -41.3645 N.am      7 UNK        -0.5000 
     40 C           1.0116  -18.2742  -40.7358 C.2       6 UNK         0.5000 
     41 O           0.6292  -19.4192  -40.9746 O.2       6 UNK        -0.5000 
     42 CA          0.2631  -17.4268  -39.6912 C.3       6 UNK         0.1400 
     43 CB          0.9877  -17.4704  -38.3377 C.3       6 UNK        -0.1800 
     44 N           0.0994  -16.0342  -40.1104 N.am      6 UNK        -0.5000 
     45 C          -0.6612  -15.6399  -41.1413 C.2       5 UNK         0.5000 
     46 O          -1.3260  -16.4073  -41.8354 O.2       5 UNK        -0.5000 
     47 CA         -0.6288  -14.1404  -41.4869 C.3       5 UNK         0.1400 
     48 CB         -1.6195  -13.3595  -40.6109 C.3       5 UNK        -0.1800 
     49 N           0.7063  -13.5465  -41.3648 N.am      5 UNK        -0.5000 
     50 C           1.7667  -13.9234  -42.0896 C.2       4 UNK         0.5000 
     51 O           1.7467  -14.8517  -42.8999 O.2       4 UNK        -0.5000 
     52 CA          3.0735  -13.1460  -41.8574 C.3       4 UNK         0.1400 
     53 CB          3.9160  -13.8445  -40.7794 C.3       4 UNK        -0.1800 
     54 N           3.8575  -13.0677  -43.0924 N.am      4 UNK        -0.5000 
     55 C           3.6120  -12.3035  -44.1665 C.2       3 UNK         0.5000 
     56 O           4.2613  -12.4340  -45.2066 O.2       3 UNK        -0.5000 
     57 CA          2.5308  -11.2051  -44.1054 C.3       3 UNK         0.1400 
     58 CB          3.0967   -9.8993  -43.5186 C.3       3 UNK        -0.1800 
     59 N           2.0542  -10.9635  -45.4601 N.am      3 UNK        -0.5000 
     60 C           0.8434  -10.5106  -45.8017 C.2       2 UNK         0.5000 
     61 O          -0.0162  -10.1736  -44.9865 O.2       2 UNK        -0.5000 
     62 CA          0.5354  -10.4255  -47.3094 C.3       2 UNK         0.1400 
     63 CB          0.7611   -8.9963  -47.8259 C.3       2 UNK        -0.1800 
     64 N           1.3379  -11.3509  -48.1125 N.am      2 UNK        -0.5000 
     65 C           1.1794  -12.6802  -48.1477 C.2       1 UNK         0.5000 
     66 O           0.2957  -13.2720  -47.5265 O.2       1 UNK        -0.5000 
     67 C          -0.3812  -22.4987  -47.4809 C.2       11 UNK         0.5000 
     68 O          -0.4152  -23.4325  -48.2795 O.2       11 UNK        -0.5000 
     69 N          -1.4611  -21.7755  -47.1510 N.am      12 UNK        -0.5000 
     70 CA         -2.8082  -22.0288  -47.6630 C.3       12 UNK         0.1400 
     71 CB         -3.7593  -20.9079  -47.2230 C.3       12 UNK        -0.1800 
     72 C          -3.3574  -23.4087  -47.2563 C.2       12 UNK         0.5000 
     73 O          -3.9928  -24.0692  -48.0786 O.2       12 UNK        -0.5000 
     74 N          -3.0742  -23.8415  -46.0205 N.am      13 UNK        -0.5000 
     75 CA         -3.3858  -25.1827  -45.5268 C.3       13 UNK         0.1400 
     76 CB         -3.1252  -25.2603  -44.0152 C.3       13 UNK        -0.1800 
     77 C          -2.6096  -26.2746  -46.2862 C.2       13 UNK         0.5000 
     78 O          -3.2170  -27.2538  -46.7205 O.2       13 UNK        -0.5000 
     79 N          -1.3006  -26.0609  -46.4886 N.am      14 UNK        -0.5000 
     80 CA         -0.4205  -26.9350  -47.2726 C.3       14 UNK         0.1400 
     81 CB          1.0345  -26.4655  -47.1235 C.3       14 UNK        -0.1800 
     82 C          -0.8175  -27.0256  -48.7607 C.2       14 UNK         0.5000 
     83 O          -0.6814  -28.0905  -49.3633 O.2       14 UNK        -0.5000 
     84 N          -1.3477  -25.9243  -49.3088 N.am      15 UNK        -0.5000 
     85 CA         -1.9185  -25.8197  -50.6537 C.3       15 UNK         0.1400 
     86 CB         -1.9615  -24.3366  -51.0617 C.3       15 UNK        -0.1800 
     87 C          -3.3119  -26.4732  -50.7999 C.2       15 UNK         0.5000 
     88 O          -3.8659  -26.4367  -51.8986 O.2       15 UNK        -0.5000 
     89 N          -3.8445  -27.0595  -49.7157 N.am      16 UNK        -0.5000 
     90 CA         -5.1357  -27.7420  -49.6049 C.3       16 UNK         0.1400 
     91 CB         -5.2172  -28.9598  -50.5504 C.3       16 UNK        -0.1800 
     92 C          -6.3121  -26.7607  -49.7575 C.2       16 UNK         0.5000 
     93 O          -7.1041  -26.8730  -50.6947 O.2       16 UNK        -0.5000 
     94 N          -6.3869  -25.8192  -48.8066 N.am      17 UNK        -0.5000 
     95 CA         -7.3742  -24.7413  -48.6896 C.3       17 UNK         0.1400 
     96 CB         -8.8140  -25.2885  -48.5784 C.3       17 UNK        -0.1800 
     97 C          -7.1949  -23.6723  -49.7848 C.2       17 UNK         0.5000 
     98 O          -8.1619  -23.2856  -50.4440 O.2       17 UNK        -0.5000 
     99 N          -5.9446  -23.2050  -49.9054 N.am      18 UNK        -0.5000 
    100 CA        -5.4206  -22.1623  -50.7901 C.3       18 UNK         0.1400 
    101 CB        -6.2063  -20.8458  -50.6348 C.3       18 UNK        -0.1800 
    102 C         -5.3092  -22.5892  -52.2658 C.2       18 UNK         0.5000 
    103 O         -6.0883  -23.4072  -52.7585 O.2       18 UNK        -0.5000 
    104 N         -4.3249  -21.9975  -52.9502 N.am      19 UNK        -0.5000 
    105 CA        -4.1118  -22.1256  -54.3889 C.3       19 UNK         0.1400 
    106 CB        -2.6136  -21.9265  -54.6751 C.3       19 UNK        -0.1800 
    107 C         -4.9457  -21.0787  -55.1487 C.2       19 UNK         0.5000 
    108 O         -5.4059  -20.1009  -54.5554 O.2       19 UNK        -0.5000 
    109 N         -5.0770  -21.2621  -56.4686 N.am      20 UNK        -0.5000 
    110 CA        -5.7787  -20.3386  -57.3698 C.3       20 UNK         0.1400 
    111 CB        -5.8884  -20.9856  -58.7591 C.3       20 UNK        -0.1800 
    112 C         -5.1241  -18.9433  -57.4742 C.2       20 UNK         0.5000 
    113 O         -5.8034  -17.9785  -57.8261 O.2       20 UNK        -0.5000 
    114 N         -3.8235  -18.8623  -57.1625 N.am      21 UNK        -0.5000 
    115 CA        -3.0397  -17.6281  -57.1274 C.3       21 UNK         0.1400 
    116 CB        -1.5517  -17.9951  -57.2460 C.3       21 UNK        -0.1800 
    117 C         -3.2805  -16.7751  -55.8640 C.2       21 UNK         0.5000 
    118 O         -2.9116  -15.5995  -55.8634 O.2       21 UNK        -0.5000 
    119 N         -3.8559  -17.3674  -54.8087 N.am      22 UNK        -0.5000 
    120 CA        -4.1334  -16.7023  -53.5259 C.3       22 UNK         0.1400 
    121 C         -5.2753  -15.6538  -53.6323 C.2       22 UNK         0.5000 
    122 N         -5.1782  -14.5474  -52.9074 N.am      22 UNK        -0.7600 
    123 O         -6.2680  -15.8506  -54.3297 O.2       22 UNK        -0.5000 
    124 C124       -4.4424  -17.7254  -52.4043 C.3       23 UNK        -0.0398 
    125 S125       -3.0735  -18.9069  -52.1431 S.3       23 UNK        -0.2404 
    126 C126       -2.3045  -18.2746  -50.6206 C.3       23 UNK        -0.0205 
    127 H127        1.8623  -12.3660  -52.8952 H         1 UNK         0.0600 
    128 H128        1.9795  -10.6403  -52.5372 H         1 UNK         0.0600 
    129 H129        3.4361  -11.5657  -52.9171 H         1 UNK         0.0600 
    130 H130        1.5134  -13.5573  -51.0504 H         1 UNK         0.3000 
    131 H131        3.1633  -13.2405  -48.6663 H         1 UNK         0.0600 
    132 H132        2.0111  -15.3136  -47.8978 H         1 UNK         0.0800 
    133 H133        0.9835  -15.2895  -49.3044 H         1 UNK         0.0800 
    134 H134        3.1234  -16.8350  -52.0479 H         1 UNK         0.0800 
    135 H135        1.8543  -15.6717  -51.7777 H         1 UNK         0.0800 
    136 H136       -0.3405  -16.4581  -51.1283 H         1 UNK         0.1150 
    137 H137       -0.9456  -20.5964  -50.1900 H         1 UNK         0.1150 
    138 H138        3.0219  -19.0995  -50.8337 H         1 UNK         0.1150 
    139 H139        0.8719  -22.1274  -50.1674 H         1 UNK         0.0800 
    140 H140        2.2426  -21.6799  -51.1410 H         1 UNK         0.0800 
    141 H141        0.9695  -20.1868  -47.7562 H         1 UNK         0.0800 
    142 H142        2.3209  -20.4798  -46.7154 H         1 UNK         0.0800 
    143 H143        1.5878  -23.0385  -46.8608 H         1 UNK         0.0600 
    144 H144        0.9386  -21.0363  -44.9656 H         1 UNK         0.3000 
    145 H145       -0.5781  -23.2519  -42.5841 H         1 UNK         0.0600 
    146 H146        1.1609  -22.2048  -41.1720 H         1 UNK         0.0600 
    147 H147        1.8948  -23.3799  -42.2525 H         1 UNK         0.0600 
    148 H148        2.0413  -21.6611  -42.5978 H         1 UNK         0.0600 
    149 H149       -0.1443  -20.4462  -42.5066 H         1 UNK         0.3000 
    150 H150       -3.2368  -19.4902  -44.0961 H         1 UNK         0.0600 
    151 H151       -3.7028  -19.9558  -41.6815 H         1 UNK         0.0600 
    152 H152       -3.4244  -18.2463  -41.9740 H         1 UNK         0.0600 
    153 H153       -2.1610  -19.2319  -41.2398 H         1 UNK         0.0600 
    154 H154       -1.1465  -17.8817  -43.0765 H         1 UNK         0.3000 
    155 H155        0.8223  -17.7137  -46.0928 H         1 UNK         0.0600 
    156 H156       -0.8768  -15.7061  -44.5184 H         1 UNK         0.0600 
    157 H157       -0.9780  -16.0054  -46.2502 H         1 UNK         0.0600 
    158 H158        0.4817  -15.3075  -45.5655 H         1 UNK         0.0600 
    159 H159        1.2870  -16.5691  -43.5466 H         1 UNK         0.3000 
    160 H160        3.1169  -19.3016  -42.1034 H         1 UNK         0.0600 
    161 H161        4.6971  -17.4015  -41.8096 H         1 UNK         0.0600 
    162 H162        3.8571  -16.4828  -43.0591 H         1 UNK         0.0600 
    163 H163        4.6988  -17.9687  -43.4720 H         1 UNK         0.0600 
    164 H164        2.2524  -16.7233  -41.1467 H         1 UNK         0.3000 
    165 H165       -0.7303  -17.8612  -39.5604 H         1 UNK         0.0600 
    166 H166        0.4242  -16.9373  -37.5718 H         1 UNK         0.0600 
    167 H167        1.1091  -18.4985  -37.9937 H         1 UNK         0.0600 
    168 H168        1.9813  -17.0241  -38.3960 H         1 UNK         0.0600 
    169 H169        0.6143  -15.3359  -39.5949 H         1 UNK         0.3000 
    170 H170       -0.9432  -14.0377  -42.5277 H         1 UNK         0.0600 
    171 H171       -2.6256  -13.7723  -40.6968 H         1 UNK         0.0600 
    172 H172       -1.3402  -13.3920  -39.5570 H         1 UNK         0.0600 
    173 H173       -1.6728  -12.3133  -40.9126 H         1 UNK         0.0600 
    174 H174        0.8001  -12.7870  -40.7055 H         1 UNK         0.3000 
    175 H175        2.8396  -12.1397  -41.5070 H         1 UNK         0.0600 
    176 H176        4.1875  -14.8598  -41.0704 H         1 UNK         0.0600 
    177 H177        4.8379  -13.2960  -40.5847 H         1 UNK         0.0600 
    178 H178        3.3730  -13.9077  -39.8355 H         1 UNK         0.0600 
    179 H179        4.5737  -13.7719  -43.1821 H         1 UNK         0.3000 
    180 H180        1.6867  -11.5399  -43.5034 H         1 UNK         0.0600 
    181 H181        3.9160   -9.5111  -44.1250 H         1 UNK         0.0600 
    182 H182        3.4804  -10.0508  -42.5095 H         1 UNK         0.0600 
    183 H183        2.3297   -9.1268  -43.4605 H         1 UNK         0.0600 
    184 H184        2.6973  -11.2577  -46.1842 H         1 UNK         0.3000 
    185 H185       -0.5185  -10.6767  -47.4459 H         1 UNK         0.0600 
    186 H186        0.1578   -8.2790  -47.2679 H         1 UNK         0.0600 
    187 H187        1.8047   -8.6940  -47.7293 H         1 UNK         0.0600 
    188 H188        0.4817   -8.9077  -48.8760 H         1 UNK         0.0600 
    189 H189        2.0735  -10.9501  -48.6862 H         1 UNK         0.3000 
    190 H190       -1.3531  -20.9808  -46.5247 H         1 UNK         0.3000 
    191 H191       -2.7461  -22.0065  -48.7516 H         1 UNK         0.0600 
    192 H192       -3.8460  -20.8565  -46.1378 H         1 UNK         0.0600 
    193 H193       -4.7607  -21.0647  -47.6252 H         1 UNK         0.0600 
    194 H194       -3.4141  -19.9363  -47.5765 H         1 UNK         0.0600 
    195 H195       -2.6129  -23.2085  -45.3734 H         1 UNK         0.3000 
    196 H196       -4.4510  -25.3577  -45.6913 H         1 UNK         0.0600 
    197 H197       -3.3879  -26.2442  -43.6247 H         1 UNK         0.0600 
    198 H198       -3.7227  -24.5254  -43.4753 H         1 UNK         0.0600 
    199 H199       -2.0784  -25.0805  -43.7727 H         1 UNK         0.0600 
    200 H200       -0.8696  -25.2412  -46.0708 H         1 UNK         0.3000 
    201 H201       -0.4962  -27.9396  -46.8519 H         1 UNK         0.0600 
    202 H202        1.3412  -26.4576  -46.0774 H         1 UNK         0.0600 
    203 H203        1.1774  -25.4608  -47.5209 H         1 UNK         0.0600 
    204 H204        1.7153  -27.1291  -47.6578 H         1 UNK         0.0600 
    205 H205       -1.3285  -25.0672  -48.7635 H         1 UNK         0.3000 
    206 H206       -1.2516  -26.3379  -51.3455 H         1 UNK         0.0600 
    207 H207       -0.9711  -23.8839  -51.0142 H         1 UNK         0.0600 
    208 H208       -2.3215  -24.2186  -52.0843 H         1 UNK         0.0600 
    209 H209       -2.6233  -23.7640  -50.4141 H         1 UNK         0.0600 
    210 H210       -3.3183  -27.0085  -48.8517 H         1 UNK         0.3000 
    211 H211       -5.1863  -28.1289  -48.5859 H         1 UNK         0.0600 
    212 H212       -5.2176  -28.6687  -51.6009 H         1 UNK         0.0600 
    213 H213       -6.1321  -29.5257  -50.3720 H         1 UNK         0.0600 
    214 H214       -4.3792  -29.6382  -50.3908 H         1 UNK         0.0600 
    215 H215       -5.6299  -25.7762  -48.1369 H         1 UNK         0.3000 
    216 H216       -7.1532  -24.2399  -47.7459 H         1 UNK         0.0600 
    217 H217       -9.5139  -24.4873  -48.3384 H         1 UNK         0.0600 
    218 H218       -8.8927  -26.0350  -47.7882 H         1 UNK         0.0600 
    219 H219       -9.1535  -25.7450  -49.5081 H         1 UNK         0.0600 
    220 H220       -5.2435  -23.6360  -49.3057 H         1 UNK         0.3000 
    221 H221       -4.4067  -21.9760  -50.4356 H         1 UNK         0.0600 
    222 H222       -7.2095  -20.9161  -51.0554 H         1 UNK         0.0600 
    223 H223       -6.2977  -20.5567  -49.5880 H         1 UNK         0.0600 
    224 H224       -5.7012  -20.0321  -51.1506 H         1 UNK         0.0600 
    225 H225       -3.7852  -21.2717  -52.4987 H         1 UNK         0.3000 
    226 H226       -4.4069  -23.1232  -54.7210 H         1 UNK         0.0600 
    227 H227       -2.0083  -22.6436  -54.1204 H         1 UNK         0.0600 
    228 H228       -2.3908  -22.0689  -55.7331 H         1 UNK         0.0600 
    229 H229       -2.2782  -20.9253  -54.4010 H         1 UNK         0.0600 
    230 H230       -4.6671  -22.0807  -56.8954 H         1 UNK         0.3000 
    231 H231       -6.7884  -20.1936  -56.9797 H         1 UNK         0.0600 
    232 H232       -6.4261  -21.9328  -58.7126 H         1 UNK         0.0600 
    233 H233       -4.9059  -21.1765  -59.1926 H         1 UNK         0.0600 
    234 H234       -6.4318  -20.3394  -59.4498 H         1 UNK         0.0600 
    235 H235       -3.3448  -19.7093  -56.8958 H         1 UNK         0.3000 
    236 H236       -3.3101  -17.0175  -57.9915 H         1 UNK         0.0600 
    237 H237       -0.9275  -17.1007  -57.2609 H         1 UNK         0.0600 
    238 H238       -1.2217  -18.6113  -56.4085 H         1 UNK         0.0600 
    239 H239       -1.3520  -18.5434  -58.1669 H         1 UNK         0.0600 
    240 H240       -4.1850  -18.3210  -54.8896 H         1 UNK         0.3000 
    241 H241       -3.2238  -16.1697  -53.2400 H         1 UNK         0.0600 
    242 H242       -5.9197  -13.8656  -52.9556 H         1 UNK         0.3800 
    243 H243       -4.3769  -14.3625  -52.3240 H         1 UNK         0.3800 
    244 H244       -4.6635  -17.2173  -51.4642 H         1 UNK         0.0800 
    245 H245       -5.3420  -18.2886  -52.6547 H         1 UNK         0.0800 
    246 H246       -2.5156  -17.2106  -50.5045 H         1 UNK         0.0800 
    247 H247       -2.7433  -18.7746  -49.7561 H         1 UNK         0.0800 
@<TRIPOS>BOND
     1    1    2 1    
     2    1  127 1    
     3    1  128 1    
     4    1  129 1    
     5    2    3 2    
     6    2    4 am   BACKBONE|DICT|INTERRES
     7    4    5 1    
     8    4  130 1    
     9    5    6 1    
    10    5   65 1    
    11    5  131 1    
    12    6    7 1    
    13    6  132 1    
    14    6  133 1    
    15    7    8 1    
    16    8    9 1    
    17    8  134 1    
    18    8  135 1    
    19    9   10 ar   
    20    9   14 ar   
    21   10   11 ar   
    22   10  136 1    
    23   11   12 ar   
    24   11  126 1    
    25   12   13 ar   
    26   12  137 1    
    27   13   14 ar   
    28   13   15 1    
    29   14  138 1    
    30   15   16 1    
    31   15  139 1    
    32   15  140 1    
    33   16   17 1    
    34   17   18 1    
    35   17  141 1    
    36   17  142 1    
    37   18   19 1    
    38   18   67 1    
    39   18  143 1    
    40   19   20 am   BACKBONE|DICT|INTERRES
    41   19  144 1    
    42   20   21 2    
    43   20   22 1    
    44   22   23 1    
    45   22   24 1    
    46   22  145 1    
    47   23  146 1    
    48   23  147 1    
    49   23  148 1    
    50   24   25 am   BACKBONE|DICT|INTERRES
    51   24  149 1    
    52   25   26 2    
    53   25   27 1    
    54   27   28 1    
    55   27   29 1    
    56   27  150 1    
    57   28  151 1    
    58   28  152 1    
    59   28  153 1    
    60   29   30 am   BACKBONE|DICT|INTERRES
    61   29  154 1    
    62   30   31 2    
    63   30   32 1    
    64   32   33 1    
    65   32   34 1    
    66   32  155 1    
    67   33  156 1    
    68   33  157 1    
    69   33  158 1    
    70   34   35 am   BACKBONE|DICT|INTERRES
    71   34  159 1    
    72   35   36 2    
    73   35   37 1    
    74   37   38 1    
    75   37   39 1    
    76   37  160 1    
    77   38  161 1    
    78   38  162 1    
    79   38  163 1    
    80   39   40 am   BACKBONE|DICT|INTERRES
    81   39  164 1    
    82   40   41 2    
    83   40   42 1    
    84   42   43 1    
    85   42   44 1    
    86   42  165 1    
    87   43  166 1    
    88   43  167 1    
    89   43  168 1    
    90   44   45 am   BACKBONE|DICT|INTERRES
    91   44  169 1    
    92   45   46 2    
    93   45   47 1    
    94   47   48 1    
    95   47   49 1    
    96   47  170 1    
    97   48  171 1    
    98   48  172 1    
    99   48  173 1    
   100   49   50 am   BACKBONE|DICT|INTERRES
   101   49  174 1    
   102   50   51 2    
   103   50   52 1    
   104   52   53 1    
   105   52   54 1    
   106   52  175 1    
   107   53  176 1    
   108   53  177 1    
   109   53  178 1    
   110   54   55 am   BACKBONE|DICT|INTERRES
   111   54  179 1    
   112   55   56 2    
   113   55   57 1    
   114   57   58 1    
   115   57   59 1    
   116   57  180 1    
   117   58  181 1    
   118   58  182 1    
   119   58  183 1    
   120   59   60 am   BACKBONE|DICT|INTERRES
   121   59  184 1    
   122   60   61 2    
   123   60   62 1    
   124   62   63 1    
   125   62   64 1    
   126   62  185 1    
   127   63  186 1    
   128   63  187 1    
   129   63  188 1    
   130   64   65 am   BACKBONE|DICT|INTERRES
   131   64  189 1    
   132   65   66 2    
   133   67   68 2    
   134   67   69 am   BACKBONE|DICT|INTERRES
   135   69   70 1    
   136   69  190 1    
   137   70   71 1    
   138   70   72 1    
   139   70  191 1    
   140   71  192 1    
   141   71  193 1    
   142   71  194 1    
   143   72   73 2    
   144   72   74 am   BACKBONE|DICT|INTERRES
   145   74   75 1    
   146   74  195 1    
   147   75   76 1    
   148   75   77 1    
   149   75  196 1    
   150   76  197 1    
   151   76  198 1    
   152   76  199 1    
   153   77   78 2    
   154   77   79 am   BACKBONE|DICT|INTERRES
   155   79   80 1    
   156   79  200 1    
   157   80   81 1    
   158   80   82 1    
   159   80  201 1    
   160   81  202 1    
   161   81  203 1    
   162   81  204 1    
   163   82   83 2    
   164   82   84 am   BACKBONE|DICT|INTERRES
   165   84   85 1    
   166   84  205 1    
   167   85   86 1    
   168   85   87 1    
   169   85  206 1    
   170   86  207 1    
   171   86  208 1    
   172   86  209 1    
   173   87   88 2    
   174   87   89 am   BACKBONE|DICT|INTERRES
   175   89   90 1    
   176   89  210 1    
   177   90   91 1    
   178   90   92 1    
   179   90  211 1    
   180   91  212 1    
   181   91  213 1    
   182   91  214 1    
   183   92   93 2    
   184   92   94 am   BACKBONE|DICT|INTERRES
   185   94   95 1    
   186   94  215 1    
   187   95   96 1    
   188   95   97 1    
   189   95  216 1    
   190   96  217 1    
   191   96  218 1    
   192   96  219 1    
   193   97   98 2    
   194   97   99 am   BACKBONE|DICT|INTERRES
   195   99  100 1    
   196   99  220 1    
   197  100  101 1    
   198  100  102 1    
   199  100  221 1    
   200  101  222 1    
   201  101  223 1    
   202  101  224 1    
   203  102  103 2    
   204  102  104 am   BACKBONE|DICT|INTERRES
   205  104  105 1    
   206  104  225 1    
   207  105  106 1    
   208  105  107 1    
   209  105  226 1    
   210  106  227 1    
   211  106  228 1    
   212  106  229 1    
   213  107  108 2    
   214  107  109 am   BACKBONE|DICT|INTERRES
   215  109  110 1    
   216  109  230 1    
   217  110  111 1    
   218  110  112 1    
   219  110  231 1    
   220  111  232 1    
   221  111  233 1    
   222  111  234 1    
   223  112  113 2    
   224  112  114 am   BACKBONE|DICT|INTERRES
   225  114  115 1    
   226  114  235 1    
   227  115  116 1    
   228  115  117 1    
   229  115  236 1    
   230  116  237 1    
   231  116  238 1    
   232  116  239 1    
   233  117  118 2    
   234  117  119 am   BACKBONE|DICT|INTERRES
   235  119  120 1    
   236  119  240 1    
   237  120  121 1    
   238  120  124 1    
   239  120  241 1    
   240  121  122 am   BACKBONE|DICT|INTERRES
   241  121  123 2    
   242  122  242 1    
   243  122  243 1    
   244  124  125 1    
   245  124  244 1    
   246  124  245 1    
   247  125  126 1    
   248  126  246 1    
   249  126  247 1    
@<TRIPOS>SUBSTRUCTURE
     1 UNK         1 GROUP             0       ****    0 ROOT    
