@<TRIPOS>MOLECULE
3R540
247   249    1
SMALL
USER_CHARGES


@<TRIPOS>ATOM
      1 CA          4.7385  -13.3873  -46.0429 C.3       0 UNK        -0.1800 
      2 C           3.5075  -13.1300  -46.9003 C.2       0 UNK         0.5000 
      3 O           3.6170  -12.5108  -47.9591 O.2       0 UNK        -0.5000 
      4 N           2.3396  -13.5963  -46.4387 N.am      1 UNK        -0.5000 
      5 CA          1.0138  -13.4887  -47.0592 C.3       1 UNK         0.1400 
      6 C6          0.9153  -14.0243  -48.5146 C.3       23 UNK        -0.0398 
      7 S7          1.5703  -15.7182  -48.7090 S.3       23 UNK        -0.2404 
      8 C8          0.4264  -16.4135  -49.9465 C.3       23 UNK        -0.0205 
      9 C9          1.0537  -17.5463  -50.7498 C.ar      23 UNK        -0.0193 
     10 C10         1.0146  -17.5109  -52.1478 C.ar      23 UNK        -0.1150 
     11 C11         1.5584  -18.5526  -52.9051 C.ar      23 UNK        -0.0193 
     12 C12         2.1655  -19.6276  -52.2509 C.ar      23 UNK        -0.1150 
     13 C13         2.2328  -19.6670  -50.8559 C.ar      23 UNK        -0.0193 
     14 C14         1.6608  -18.6328  -50.1093 C.ar      23 UNK        -0.1150 
     15 C15         2.9496  -20.8169  -50.1668 C.3       23 UNK        -0.0205 
     16 S16         1.8059  -22.1665  -49.7532 S.3       23 UNK        -0.2404 
     17 C17         1.0820  -21.5604  -48.1922 C.3       23 UNK        -0.0398 
     18 CA          0.7268  -22.7210  -47.2340 C.3       11 UNK         0.1400 
     19 N           0.6268  -22.2824  -45.8410 N.am      11 UNK        -0.5000 
     20 C           0.4881  -23.1089  -44.7939 C.2       10 UNK         0.5000 
     21 O           0.4889  -24.3372  -44.8841 O.2       10 UNK        -0.5000 
     22 CA          0.2580  -22.4517  -43.4220 C.3       10 UNK         0.1400 
     23 CB          1.5855  -21.9687  -42.8195 C.3       10 UNK        -0.1800 
     24 N          -0.6925  -21.3399  -43.4865 N.am      10 UNK        -0.5000 
     25 C          -1.9807  -21.4659  -43.8388 C.2       9 UNK         0.5000 
     26 O          -2.5158  -22.5437  -44.0976 O.2       9 UNK        -0.5000 
     27 CA         -2.7980  -20.1686  -43.9724 C.3       9 UNK         0.1400 
     28 CB         -3.2405  -19.6555  -42.5943 C.3       9 UNK        -0.1800 
     29 N          -2.0739  -19.1128  -44.6798 N.am      9 UNK        -0.5000 
     30 C          -1.6546  -19.1890  -45.9507 C.2       8 UNK         0.5000 
     31 O          -1.8551  -20.1558  -46.6827 O.2       8 UNK        -0.5000 
     32 CA         -0.8212  -18.0081  -46.4741 C.3       8 UNK         0.1400 
     33 CB         -1.7224  -16.8203  -46.8478 C.3       8 UNK        -0.1800 
     34 N           0.1869  -17.5875  -45.5014 N.am      8 UNK        -0.5000 
     35 C           1.2310  -18.3402  -45.1242 C.2       7 UNK         0.5000 
     36 O           1.4802  -19.4509  -45.5920 O.2       7 UNK        -0.5000 
     37 CA          2.1138  -17.7766  -43.9977 C.3       7 UNK         0.1400 
     38 CB          3.1496  -16.7944  -44.5626 C.3       7 UNK        -0.1800 
     39 N           1.3198  -17.1166  -42.9599 N.am      7 UNK        -0.5000 
     40 C           0.5156  -17.7701  -42.1062 C.2       6 UNK         0.5000 
     41 O           0.3954  -18.9945  -42.0866 O.2       6 UNK        -0.5000 
     42 CA         -0.3379  -16.9161  -41.1476 C.3       6 UNK         0.1400 
     43 CB          0.4406  -16.6115  -39.8596 C.3       6 UNK        -0.1800 
     44 N          -0.7882  -15.6600  -41.7475 N.am      6 UNK        -0.5000 
     45 C          -1.5477  -15.5656  -42.8475 C.2       5 UNK         0.5000 
     46 O          -2.0366  -16.5404  -43.4164 O.2       5 UNK        -0.5000 
     47 CA         -1.7581  -14.1625  -43.4483 C.3       5 UNK         0.1400 
     48 CB         -3.1734  -13.6530  -43.1404 C.3       5 UNK        -0.1800 
     49 N          -0.7841  -13.1550  -43.0158 N.am      5 UNK        -0.5000 
     50 C           0.5404  -13.2002  -43.2170 C.2       4 UNK         0.5000 
     51 O           1.1235  -14.1497  -43.7472 O.2       4 UNK        -0.5000 
     52 CA          1.3124  -11.9476  -42.7815 C.3       4 UNK         0.1400 
     53 CB          2.8220  -12.0193  -43.0801 C.3       4 UNK        -0.1800 
     54 N           0.7205  -10.7925  -43.4481 N.am      4 UNK        -0.5000 
     55 C           0.7845   -9.5241  -43.0256 C.2       3 UNK         0.5000 
     56 O           1.3188   -9.1875  -41.9674 O.2       3 UNK        -0.5000 
     57 CA          0.1333   -8.4601  -43.9402 C.3       3 UNK         0.1400 
     58 CB          0.7578   -7.0590  -43.7704 C.3       3 UNK        -0.1800 
     59 N           0.1001   -8.8545  -45.3560 N.am      3 UNK        -0.5000 
     60 C           1.1516   -9.1032  -46.1508 C.2       2 UNK         0.5000 
     61 O           2.3289   -8.9676  -45.8127 O.2       2 UNK        -0.5000 
     62 CA          0.8233   -9.6662  -47.5447 C.3       2 UNK         0.1400 
     63 CB          1.6175   -8.9489  -48.6484 C.3       2 UNK        -0.1800 
     64 N           1.1199  -11.0960  -47.5964 N.am      2 UNK        -0.5000 
     65 C           0.4629  -12.0552  -46.9323 C.2       1 UNK         0.5000 
     66 O          -0.5115  -11.8392  -46.2100 O.2       1 UNK        -0.5000 
     67 C          -0.5470  -23.4593  -47.6887 C.2       11 UNK         0.5000 
     68 O          -0.4443  -24.5443  -48.2589 O.2       11 UNK        -0.5000 
     69 N          -1.7206  -22.8869  -47.3862 N.am      12 UNK        -0.5000 
     70 CA         -3.0241  -23.4600  -47.7125 C.3       12 UNK         0.1400 
     71 CB         -4.1365  -22.4572  -47.3729 C.3       12 UNK        -0.1800 
     72 C          -3.2785  -24.8133  -47.0266 C.2       12 UNK         0.5000 
     73 O          -3.7879  -25.7338  -47.6663 O.2       12 UNK        -0.5000 
     74 N          -2.8816  -24.9235  -45.7513 N.am      13 UNK        -0.5000 
     75 CA         -2.9384  -26.1575  -44.9686 C.3       13 UNK         0.1400 
     76 CB         -2.5948  -25.8520  -43.5029 C.3       13 UNK        -0.1800 
     77 C          -2.0210  -27.2609  -45.5277 C.2       13 UNK         0.5000 
     78 O          -2.4291  -28.4220  -45.5666 O.2       13 UNK        -0.5000 
     79 N          -0.8141  -26.8794  -45.9694 N.am      14 UNK        -0.5000 
     80 CA          0.1553  -27.7756  -46.6000 C.3       14 UNK         0.1400 
     81 CB          1.5292  -27.0895  -46.6522 C.3       14 UNK        -0.1800 
     82 C          -0.2847  -28.2332  -48.0038 C.2       14 UNK         0.5000 
     83 O          -0.1488  -29.4137  -48.3279 O.2       14 UNK        -0.5000 
     84 N          -0.8062  -27.2961  -48.8068 N.am      15 UNK        -0.5000 
     85 CA         -1.2852  -27.5337  -50.1696 C.3       15 UNK         0.1400 
     86 CB         -1.4387  -26.1833  -50.8877 C.3       15 UNK        -0.1800 
     87 C          -2.6114  -28.3137  -50.2308 C.2       15 UNK         0.5000 
     88 O          -2.8646  -28.9850  -51.2318 O.2       15 UNK        -0.5000 
     89 N          -3.4352  -28.1864  -49.1797 N.am      16 UNK        -0.5000 
     90 CA         -4.8104  -28.6852  -49.0583 C.3       16 UNK         0.1400 
     91 CB         -4.8577  -30.2269  -49.0990 C.3       16 UNK        -0.1800 
     92 C          -5.7709  -28.0132  -50.0656 C.2       16 UNK         0.5000 
     93 O          -6.7256  -28.6367  -50.5332 O.2       16 UNK        -0.5000 
     94 N          -5.4957  -26.7420  -50.3722 N.am      17 UNK        -0.5000 
     95 CA         -6.2312  -25.8678  -51.2773 C.3       17 UNK         0.1400 
     96 CB         -5.8886  -26.2051  -52.7390 C.3       17 UNK        -0.1800 
     97 C          -5.8285  -24.4284  -50.9331 C.2       17 UNK         0.5000 
     98 O          -4.7178  -24.2199  -50.4442 O.2       17 UNK        -0.5000 
     99 N          -6.7268  -23.4654  -51.1692 N.am      18 UNK        -0.5000 
    100 CA        -6.5466  -22.0596  -50.8009 C.3       18 UNK         0.1400 
    101 CB        -7.8381  -21.2863  -51.1116 C.3       18 UNK        -0.1800 
    102 C         -5.3429  -21.3953  -51.4978 C.2       18 UNK         0.5000 
    103 O         -5.2675  -21.4040  -52.7279 O.2       18 UNK        -0.5000 
    104 N         -4.4609  -20.7750  -50.7006 N.am      19 UNK        -0.5000 
    105 CA        -3.2991  -20.0081  -51.1685 C.3       19 UNK         0.1400 
    106 CB        -2.3706  -19.7202  -49.9788 C.3       19 UNK        -0.1800 
    107 C         -3.6867  -18.7015  -51.8919 C.2       19 UNK         0.5000 
    108 O         -2.8817  -18.1596  -52.6481 O.2       19 UNK        -0.5000 
    109 N         -4.9345  -18.2484  -51.6935 N.am      20 UNK        -0.5000 
    110 CA        -5.5703  -17.1253  -52.3873 C.3       20 UNK         0.1400 
    111 CB        -6.9719  -16.9094  -51.7968 C.3       20 UNK        -0.1800 
    112 C         -5.6526  -17.2957  -53.9192 C.2       20 UNK         0.5000 
    113 O         -5.7702  -16.2954  -54.6283 O.2       20 UNK        -0.5000 
    114 N         -5.5345  -18.5398  -54.4113 N.am      21 UNK        -0.5000 
    115 CA        -5.4128  -18.8872  -55.8304 C.3       21 UNK         0.1400 
    116 CB        -5.3819  -20.4166  -55.9673 C.3       21 UNK        -0.1800 
    117 C         -4.1862  -18.2577  -56.5272 C.2       21 UNK         0.5000 
    118 O         -4.2076  -18.0958  -57.7481 O.2       21 UNK        -0.5000 
    119 N         -3.1613  -17.8841  -55.7479 N.am      22 UNK        -0.5000 
    120 CA        -2.0186  -17.0729  -56.1947 C.3       22 UNK         0.1400 
    121 C         -2.3640  -15.5796  -56.4854 C.2       22 UNK         0.5000 
    122 N         -3.5357  -15.0676  -56.1241 N.am      22 UNK        -0.7600 
    123 O         -1.5477  -14.8671  -57.0632 O.2       22 UNK        -0.5000 
    124 C124       -0.8336  -17.1691  -55.2011 C.3       23 UNK        -0.0398 
    125 S125       -0.1404  -18.8544  -55.0890 S.3       23 UNK        -0.2404 
    126 C126        1.5227  -18.5108  -54.4270 C.3       23 UNK        -0.0205 
    127 H127        5.4764  -13.9561  -46.6084 H         1 UNK         0.0600 
    128 H128        4.4948  -13.9497  -45.1411 H         1 UNK         0.0600 
    129 H129        5.1904  -12.4420  -45.7425 H         1 UNK         0.0600 
    130 H130        2.3181  -14.0338  -45.5252 H         1 UNK         0.3000 
    131 H131        0.3662  -14.1192  -46.4480 H         1 UNK         0.0600 
    132 H132       -0.1277  -14.0099  -48.8351 H         1 UNK         0.0800 
    133 H133        1.4527  -13.3806  -49.2123 H         1 UNK         0.0800 
    134 H134        0.1040  -15.6168  -50.6187 H         1 UNK         0.0800 
    135 H135       -0.4716  -16.7827  -49.4521 H         1 UNK         0.0800 
    136 H136        0.5555  -16.6720  -52.6496 H         1 UNK         0.1150 
    137 H137        2.6000  -20.4315  -52.8285 H         1 UNK         0.1150 
    138 H138        1.7029  -18.6638  -49.0296 H         1 UNK         0.1150 
    139 H139        3.4679  -20.4650  -49.2737 H         1 UNK         0.0800 
    140 H140        3.7260  -21.2118  -50.8238 H         1 UNK         0.0800 
    141 H141        0.2189  -20.9280  -48.4065 H         1 UNK         0.0800 
    142 H142        1.8167  -20.9134  -47.7139 H         1 UNK         0.0800 
    143 H143        1.5463  -23.4429  -47.2623 H         1 UNK         0.0600 
    144 H144        0.6546  -21.2811  -45.6770 H         1 UNK         0.3000 
    145 H145       -0.1607  -23.2101  -42.7573 H         1 UNK         0.0600 
    146 H146        1.4427  -21.5884  -41.8079 H         1 UNK         0.0600 
    147 H147        2.3081  -22.7835  -42.7614 H         1 UNK         0.0600 
    148 H148        2.0331  -21.1729  -43.4156 H         1 UNK         0.0600 
    149 H149       -0.3362  -20.4228  -43.2352 H         1 UNK         0.3000 
    150 H150       -3.6938  -20.3990  -44.5525 H         1 UNK         0.0600 
    151 H151       -3.8216  -20.4114  -42.0648 H         1 UNK         0.0600 
    152 H152       -3.8665  -18.7677  -42.6865 H         1 UNK         0.0600 
    153 H153       -2.3868  -19.3985  -41.9672 H         1 UNK         0.0600 
    154 H154       -1.9066  -18.2518  -44.1651 H         1 UNK         0.3000 
    155 H155       -0.3007  -18.3375  -47.3759 H         1 UNK         0.0600 
    156 H156       -2.3249  -16.4803  -46.0062 H         1 UNK         0.0600 
    157 H157       -1.1377  -15.9722  -47.2005 H         1 UNK         0.0600 
    158 H158       -2.4110  -17.0955  -47.6474 H         1 UNK         0.0600 
    159 H159        0.0317  -16.7096  -45.0300 H         1 UNK         0.3000 
    160 H160        2.6503  -18.6106  -43.5402 H         1 UNK         0.0600 
    161 H161        2.6712  -15.9620  -45.0757 H         1 UNK         0.0600 
    162 H162        3.8020  -17.2889  -45.2833 H         1 UNK         0.0600 
    163 H163        3.7823  -16.3864  -43.7743 H         1 UNK         0.0600 
    164 H164        1.3311  -16.1030  -42.9532 H         1 UNK         0.3000 
    165 H165       -1.2241  -17.4967  -40.8841 H         1 UNK         0.0600 
    166 H166       -0.1796  -16.0759  -39.1407 H         1 UNK         0.0600 
    167 H167        0.7730  -17.5321  -39.3780 H         1 UNK         0.0600 
    168 H168        1.3261  -16.0060  -40.0575 H         1 UNK         0.0600 
    169 H169       -0.4320  -14.8080  -41.3415 H         1 UNK         0.3000 
    170 H170       -1.6613  -14.2632  -44.5313 H         1 UNK         0.0600 
    171 H171       -3.9282  -14.3650  -43.4776 H         1 UNK         0.0600 
    172 H172       -3.3214  -13.4990  -42.0709 H         1 UNK         0.0600 
    173 H173       -3.3715  -12.7087  -43.6480 H         1 UNK         0.0600 
    174 H174       -1.1684  -12.3294  -42.5791 H         1 UNK         0.3000 
    175 H175        1.1770  -11.8548  -41.7020 H         1 UNK         0.0600 
    176 H176        3.0154  -11.9905  -44.1511 H         1 UNK         0.0600 
    177 H177        3.3514  -11.1803  -42.6288 H         1 UNK         0.0600 
    178 H178        3.2653  -12.9328  -42.6818 H         1 UNK         0.0600 
    179 H179        0.2384  -10.9904  -44.3184 H         1 UNK         0.3000 
    180 H180       -0.9078   -8.3930  -43.6218 H         1 UNK         0.0600 
    181 H181        1.8253   -7.0600  -43.9921 H         1 UNK         0.0600 
    182 H182        0.6386   -6.6989  -42.7479 H         1 UNK         0.0600 
    183 H183        0.2792   -6.3317  -44.4260 H         1 UNK         0.0600 
    184 H184       -0.8223   -9.0407  -45.7260 H         1 UNK         0.3000 
    185 H185       -0.2404   -9.5247  -47.7476 H         1 UNK         0.0600 
    186 H186        1.4283   -7.8750  -48.6296 H         1 UNK         0.0600 
    187 H187        2.6924   -9.0961  -48.5344 H         1 UNK         0.0600 
    188 H188        1.3340   -9.3122  -49.6363 H         1 UNK         0.0600 
    189 H189        1.9835  -11.3632  -48.0588 H         1 UNK         0.3000 
    190 H190       -1.7258  -21.9697  -46.9448 H         1 UNK         0.3000 
    191 H191       -3.0206  -23.6251  -48.7884 H         1 UNK         0.0600 
    192 H192       -4.1767  -22.2485  -46.3037 H         1 UNK         0.0600 
    193 H193       -5.1115  -22.8452  -47.6701 H         1 UNK         0.0600 
    194 H194       -3.9870  -21.5105  -47.8899 H         1 UNK         0.0600 
    195 H195       -2.5220  -24.0988  -45.2787 H         1 UNK         0.3000 
    196 H196       -3.9646  -26.5286  -45.0065 H         1 UNK         0.0600 
    197 H197       -2.6453  -26.7546  -42.8928 H         1 UNK         0.0600 
    198 H198       -3.2934  -25.1315  -43.0771 H         1 UNK         0.0600 
    199 H199       -1.5897  -25.4415  -43.4018 H         1 UNK         0.0600 
    200 H200       -0.5392  -25.9085  -45.8674 H         1 UNK         0.3000 
    201 H201        0.2492  -28.6661  -45.9749 H         1 UNK         0.0600 
    202 H202        1.8775  -26.8304  -45.6521 H         1 UNK         0.0600 
    203 H203        1.5022  -26.1732  -47.2425 H         1 UNK         0.0600 
    204 H204        2.2772  -27.7461  -47.0981 H         1 UNK         0.0600 
    205 H205       -0.8195  -26.3296  -48.4857 H         1 UNK         0.3000 
    206 H206       -0.5316  -28.1190  -50.7004 H         1 UNK         0.0600 
    207 H207       -0.4904  -25.6469  -50.9271 H         1 UNK         0.0600 
    208 H208       -1.7792  -26.3198  -51.9149 H         1 UNK         0.0600 
    209 H209       -2.1638  -25.5420  -50.3844 H         1 UNK         0.0600 
    210 H210       -3.1531  -27.5465  -48.4451 H         1 UNK         0.3000 
    211 H211       -5.1505  -28.3754  -48.0691 H         1 UNK         0.0600 
    212 H212       -4.6127  -30.6170  -50.0869 H         1 UNK         0.0600 
    213 H213       -5.8528  -30.5923  -48.8433 H         1 UNK         0.0600 
    214 H214       -4.1595  -30.6607  -48.3830 H         1 UNK         0.0600 
    215 H215       -4.7252  -26.2792  -49.9006 H         1 UNK         0.3000 
    216 H216       -7.3024  -25.9900  -51.1056 H         1 UNK         0.0600 
    217 H217       -6.4081  -25.5371  -53.4269 H         1 UNK         0.0600 
    218 H218       -6.1830  -27.2238  -52.9913 H         1 UNK         0.0600 
    219 H219       -4.8189  -26.1093  -52.9305 H         1 UNK         0.0600 
    220 H220       -7.6034  -23.7062  -51.6081 H         1 UNK         0.3000 
    221 H221       -6.3876  -22.0249  -49.7212 H         1 UNK         0.0600 
    222 H222       -8.0765  -21.3120  -52.1758 H         1 UNK         0.0600 
    223 H223       -8.6873  -21.6998  -50.5672 H         1 UNK         0.0600 
    224 H224       -7.7477  -20.2388  -50.8212 H         1 UNK         0.0600 
    225 H225       -4.5922  -20.8156  -49.7012 H         1 UNK         0.3000 
    226 H226       -2.7519  -20.6244  -51.8851 H         1 UNK         0.0600 
    227 H227       -2.0349  -20.6453  -49.5099 H         1 UNK         0.0600 
    228 H228       -1.4787  -19.1807  -50.3001 H         1 UNK         0.0600 
    229 H229       -2.8645  -19.1171  -49.2164 H         1 UNK         0.0600 
    230 H230       -5.5170  -18.7576  -51.0468 H         1 UNK         0.3000 
    231 H231       -4.9707  -16.2341  -52.1918 H         1 UNK         0.0600 
    232 H232       -7.4664  -16.0572  -52.2649 H         1 UNK         0.0600 
    233 H233       -6.9235  -16.7065  -50.7267 H         1 UNK         0.0600 
    234 H234       -7.6098  -17.7814  -51.9463 H         1 UNK         0.0600 
    235 H235       -5.4390  -19.3077  -53.7592 H         1 UNK         0.3000 
    236 H236       -6.3038  -18.5139  -56.3389 H         1 UNK         0.0600 
    237 H237       -6.2771  -20.8701  -55.5413 H         1 UNK         0.0600 
    238 H238       -5.3327  -20.7158  -57.0150 H         1 UNK         0.0600 
    239 H239       -4.5162  -20.8462  -55.4612 H         1 UNK         0.0600 
    240 H240       -3.2069  -18.0650  -54.7516 H         1 UNK         0.3000 
    241 H241       -1.6806  -17.4843  -57.1477 H         1 UNK         0.0600 
    242 H242       -4.2383  -15.6239  -55.6478 H         1 UNK         0.3800 
    243 H243       -3.7316  -14.1012  -56.3313 H         1 UNK         0.3800 
    244 H244       -0.0318  -16.4943  -55.5053 H         1 UNK         0.0800 
    245 H245       -1.1471  -16.8454  -54.2082 H         1 UNK         0.0800 
    246 H246        1.8881  -17.5454  -54.7791 H         1 UNK         0.0800 
    247 H247        2.2094  -19.2529  -54.8371 H         1 UNK         0.0800 
@<TRIPOS>BOND
     1    1    2 1    
     2    1  127 1    
     3    1  128 1    
     4    1  129 1    
     5    2    3 2    
     6    2    4 am   BACKBONE|DICT|INTERRES
     7    4    5 1    
     8    4  130 1    
     9    5    6 1    
    10    5   65 1    
    11    5  131 1    
    12    6    7 1    
    13    6  132 1    
    14    6  133 1    
    15    7    8 1    
    16    8    9 1    
    17    8  134 1    
    18    8  135 1    
    19    9   10 ar   
    20    9   14 ar   
    21   10   11 ar   
    22   10  136 1    
    23   11   12 ar   
    24   11  126 1    
    25   12   13 ar   
    26   12  137 1    
    27   13   14 ar   
    28   13   15 1    
    29   14  138 1    
    30   15   16 1    
    31   15  139 1    
    32   15  140 1    
    33   16   17 1    
    34   17   18 1    
    35   17  141 1    
    36   17  142 1    
    37   18   19 1    
    38   18   67 1    
    39   18  143 1    
    40   19   20 am   BACKBONE|DICT|INTERRES
    41   19  144 1    
    42   20   21 2    
    43   20   22 1    
    44   22   23 1    
    45   22   24 1    
    46   22  145 1    
    47   23  146 1    
    48   23  147 1    
    49   23  148 1    
    50   24   25 am   BACKBONE|DICT|INTERRES
    51   24  149 1    
    52   25   26 2    
    53   25   27 1    
    54   27   28 1    
    55   27   29 1    
    56   27  150 1    
    57   28  151 1    
    58   28  152 1    
    59   28  153 1    
    60   29   30 am   BACKBONE|DICT|INTERRES
    61   29  154 1    
    62   30   31 2    
    63   30   32 1    
    64   32   33 1    
    65   32   34 1    
    66   32  155 1    
    67   33  156 1    
    68   33  157 1    
    69   33  158 1    
    70   34   35 am   BACKBONE|DICT|INTERRES
    71   34  159 1    
    72   35   36 2    
    73   35   37 1    
    74   37   38 1    
    75   37   39 1    
    76   37  160 1    
    77   38  161 1    
    78   38  162 1    
    79   38  163 1    
    80   39   40 am   BACKBONE|DICT|INTERRES
    81   39  164 1    
    82   40   41 2    
    83   40   42 1    
    84   42   43 1    
    85   42   44 1    
    86   42  165 1    
    87   43  166 1    
    88   43  167 1    
    89   43  168 1    
    90   44   45 am   BACKBONE|DICT|INTERRES
    91   44  169 1    
    92   45   46 2    
    93   45   47 1    
    94   47   48 1    
    95   47   49 1    
    96   47  170 1    
    97   48  171 1    
    98   48  172 1    
    99   48  173 1    
   100   49   50 am   BACKBONE|DICT|INTERRES
   101   49  174 1    
   102   50   51 2    
   103   50   52 1    
   104   52   53 1    
   105   52   54 1    
   106   52  175 1    
   107   53  176 1    
   108   53  177 1    
   109   53  178 1    
   110   54   55 am   BACKBONE|DICT|INTERRES
   111   54  179 1    
   112   55   56 2    
   113   55   57 1    
   114   57   58 1    
   115   57   59 1    
   116   57  180 1    
   117   58  181 1    
   118   58  182 1    
   119   58  183 1    
   120   59   60 am   BACKBONE|DICT|INTERRES
   121   59  184 1    
   122   60   61 2    
   123   60   62 1    
   124   62   63 1    
   125   62   64 1    
   126   62  185 1    
   127   63  186 1    
   128   63  187 1    
   129   63  188 1    
   130   64   65 am   BACKBONE|DICT|INTERRES
   131   64  189 1    
   132   65   66 2    
   133   67   68 2    
   134   67   69 am   BACKBONE|DICT|INTERRES
   135   69   70 1    
   136   69  190 1    
   137   70   71 1    
   138   70   72 1    
   139   70  191 1    
   140   71  192 1    
   141   71  193 1    
   142   71  194 1    
   143   72   73 2    
   144   72   74 am   BACKBONE|DICT|INTERRES
   145   74   75 1    
   146   74  195 1    
   147   75   76 1    
   148   75   77 1    
   149   75  196 1    
   150   76  197 1    
   151   76  198 1    
   152   76  199 1    
   153   77   78 2    
   154   77   79 am   BACKBONE|DICT|INTERRES
   155   79   80 1    
   156   79  200 1    
   157   80   81 1    
   158   80   82 1    
   159   80  201 1    
   160   81  202 1    
   161   81  203 1    
   162   81  204 1    
   163   82   83 2    
   164   82   84 am   BACKBONE|DICT|INTERRES
   165   84   85 1    
   166   84  205 1    
   167   85   86 1    
   168   85   87 1    
   169   85  206 1    
   170   86  207 1    
   171   86  208 1    
   172   86  209 1    
   173   87   88 2    
   174   87   89 am   BACKBONE|DICT|INTERRES
   175   89   90 1    
   176   89  210 1    
   177   90   91 1    
   178   90   92 1    
   179   90  211 1    
   180   91  212 1    
   181   91  213 1    
   182   91  214 1    
   183   92   93 2    
   184   92   94 am   BACKBONE|DICT|INTERRES
   185   94   95 1    
   186   94  215 1    
   187   95   96 1    
   188   95   97 1    
   189   95  216 1    
   190   96  217 1    
   191   96  218 1    
   192   96  219 1    
   193   97   98 2    
   194   97   99 am   BACKBONE|DICT|INTERRES
   195   99  100 1    
   196   99  220 1    
   197  100  101 1    
   198  100  102 1    
   199  100  221 1    
   200  101  222 1    
   201  101  223 1    
   202  101  224 1    
   203  102  103 2    
   204  102  104 am   BACKBONE|DICT|INTERRES
   205  104  105 1    
   206  104  225 1    
   207  105  106 1    
   208  105  107 1    
   209  105  226 1    
   210  106  227 1    
   211  106  228 1    
   212  106  229 1    
   213  107  108 2    
   214  107  109 am   BACKBONE|DICT|INTERRES
   215  109  110 1    
   216  109  230 1    
   217  110  111 1    
   218  110  112 1    
   219  110  231 1    
   220  111  232 1    
   221  111  233 1    
   222  111  234 1    
   223  112  113 2    
   224  112  114 am   BACKBONE|DICT|INTERRES
   225  114  115 1    
   226  114  235 1    
   227  115  116 1    
   228  115  117 1    
   229  115  236 1    
   230  116  237 1    
   231  116  238 1    
   232  116  239 1    
   233  117  118 2    
   234  117  119 am   BACKBONE|DICT|INTERRES
   235  119  120 1    
   236  119  240 1    
   237  120  121 1    
   238  120  124 1    
   239  120  241 1    
   240  121  122 am   BACKBONE|DICT|INTERRES
   241  121  123 2    
   242  122  242 1    
   243  122  243 1    
   244  124  125 1    
   245  124  244 1    
   246  124  245 1    
   247  125  126 1    
   248  126  246 1    
   249  126  247 1    
@<TRIPOS>SUBSTRUCTURE
     1 UNK         1 GROUP             0       ****    0 ROOT    
