@<TRIPOS>MOLECULE
3R540
247   249    1
SMALL
USER_CHARGES


@<TRIPOS>ATOM
      1 CA          1.0281  -12.1790  -47.3043 C.3       0 UNK        -0.1800 
      2 C           2.5140  -12.5080  -47.2949 C.2       0 UNK         0.5000 
      3 O           3.0297  -12.9603  -46.2721 O.2       0 UNK        -0.5000 
      4 N           3.1990  -12.2820  -48.4256 N.am      1 UNK        -0.5000 
      5 CA          4.6392  -12.4958  -48.6404 C.3       1 UNK         0.1400 
      6 C6          5.0449  -14.0019  -48.6632 C.3       23 UNK        -0.0398 
      7 S7          4.0757  -15.0344  -49.8150 S.3       23 UNK        -0.2404 
      8 C8          3.1837  -16.0682  -48.6139 C.3       23 UNK        -0.0205 
      9 C9          2.3234  -17.1261  -49.2842 C.ar      23 UNK        -0.0193 
     10 C10         1.0811  -16.7852  -49.8242 C.ar      23 UNK        -0.1150 
     11 C11         0.2670  -17.7627  -50.4031 C.ar      23 UNK        -0.0193 
     12 C12         0.6937  -19.0936  -50.4184 C.ar      23 UNK        -0.1150 
     13 C13         1.9347  -19.4501  -49.8807 C.ar      23 UNK        -0.0193 
     14 C14         2.7528  -18.4550  -49.3327 C.ar      23 UNK        -0.1150 
     15 C15         2.3731  -20.9127  -49.9035 C.3       23 UNK        -0.0205 
     16 S16         3.1617  -21.5012  -48.3601 S.3       23 UNK        -0.2404 
     17 C17         1.9977  -20.9570  -47.0611 C.3       23 UNK        -0.0398 
     18 CA          0.9639  -22.0260  -46.6412 C.3       11 UNK         0.1400 
     19 N           0.3338  -21.6822  -45.3655 N.am      11 UNK        -0.5000 
     20 C          -0.5091  -22.4652  -44.6787 C.2       10 UNK         0.5000 
     21 O          -0.8014  -23.6140  -45.0108 O.2       10 UNK        -0.5000 
     22 CA         -1.1759  -21.8355  -43.4408 C.3       10 UNK         0.1400 
     23 CB         -0.2316  -21.8671  -42.2300 C.3       10 UNK        -0.1800 
     24 N          -1.6180  -20.4606  -43.6876 N.am      10 UNK        -0.5000 
     25 C          -2.5837  -20.1252  -44.5560 C.2       9 UNK         0.5000 
     26 O          -3.2399  -20.9454  -45.1969 O.2       9 UNK        -0.5000 
     27 CA         -2.8216  -18.6218  -44.7870 C.3       9 UNK         0.1400 
     28 CB         -3.7233  -18.0343  -43.6918 C.3       9 UNK        -0.1800 
     29 N          -1.5753  -17.8597  -44.8559 N.am      9 UNK        -0.5000 
     30 C          -0.6334  -18.0246  -45.7960 C.2       8 UNK         0.5000 
     31 O          -0.7369  -18.8074  -46.7372 O.2       8 UNK        -0.5000 
     32 CA          0.6648  -17.2192  -45.6210 C.3       8 UNK         0.1400 
     33 CB          0.4620  -15.7804  -46.1156 C.3       8 UNK        -0.1800 
     34 N           1.1181  -17.2238  -44.2267 N.am      8 UNK        -0.5000 
     35 C           1.5274  -18.3236  -43.5742 C.2       7 UNK         0.5000 
     36 O           1.6478  -19.4223  -44.1138 O.2       7 UNK        -0.5000 
     37 CA          1.7818  -18.2069  -42.0599 C.3       7 UNK         0.1400 
     38 CB          3.2783  -18.1626  -41.7169 C.3       7 UNK        -0.1800 
     39 N           1.0892  -17.0618  -41.4673 N.am      7 UNK        -0.5000 
     40 C          -0.2104  -17.0920  -41.1390 C.2       6 UNK         0.5000 
     41 O          -0.9251  -18.0857  -41.2796 O.2       6 UNK        -0.5000 
     42 CA         -0.8231  -15.7853  -40.6077 C.3       6 UNK         0.1400 
     43 CB         -0.3450  -15.4966  -39.1765 C.3       6 UNK        -0.1800 
     44 N          -0.5335  -14.6300  -41.4561 N.am      6 UNK        -0.5000 
     45 C          -0.9087  -14.4793  -42.7315 C.2       5 UNK         0.5000 
     46 O          -1.5251  -15.3412  -43.3567 O.2       5 UNK        -0.5000 
     47 CA         -0.5167  -13.1674  -43.4469 C.3       5 UNK         0.1400 
     48 CB         -1.5922  -12.0839  -43.2460 C.3       5 UNK        -0.1800 
     49 N           0.8262  -12.6658  -43.1213 N.am      5 UNK        -0.5000 
     50 C           1.2892  -12.1941  -41.9541 C.2       4 UNK         0.5000 
     51 O           0.5964  -12.0784  -40.9416 O.2       4 UNK        -0.5000 
     52 CA          2.7869  -11.8264  -41.9055 C.3       4 UNK         0.1400 
     53 CB          3.3584  -11.8771  -40.4732 C.3       4 UNK        -0.1800 
     54 N           3.6304  -12.6187  -42.8097 N.am      4 UNK        -0.5000 
     55 C           3.7892  -13.9523  -42.8341 C.2       3 UNK         0.5000 
     56 O           3.1228  -14.7317  -42.1498 O.2       3 UNK        -0.5000 
     57 CA          4.8735  -14.5045  -43.7850 C.3       3 UNK         0.1400 
     58 CB          4.3434  -15.6519  -44.6636 C.3       3 UNK        -0.1800 
     59 N           5.4096  -13.4706  -44.6725 N.am      3 UNK        -0.5000 
     60 C           6.5655  -12.8072  -44.5137 C.2       2 UNK         0.5000 
     61 O           7.3021  -12.9549  -43.5380 O.2       2 UNK        -0.5000 
     62 CA          6.9704  -11.8407  -45.6507 C.3       2 UNK         0.1400 
     63 CB          8.4970  -11.7386  -45.8175 C.3       2 UNK        -0.1800 
     64 N           6.3832  -12.3042  -46.9075 N.am      2 UNK        -0.5000 
     65 C           5.4571  -11.6562  -47.6238 C.2       1 UNK         0.5000 
     66 O           5.1910  -10.4617  -47.4710 O.2       1 UNK        -0.5000 
     67 C          -0.0892  -22.2707  -47.7404 C.2       11 UNK         0.5000 
     68 O          -0.0300  -23.2995  -48.4103 O.2       11 UNK        -0.5000 
     69 N          -1.0587  -21.3546  -47.8761 N.am      12 UNK        -0.5000 
     70 CA         -2.1797  -21.4522  -48.8114 C.3       12 UNK         0.1400 
     71 CB         -3.0232  -20.1713  -48.7397 C.3       12 UNK        -0.1800 
     72 C          -3.0548  -22.6939  -48.5673 C.2       12 UNK         0.5000 
     73 O          -3.4086  -23.3807  -49.5274 O.2       12 UNK        -0.5000 
     74 N          -3.3488  -22.9811  -47.2907 N.am      13 UNK        -0.5000 
     75 CA         -4.0828  -24.1653  -46.8427 C.3       13 UNK         0.1400 
     76 CB         -4.3828  -24.0556  -45.3407 C.3       13 UNK        -0.1800 
     77 C          -3.3602  -25.4860  -47.1631 C.2       13 UNK         0.5000 
     78 O          -4.0135  -26.4542  -47.5508 O.2       13 UNK        -0.5000 
     79 N          -2.0291  -25.5002  -47.0201 N.am      14 UNK        -0.5000 
     80 CA         -1.1823  -26.6298  -47.3997 C.3       14 UNK         0.1400 
     81 CB          0.2079  -26.4615  -46.7672 C.3       14 UNK        -0.1800 
     82 C          -1.0755  -26.7944  -48.9281 C.2       14 UNK         0.5000 
     83 O          -1.0958  -27.9236  -49.4197 O.2       14 UNK        -0.5000 
     84 N          -0.9522  -25.6697  -49.6449 N.am      15 UNK        -0.5000 
     85 CA         -0.7567  -25.6152  -51.0906 C.3       15 UNK         0.1400 
     86 CB         -0.2816  -24.2093  -51.4935 C.3       15 UNK        -0.1800 
     87 C          -1.9994  -26.0138  -51.9033 C.2       15 UNK         0.5000 
     88 O          -1.8647  -26.7941  -52.8477 O.2       15 UNK        -0.5000 
     89 N          -3.1693  -25.4547  -51.5617 N.am      16 UNK        -0.5000 
     90 CA         -4.3763  -25.5773  -52.3865 C.3       16 UNK         0.1400 
     91 CB         -4.2993  -24.5695  -53.5463 C.3       16 UNK        -0.1800 
     92 C          -5.6973  -25.4074  -51.6189 C.2       16 UNK         0.5000 
     93 O          -6.7049  -25.9706  -52.0512 O.2       16 UNK        -0.5000 
     94 N          -5.6945  -24.6394  -50.5194 N.am      17 UNK        -0.5000 
     95 CA         -6.8511  -24.3111  -49.6795 C.3       17 UNK         0.1400 
     96 CB         -7.2941  -25.5453  -48.8592 C.3       17 UNK        -0.1800 
     97 C          -7.9934  -23.6616  -50.4883 C.2       17 UNK         0.5000 
     98 O          -7.8473  -22.5217  -50.9310 O.2       17 UNK        -0.5000 
     99 N          -9.0992  -24.3958  -50.6690 N.am      18 UNK        -0.5000 
    100 CA       -10.2912  -23.9741  -51.4028 C.3       18 UNK         0.1400 
    101 CB       -11.4213  -24.9790  -51.1322 C.3       18 UNK        -0.1800 
    102 C        -10.0697  -23.8102  -52.9184 C.2       18 UNK         0.5000 
    103 O        -10.8231  -23.0701  -53.5532 O.2       18 UNK        -0.5000 
    104 N         -9.0444  -24.4675  -53.4815 N.am      19 UNK        -0.5000 
    105 CA        -8.6748  -24.3916  -54.8984 C.3       19 UNK         0.1400 
    106 CB        -7.9371  -25.6809  -55.3009 C.3       19 UNK        -0.1800 
    107 C         -7.8852  -23.1042  -55.2272 C.2       19 UNK         0.5000 
    108 O         -6.7805  -23.1682  -55.7692 O.2       19 UNK        -0.5000 
    109 N         -8.4786  -21.9550  -54.8798 N.am      20 UNK        -0.5000 
    110 CA        -8.0504  -20.5663  -55.0828 C.3       20 UNK         0.1400 
    111 CB        -7.9232  -20.2364  -56.5820 C.3       20 UNK        -0.1800 
    112 C         -6.7827  -20.1358  -54.3196 C.2       20 UNK         0.5000 
    113 O         -6.7847  -19.0521  -53.7328 O.2       20 UNK        -0.5000 
    114 N         -5.7221  -20.9538  -54.3616 N.am      21 UNK        -0.5000 
    115 CA        -4.3702  -20.6705  -53.8673 C.3       21 UNK         0.1400 
    116 CB        -4.3417  -20.6549  -52.3209 C.3       21 UNK        -0.1800 
    117 C         -3.8026  -19.3963  -54.5312 C.2       21 UNK         0.5000 
    118 O         -3.5921  -19.4026  -55.7456 O.2       21 UNK        -0.5000 
    119 N         -3.5982  -18.3296  -53.7490 N.am      22 UNK        -0.5000 
    120 CA        -3.2221  -16.9936  -54.2423 C.3       22 UNK         0.1400 
    121 C         -4.4067  -16.1703  -54.8339 C.2       22 UNK         0.5000 
    122 N         -5.6568  -16.6056  -54.7324 N.am      22 UNK        -0.7600 
    123 O         -4.1846  -15.1094  -55.4112 O.2       22 UNK        -0.5000 
    124 C124       -2.4671  -16.1744  -53.1645 C.3       23 UNK        -0.0398 
    125 S125       -0.8377  -16.8871  -52.7595 S.3       23 UNK        -0.2404 
    126 C126       -1.0646  -17.3732  -51.0231 C.3       23 UNK        -0.0205 
    127 H127        0.4395  -13.0937  -47.2470 H         1 UNK         0.0600 
    128 H128        0.7386  -11.6438  -48.2088 H         1 UNK         0.0600 
    129 H129        0.7765  -11.5559  -46.4461 H         1 UNK         0.0600 
    130 H130        2.7092  -11.8904  -49.2172 H         1 UNK         0.3000 
    131 H131        4.8644  -12.0797  -49.6233 H         1 UNK         0.0600 
    132 H132        6.0899  -14.1016  -48.9617 H         1 UNK         0.0800 
    133 H133        4.9703  -14.4345  -47.6644 H         1 UNK         0.0800 
    134 H134        3.8986  -16.5429  -47.9398 H         1 UNK         0.0800 
    135 H135        2.5598  -15.4262  -47.9942 H         1 UNK         0.0800 
    136 H136        0.7521  -15.7557  -49.8012 H         1 UNK         0.1150 
    137 H137        0.0598  -19.8505  -50.8584 H         1 UNK         0.1150 
    138 H138        3.7156  -18.7203  -48.9193 H         1 UNK         0.1150 
    139 H139        1.5231  -21.5603  -50.1229 H         1 UNK         0.0800 
    140 H140        3.0766  -21.0490  -50.7255 H         1 UNK         0.0800 
    141 H141        1.5072  -20.0257  -47.3396 H         1 UNK         0.0800 
    142 H142        2.6187  -20.7051  -46.2011 H         1 UNK         0.0800 
    143 H143        1.4959  -22.9665  -46.4827 H         1 UNK         0.0600 
    144 H144        0.5634  -20.7682  -44.9866 H         1 UNK         0.3000 
    145 H145       -2.0582  -22.4312  -43.1975 H         1 UNK         0.0600 
    146 H146       -0.7020  -21.4292  -41.3493 H         1 UNK         0.0600 
    147 H147        0.0403  -22.8929  -41.9783 H         1 UNK         0.0600 
    148 H148        0.6931  -21.3237  -42.4221 H         1 UNK         0.0600 
    149 H149       -1.1401  -19.7237  -43.1876 H         1 UNK         0.3000 
    150 H150       -3.3335  -18.5095  -45.7447 H         1 UNK         0.0600 
    151 H151       -4.6717  -18.5702  -43.6372 H         1 UNK         0.0600 
    152 H152       -3.9516  -16.9869  -43.8903 H         1 UNK         0.0600 
    153 H153       -3.2551  -18.0922  -42.7088 H         1 UNK         0.0600 
    154 H154       -1.4411  -17.1431  -44.1488 H         1 UNK         0.3000 
    155 H155        1.4444  -17.6835  -46.2289 H         1 UNK         0.0600 
    156 H156        1.3079  -15.1412  -45.8701 H         1 UNK         0.0600 
    157 H157       -0.4346  -15.3293  -45.6968 H         1 UNK         0.0600 
    158 H158        0.3362  -15.7640  -47.1978 H         1 UNK         0.0600 
    159 H159        1.0202  -16.3666  -43.7044 H         1 UNK         0.3000 
    160 H160        1.3903  -19.1223  -41.6116 H         1 UNK         0.0600 
    161 H161        3.7394  -17.2156  -41.9850 H         1 UNK         0.0600 
    162 H162        3.8240  -18.9543  -42.2320 H         1 UNK         0.0600 
    163 H163        3.4329  -18.3073  -40.6477 H         1 UNK         0.0600 
    164 H164        1.6187  -16.2027  -41.3689 H         1 UNK         0.3000 
    165 H165       -1.9071  -15.9148  -40.5848 H         1 UNK         0.0600 
    166 H166       -0.8553  -14.6282  -38.7596 H         1 UNK         0.0600 
    167 H167       -0.5497  -16.3413  -38.5174 H         1 UNK         0.0600 
    168 H168        0.7278  -15.3021  -39.1405 H         1 UNK         0.0600 
    169 H169       -0.0489  -13.8482  -41.0243 H         1 UNK         0.3000 
    170 H170       -0.4878  -13.3868  -44.5138 H         1 UNK         0.0600 
    171 H171       -2.5607  -12.4287  -43.6103 H         1 UNK         0.0600 
    172 H172       -1.7179  -11.8191  -42.1960 H         1 UNK         0.0600 
    173 H173       -1.3437  -11.1755  -43.7947 H         1 UNK         0.0600 
    174 H174        1.5033  -12.7480  -43.8680 H         1 UNK         0.3000 
    175 H175        2.8528  -10.7940  -42.2513 H         1 UNK         0.0600 
    176 H176        3.2710  -12.8740  -40.0397 H         1 UNK         0.0600 
    177 H177        4.4117  -11.5968  -40.4589 H         1 UNK         0.0600 
    178 H178        2.8326  -11.1855  -39.8139 H         1 UNK         0.0600 
    179 H179        4.2018  -12.0848  -43.4482 H         1 UNK         0.3000 
    180 H180        5.6711  -14.9046  -43.1562 H         1 UNK         0.0600 
    181 H181        5.1254  -16.0381  -45.3172 H         1 UNK         0.0600 
    182 H182        3.5160  -15.3315  -45.2932 H         1 UNK         0.0600 
    183 H183        3.9901  -16.4882  -44.0656 H         1 UNK         0.0600 
    184 H184        4.8044  -13.2299  -45.4523 H         1 UNK         0.3000 
    185 H185        6.5848  -10.8553  -45.3820 H         1 UNK         0.0600 
    186 H186        8.7580  -11.0674  -46.6359 H         1 UNK         0.0600 
    187 H187        8.9663  -11.3447  -44.9152 H         1 UNK         0.0600 
    188 H188        8.9449  -12.7109  -46.0258 H         1 UNK         0.0600 
    189 H189        6.5546  -13.2779  -47.1138 H         1 UNK         0.3000 
    190 H190       -1.0093  -20.5025  -47.3202 H         1 UNK         0.3000 
    191 H191       -1.7633  -21.5297  -49.8173 H         1 UNK         0.0600 
    192 H192       -2.4206  -19.2899  -48.9561 H         1 UNK         0.0600 
    193 H193       -3.4641  -20.0344  -47.7526 H         1 UNK         0.0600 
    194 H194       -3.8406  -20.1973  -49.4604 H         1 UNK         0.0600 
    195 H195       -3.0603  -22.3292  -46.5664 H         1 UNK         0.3000 
    196 H196       -5.0361  -24.1780  -47.3679 H         1 UNK         0.0600 
    197 H197       -3.4690  -24.0014  -44.7492 H         1 UNK         0.0600 
    198 H198       -4.9760  -23.1677  -45.1216 H         1 UNK         0.0600 
    199 H199       -4.9498  -24.9193  -44.9914 H         1 UNK         0.0600 
    200 H200       -1.5645  -24.6802  -46.6449 H         1 UNK         0.3000 
    201 H201       -1.6261  -27.5423  -46.9959 H         1 UNK         0.0600 
    202 H202        0.7061  -25.5573  -47.1178 H         1 UNK         0.0600 
    203 H203        0.8523  -27.3070  -47.0105 H         1 UNK         0.0600 
    204 H204        0.1411  -26.4041  -45.6806 H         1 UNK         0.0600 
    205 H205       -0.8705  -24.7863  -49.1472 H         1 UNK         0.3000 
    206 H206        0.0401  -26.3178  -51.3437 H         1 UNK         0.0600 
    207 H207        0.6651  -23.9612  -51.0135 H         1 UNK         0.0600 
    208 H208       -0.1261  -24.1414  -52.5709 H         1 UNK         0.0600 
    209 H209       -1.0076  -23.4442  -51.2174 H         1 UNK         0.0600 
    210 H210       -3.2026  -24.8253  -50.7649 H         1 UNK         0.3000 
    211 H211       -4.4125  -26.5834  -52.8100 H         1 UNK         0.0600 
    212 H212       -5.1998  -24.5933  -54.1565 H         1 UNK         0.0600 
    213 H213       -3.4588  -24.7816  -54.2071 H         1 UNK         0.0600 
    214 H214       -4.1836  -23.5542  -53.1726 H         1 UNK         0.0600 
    215 H215       -4.8322  -24.1719  -50.2501 H         1 UNK         0.3000 
    216 H216       -6.5180  -23.5453  -48.9788 H         1 UNK         0.0600 
    217 H217       -8.1272  -25.3011  -48.1987 H         1 UNK         0.0600 
    218 H218       -7.6020  -26.3776  -49.4928 H         1 UNK         0.0600 
    219 H219       -6.4861  -25.9071  -48.2266 H         1 UNK         0.0600 
    220 H220       -9.1112  -25.3335  -50.2948 H         1 UNK         0.3000 
    221 H221      -10.5982  -23.0015  -51.0126 H         1 UNK         0.0600 
    222 H222      -11.6464  -25.0435  -50.0675 H         1 UNK         0.0600 
    223 H223      -11.1627  -25.9789  -51.4832 H         1 UNK         0.0600 
    224 H224      -12.3401  -24.6807  -51.6391 H         1 UNK         0.0600 
    225 H225       -8.4341  -25.0184  -52.8874 H         1 UNK         0.3000 
    226 H226       -9.5890  -24.3528  -55.4945 H         1 UNK         0.0600 
    227 H227       -7.0230  -25.8252  -54.7279 H         1 UNK         0.0600 
    228 H228       -8.5669  -26.5566  -55.1436 H         1 UNK         0.0600 
    229 H229       -7.6652  -25.6649  -56.3570 H         1 UNK         0.0600 
    230 H230       -9.3732  -22.0547  -54.4092 H         1 UNK         0.3000 
    231 H231       -8.8651  -19.9571  -54.6880 H         1 UNK         0.0600 
    232 H232       -7.1267  -20.8076  -57.0597 H         1 UNK         0.0600 
    233 H233       -7.6969  -19.1795  -56.7293 H         1 UNK         0.0600 
    234 H234       -8.8519  -20.4467  -57.1123 H         1 UNK         0.0600 
    235 H235       -5.8339  -21.8095  -54.9000 H         1 UNK         0.3000 
    236 H236       -3.7364  -21.4914  -54.2039 H         1 UNK         0.0600 
    237 H237       -3.3246  -20.5199  -51.9507 H         1 UNK         0.0600 
    238 H238       -4.9599  -19.8612  -51.9007 H         1 UNK         0.0600 
    239 H239       -4.7080  -21.5967  -51.9119 H         1 UNK         0.0600 
    240 H240       -3.8304  -18.3969  -52.7699 H         1 UNK         0.3000 
    241 H241       -2.5325  -17.1314  -55.0775 H         1 UNK         0.0600 
    242 H242       -6.3996  -16.0510  -55.1266 H         1 UNK         0.3800 
    243 H243       -5.8846  -17.4837  -54.2735 H         1 UNK         0.3800 
    244 H244       -3.0750  -16.0748  -52.2641 H         1 UNK         0.0800 
    245 H245       -2.2802  -15.1571  -53.5132 H         1 UNK         0.0800 
    246 H246       -1.5058  -16.5495  -50.4597 H         1 UNK         0.0800 
    247 H247       -1.7697  -18.2035  -50.9718 H         1 UNK         0.0800 
@<TRIPOS>BOND
     1    1    2 1    
     2    1  127 1    
     3    1  128 1    
     4    1  129 1    
     5    2    3 2    
     6    2    4 am   BACKBONE|DICT|INTERRES
     7    4    5 1    
     8    4  130 1    
     9    5    6 1    
    10    5   65 1    
    11    5  131 1    
    12    6    7 1    
    13    6  132 1    
    14    6  133 1    
    15    7    8 1    
    16    8    9 1    
    17    8  134 1    
    18    8  135 1    
    19    9   10 ar   
    20    9   14 ar   
    21   10   11 ar   
    22   10  136 1    
    23   11   12 ar   
    24   11  126 1    
    25   12   13 ar   
    26   12  137 1    
    27   13   14 ar   
    28   13   15 1    
    29   14  138 1    
    30   15   16 1    
    31   15  139 1    
    32   15  140 1    
    33   16   17 1    
    34   17   18 1    
    35   17  141 1    
    36   17  142 1    
    37   18   19 1    
    38   18   67 1    
    39   18  143 1    
    40   19   20 am   BACKBONE|DICT|INTERRES
    41   19  144 1    
    42   20   21 2    
    43   20   22 1    
    44   22   23 1    
    45   22   24 1    
    46   22  145 1    
    47   23  146 1    
    48   23  147 1    
    49   23  148 1    
    50   24   25 am   BACKBONE|DICT|INTERRES
    51   24  149 1    
    52   25   26 2    
    53   25   27 1    
    54   27   28 1    
    55   27   29 1    
    56   27  150 1    
    57   28  151 1    
    58   28  152 1    
    59   28  153 1    
    60   29   30 am   BACKBONE|DICT|INTERRES
    61   29  154 1    
    62   30   31 2    
    63   30   32 1    
    64   32   33 1    
    65   32   34 1    
    66   32  155 1    
    67   33  156 1    
    68   33  157 1    
    69   33  158 1    
    70   34   35 am   BACKBONE|DICT|INTERRES
    71   34  159 1    
    72   35   36 2    
    73   35   37 1    
    74   37   38 1    
    75   37   39 1    
    76   37  160 1    
    77   38  161 1    
    78   38  162 1    
    79   38  163 1    
    80   39   40 am   BACKBONE|DICT|INTERRES
    81   39  164 1    
    82   40   41 2    
    83   40   42 1    
    84   42   43 1    
    85   42   44 1    
    86   42  165 1    
    87   43  166 1    
    88   43  167 1    
    89   43  168 1    
    90   44   45 am   BACKBONE|DICT|INTERRES
    91   44  169 1    
    92   45   46 2    
    93   45   47 1    
    94   47   48 1    
    95   47   49 1    
    96   47  170 1    
    97   48  171 1    
    98   48  172 1    
    99   48  173 1    
   100   49   50 am   BACKBONE|DICT|INTERRES
   101   49  174 1    
   102   50   51 2    
   103   50   52 1    
   104   52   53 1    
   105   52   54 1    
   106   52  175 1    
   107   53  176 1    
   108   53  177 1    
   109   53  178 1    
   110   54   55 am   BACKBONE|DICT|INTERRES
   111   54  179 1    
   112   55   56 2    
   113   55   57 1    
   114   57   58 1    
   115   57   59 1    
   116   57  180 1    
   117   58  181 1    
   118   58  182 1    
   119   58  183 1    
   120   59   60 am   BACKBONE|DICT|INTERRES
   121   59  184 1    
   122   60   61 2    
   123   60   62 1    
   124   62   63 1    
   125   62   64 1    
   126   62  185 1    
   127   63  186 1    
   128   63  187 1    
   129   63  188 1    
   130   64   65 am   BACKBONE|DICT|INTERRES
   131   64  189 1    
   132   65   66 2    
   133   67   68 2    
   134   67   69 am   BACKBONE|DICT|INTERRES
   135   69   70 1    
   136   69  190 1    
   137   70   71 1    
   138   70   72 1    
   139   70  191 1    
   140   71  192 1    
   141   71  193 1    
   142   71  194 1    
   143   72   73 2    
   144   72   74 am   BACKBONE|DICT|INTERRES
   145   74   75 1    
   146   74  195 1    
   147   75   76 1    
   148   75   77 1    
   149   75  196 1    
   150   76  197 1    
   151   76  198 1    
   152   76  199 1    
   153   77   78 2    
   154   77   79 am   BACKBONE|DICT|INTERRES
   155   79   80 1    
   156   79  200 1    
   157   80   81 1    
   158   80   82 1    
   159   80  201 1    
   160   81  202 1    
   161   81  203 1    
   162   81  204 1    
   163   82   83 2    
   164   82   84 am   BACKBONE|DICT|INTERRES
   165   84   85 1    
   166   84  205 1    
   167   85   86 1    
   168   85   87 1    
   169   85  206 1    
   170   86  207 1    
   171   86  208 1    
   172   86  209 1    
   173   87   88 2    
   174   87   89 am   BACKBONE|DICT|INTERRES
   175   89   90 1    
   176   89  210 1    
   177   90   91 1    
   178   90   92 1    
   179   90  211 1    
   180   91  212 1    
   181   91  213 1    
   182   91  214 1    
   183   92   93 2    
   184   92   94 am   BACKBONE|DICT|INTERRES
   185   94   95 1    
   186   94  215 1    
   187   95   96 1    
   188   95   97 1    
   189   95  216 1    
   190   96  217 1    
   191   96  218 1    
   192   96  219 1    
   193   97   98 2    
   194   97   99 am   BACKBONE|DICT|INTERRES
   195   99  100 1    
   196   99  220 1    
   197  100  101 1    
   198  100  102 1    
   199  100  221 1    
   200  101  222 1    
   201  101  223 1    
   202  101  224 1    
   203  102  103 2    
   204  102  104 am   BACKBONE|DICT|INTERRES
   205  104  105 1    
   206  104  225 1    
   207  105  106 1    
   208  105  107 1    
   209  105  226 1    
   210  106  227 1    
   211  106  228 1    
   212  106  229 1    
   213  107  108 2    
   214  107  109 am   BACKBONE|DICT|INTERRES
   215  109  110 1    
   216  109  230 1    
   217  110  111 1    
   218  110  112 1    
   219  110  231 1    
   220  111  232 1    
   221  111  233 1    
   222  111  234 1    
   223  112  113 2    
   224  112  114 am   BACKBONE|DICT|INTERRES
   225  114  115 1    
   226  114  235 1    
   227  115  116 1    
   228  115  117 1    
   229  115  236 1    
   230  116  237 1    
   231  116  238 1    
   232  116  239 1    
   233  117  118 2    
   234  117  119 am   BACKBONE|DICT|INTERRES
   235  119  120 1    
   236  119  240 1    
   237  120  121 1    
   238  120  124 1    
   239  120  241 1    
   240  121  122 am   BACKBONE|DICT|INTERRES
   241  121  123 2    
   242  122  242 1    
   243  122  243 1    
   244  124  125 1    
   245  124  244 1    
   246  124  245 1    
   247  125  126 1    
   248  126  246 1    
   249  126  247 1    
@<TRIPOS>SUBSTRUCTURE
     1 UNK         1 GROUP             0       ****    0 ROOT    
