@<TRIPOS>MOLECULE
3R540
247   249    1
SMALL
USER_CHARGES


@<TRIPOS>ATOM
      1 CA          2.6957   -9.8604  -46.8293 C.3       0 UNK        -0.1800 
      2 C           2.0845  -11.1983  -46.4391 C.2       0 UNK         0.5000 
      3 O           2.5624  -11.8437  -45.5061 O.2       0 UNK        -0.5000 
      4 N           1.0174  -11.6131  -47.1337 N.am      1 UNK        -0.5000 
      5 CA          0.2864  -12.8706  -46.9244 C.3       1 UNK         0.1400 
      6 C6         -0.3787  -13.3499  -48.2441 C.3       23 UNK        -0.0398 
      7 S7         -0.4502  -15.1692  -48.3839 S.3       23 UNK        -0.2404 
      8 C8          0.7578  -15.4686  -49.7137 C.3       23 UNK        -0.0205 
      9 C9          0.7408  -16.9133  -50.1935 C.ar      23 UNK        -0.0193 
     10 C10        -0.2691  -17.3512  -51.0551 C.ar      23 UNK        -0.1150 
     11 C11        -0.2770  -18.6647  -51.5313 C.ar      23 UNK        -0.0193 
     12 C12         0.7399  -19.5424  -51.1474 C.ar      23 UNK        -0.1150 
     13 C13         1.7650  -19.1154  -50.3000 C.ar      23 UNK        -0.0193 
     14 C14         1.7533  -17.8016  -49.8174 C.ar      23 UNK        -0.1150 
     15 C15         2.9052  -20.0614  -49.9410 C.3       23 UNK        -0.0205 
     16 S16         2.3535  -21.5395  -49.0269 S.3       23 UNK        -0.2404 
     17 C17         1.7286  -20.7853  -47.4896 C.3       23 UNK        -0.0398 
     18 CA          0.3594  -21.3280  -47.0184 C.3       11 UNK         0.1400 
     19 N           0.0025  -20.7836  -45.7086 N.am      11 UNK        -0.5000 
     20 C          -0.9049  -21.3144  -44.8787 C.2       10 UNK         0.5000 
     21 O          -1.5005  -22.3663  -45.1076 O.2       10 UNK        -0.5000 
     22 CA         -1.2455  -20.5124  -43.6056 C.3       10 UNK         0.1400 
     23 CB         -0.3608  -20.9459  -42.4324 C.3       10 UNK        -0.1800 
     24 N          -1.1233  -19.0654  -43.7945 N.am      10 UNK        -0.5000 
     25 C          -1.9271  -18.3530  -44.5944 C.2       9 UNK         0.5000 
     26 O          -2.8862  -18.8401  -45.1917 O.2       9 UNK        -0.5000 
     27 CA         -1.5918  -16.8633  -44.7979 C.3       9 UNK         0.1400 
     28 CB         -2.4358  -16.0169  -43.8374 C.3       9 UNK        -0.1800 
     29 N          -0.1635  -16.5178  -44.6807 N.am      9 UNK        -0.5000 
     30 C           0.7964  -17.0496  -45.4565 C.2       8 UNK         0.5000 
     31 O           0.5678  -17.9565  -46.2568 O.2       8 UNK        -0.5000 
     32 CA          2.2378  -16.5103  -45.3584 C.3       8 UNK         0.1400 
     33 CB          2.4464  -15.3601  -44.3619 C.3       8 UNK        -0.1800 
     34 N           3.1467  -17.5970  -45.0035 N.am      8 UNK        -0.5000 
     35 C           3.9366  -18.2538  -45.8643 C.2       7 UNK         0.5000 
     36 O           3.9811  -18.0089  -47.0692 O.2       7 UNK        -0.5000 
     37 CA          4.8654  -19.3493  -45.2992 C.3       7 UNK         0.1400 
     38 CB          6.3397  -18.9685  -45.5128 C.3       7 UNK        -0.1800 
     39 N           4.6615  -19.6077  -43.8740 N.am      7 UNK        -0.5000 
     40 C           3.7208  -20.4090  -43.3580 C.2       6 UNK         0.5000 
     41 O           2.9246  -21.0548  -44.0371 O.2       6 UNK        -0.5000 
     42 CA          3.6481  -20.4750  -41.8184 C.3       6 UNK         0.1400 
     43 CB          4.4837  -21.6519  -41.2935 C.3       6 UNK        -0.1800 
     44 N           4.0926  -19.2398  -41.1654 N.am      6 UNK        -0.5000 
     45 C           3.4818  -18.0526  -41.2729 C.2       5 UNK         0.5000 
     46 O           2.4496  -17.8638  -41.9226 O.2       5 UNK        -0.5000 
     47 CA          4.1930  -16.8735  -40.6004 C.3       5 UNK         0.1400 
     48 CB          5.3462  -16.3717  -41.4916 C.3       5 UNK        -0.1800 
     49 N           3.2470  -15.7881  -40.3575 N.am      5 UNK        -0.5000 
     50 C           3.4354  -14.8023  -39.4705 C.2       4 UNK         0.5000 
     51 O           4.4139  -14.7430  -38.7242 O.2       4 UNK        -0.5000 
     52 CA          2.3833  -13.6821  -39.3989 C.3       4 UNK         0.1400 
     53 CB          2.9142  -12.4166  -40.0928 C.3       4 UNK        -0.1800 
     54 N           1.1172  -14.0463  -40.0309 N.am      4 UNK        -0.5000 
     55 C          -0.0226  -14.3320  -39.3923 C.2       3 UNK         0.5000 
     56 O          -0.1124  -14.4169  -38.1662 O.2       3 UNK        -0.5000 
     57 CA         -1.2755  -14.5136  -40.2824 C.3       3 UNK         0.1400 
     58 CB         -2.5815  -14.5787  -39.4707 C.3       3 UNK        -0.1800 
     59 N          -1.4017  -13.4552  -41.2945 N.am      3 UNK        -0.5000 
     60 C          -0.6928  -13.3920  -42.4274 C.2       2 UNK         0.5000 
     61 O           0.1179  -14.2630  -42.7475 O.2       2 UNK        -0.5000 
     62 CA         -0.8847  -12.1485  -43.3117 C.3       2 UNK         0.1400 
     63 CB         -0.3225  -10.9018  -42.6083 C.3       2 UNK        -0.1800 
     64 N          -0.1773  -12.3066  -44.5814 N.am      2 UNK        -0.5000 
     65 C          -0.6950  -12.7622  -45.7275 C.2       1 UNK         0.5000 
     66 O          -1.8852  -13.0487  -45.8628 O.2       1 UNK        -0.5000 
     67 C          -0.7808  -21.0862  -48.0304 C.2       11 UNK         0.5000 
     68 O          -1.1135  -21.9937  -48.7931 O.2       11 UNK        -0.5000 
     69 N          -1.4176  -19.9060  -47.9709 N.am      12 UNK        -0.5000 
     70 CA         -2.6171  -19.5940  -48.7515 C.3       12 UNK         0.1400 
     71 CB         -2.9710  -18.1074  -48.6209 C.3       12 UNK        -0.1800 
     72 C          -3.8157  -20.4792  -48.3678 C.2       12 UNK         0.5000 
     73 O          -4.5233  -20.9538  -49.2561 O.2       12 UNK        -0.5000 
     74 N          -3.9970  -20.7234  -47.0623 N.am      13 UNK        -0.5000 
     75 CA         -5.0044  -21.6335  -46.5164 C.3       13 UNK         0.1400 
     76 CB         -5.0473  -21.5073  -44.9868 C.3       13 UNK        -0.1800 
     77 C          -4.7752  -23.0950  -46.9434 C.2       13 UNK         0.5000 
     78 O          -5.7307  -23.7617  -47.3408 O.2       13 UNK        -0.5000 
     79 N          -3.5138  -23.5520  -46.9148 N.am      14 UNK        -0.5000 
     80 CA         -3.0931  -24.8690  -47.4068 C.3       14 UNK         0.1400 
     81 CB         -1.6208  -25.1109  -47.0429 C.3       14 UNK        -0.1800 
     82 C          -3.3178  -25.0470  -48.9221 C.2       14 UNK         0.5000 
     83 O          -3.6485  -26.1472  -49.3639 O.2       14 UNK        -0.5000 
     84 N          -3.1926  -23.9490  -49.6786 N.am      15 UNK        -0.5000 
     85 CA         -3.5209  -23.8467  -51.1011 C.3       15 UNK         0.1400 
     86 CB         -2.6970  -22.7041  -51.7151 C.3       15 UNK        -0.1800 
     87 C          -5.0295  -23.6496  -51.3737 C.2       15 UNK         0.5000 
     88 O          -5.3934  -23.3612  -52.5146 O.2       15 UNK        -0.5000 
     89 N          -5.8800  -23.7863  -50.3442 N.am      16 UNK        -0.5000 
     90 CA         -7.3421  -23.6792  -50.3745 C.3       16 UNK         0.1400 
     91 CB         -7.9522  -24.8082  -51.2332 C.3       16 UNK        -0.1800 
     92 C          -7.8251  -22.2746  -50.7858 C.2       16 UNK         0.5000 
     93 O          -8.7229  -22.1484  -51.6177 O.2       16 UNK        -0.5000 
     94 N          -7.1864  -21.2396  -50.2206 N.am      17 UNK        -0.5000 
     95 CA         -7.3501  -19.8181  -50.5498 C.3       17 UNK         0.1400 
     96 CB         -8.7716  -19.3180  -50.2171 C.3       17 UNK        -0.1800 
     97 C          -6.9137  -19.5242  -51.9999 C.2       17 UNK         0.5000 
     98 O          -7.5845  -18.7832  -52.7194 O.2       17 UNK        -0.5000 
     99 N          -5.7982  -20.1567  -52.3930 N.am      18 UNK        -0.5000 
    100 CA        -5.1621  -20.1560  -53.7147 C.3       18 UNK         0.1400 
    101 CB        -4.8121  -18.7245  -54.1704 C.3       18 UNK        -0.1800 
    102 C         -5.9343  -20.9285  -54.8063 C.2       18 UNK         0.5000 
    103 O         -5.4779  -20.9450  -55.9500 O.2       18 UNK        -0.5000 
    104 N         -7.0520  -21.5883  -54.4650 N.am      19 UNK        -0.5000 
    105 CA        -7.8701  -22.3686  -55.3999 C.3       19 UNK         0.1400 
    106 CB        -9.2054  -22.7378  -54.7391 C.3       19 UNK        -0.1800 
    107 C         -7.1662  -23.6329  -55.9303 C.2       19 UNK         0.5000 
    108 O         -7.4505  -24.0528  -57.0526 O.2       19 UNK        -0.5000 
    109 N         -6.2442  -24.1979  -55.1387 N.am      20 UNK        -0.5000 
    110 CA        -5.3920  -25.3263  -55.5240 C.3       20 UNK         0.1400 
    111 CB        -5.1231  -26.1911  -54.2806 C.3       20 UNK        -0.1800 
    112 C         -4.0682  -24.8721  -56.1786 C.2       20 UNK         0.5000 
    113 O         -3.2383  -25.7272  -56.4905 O.2       20 UNK        -0.5000 
    114 N         -3.9034  -23.5525  -56.3681 N.am      21 UNK        -0.5000 
    115 CA        -2.7187  -22.8109  -56.8115 C.3       21 UNK         0.1400 
    116 CB        -2.1426  -23.3535  -58.1340 C.3       21 UNK        -0.1800 
    117 C         -1.6417  -22.7177  -55.7145 C.2       21 UNK         0.5000 
    118 O         -1.4181  -23.6699  -54.9644 O.2       21 UNK        -0.5000 
    119 N         -0.9959  -21.5500  -55.6373 N.am      22 UNK        -0.5000 
    120 CA         0.0876  -21.2541  -54.6899 C.3       22 UNK         0.1400 
    121 C          1.3914  -22.0311  -55.0226 C.2       22 UNK         0.5000 
    122 N          2.0859  -22.5568  -54.0225 N.am      22 UNK        -0.7600 
    123 O          1.8007  -22.1236  -56.1779 O.2       22 UNK        -0.5000 
    124 C124        0.3744  -19.7323  -54.6073 C.3       23 UNK        -0.0398 
    125 S125       -1.0914  -18.7205  -54.1947 S.3       23 UNK        -0.2404 
    126 C126       -1.3916  -19.1395  -52.4483 C.3       23 UNK        -0.0205 
    127 H127        3.7387   -9.9945  -47.1158 H         1 UNK         0.0600 
    128 H128        2.6585   -9.1714  -45.9855 H         1 UNK         0.0600 
    129 H129        2.1688   -9.4023  -47.6667 H         1 UNK         0.0600 
    130 H130        0.6478  -11.0133  -47.8578 H         1 UNK         0.3000 
    131 H131        1.0268  -13.6228  -46.6462 H         1 UNK         0.0600 
    132 H132        0.1830  -12.9737  -49.1001 H         1 UNK         0.0800 
    133 H133       -1.3823  -12.9400  -48.3693 H         1 UNK         0.0800 
    134 H134        1.7531  -15.1939  -49.3608 H         1 UNK         0.0800 
    135 H135        0.5384  -14.8156  -50.5597 H         1 UNK         0.0800 
    136 H136       -1.0515  -16.6677  -51.3538 H         1 UNK         0.1150 
    137 H137        0.7399  -20.5595  -51.5117 H         1 UNK         0.1150 
    138 H138        2.5426  -17.4631  -49.1617 H         1 UNK         0.1150 
    139 H139        3.3967  -20.3818  -50.8604 H         1 UNK         0.0800 
    140 H140        3.6662  -19.5458  -49.3530 H         1 UNK         0.0800 
    141 H141        1.6892  -19.7046  -47.6101 H         1 UNK         0.0800 
    142 H142        2.4741  -20.9704  -46.7168 H         1 UNK         0.0800 
    143 H143        0.4637  -22.4091  -46.9046 H         1 UNK         0.0600 
    144 H144        0.3920  -19.8745  -45.4898 H         1 UNK         0.3000 
    145 H145       -2.2820  -20.7335  -43.3434 H         1 UNK         0.0600 
    146 H146       -0.6545  -20.4488  -41.5078 H         1 UNK         0.0600 
    147 H147        0.6814  -20.7064  -42.6274 H         1 UNK         0.0600 
    148 H148       -0.4286  -22.0214  -42.2637 H         1 UNK         0.0600 
    149 H149       -0.3510  -18.5996  -43.3397 H         1 UNK         0.3000 
    150 H150       -1.8956  -16.6092  -45.8155 H         1 UNK         0.0600 
    151 H151       -3.4901  -16.2915  -43.8934 H         1 UNK         0.0600 
    152 H152       -2.3751  -14.9601  -44.0875 H         1 UNK         0.0600 
    153 H153       -2.1193  -16.1488  -42.8037 H         1 UNK         0.0600 
    154 H154        0.0740  -15.7815  -44.0217 H         1 UNK         0.3000 
    155 H155        2.4824  -16.1223  -46.3494 H         1 UNK         0.0600 
    156 H156        1.8357  -14.4978  -44.6222 H         1 UNK         0.0600 
    157 H157        3.4823  -15.0211  -44.3720 H         1 UNK         0.0600 
    158 H158        2.2099  -15.6549  -43.3407 H         1 UNK         0.0600 
    159 H159        3.1261  -17.8909  -44.0357 H         1 UNK         0.3000 
    160 H160        4.6687  -20.2653  -45.8597 H         1 UNK         0.0600 
    161 H161        6.5977  -18.0481  -44.9874 H         1 UNK         0.0600 
    162 H162        6.5566  -18.8143  -46.5707 H         1 UNK         0.0600 
    163 H163        7.0059  -19.7558  -45.1596 H         1 UNK         0.0600 
    164 H164        5.2744  -19.1209  -43.2372 H         1 UNK         0.3000 
    165 H165        2.6106  -20.6463  -41.5318 H         1 UNK         0.0600 
    166 H166        4.3843  -21.7560  -40.2128 H         1 UNK         0.0600 
    167 H167        4.1569  -22.5920  -41.7401 H         1 UNK         0.0600 
    168 H168        5.5428  -21.5297  -41.5241 H         1 UNK         0.0600 
    169 H169        4.9382  -19.3059  -40.6167 H         1 UNK         0.3000 
    170 H170        4.5925  -17.2206  -39.6449 H         1 UNK         0.0600 
    171 H171        4.9805  -16.0110  -42.4539 H         1 UNK         0.0600 
    172 H172        5.8916  -15.5562  -41.0166 H         1 UNK         0.0600 
    173 H173        6.0683  -17.1645  -41.6901 H         1 UNK         0.0600 
    174 H174        2.3984  -15.8289  -40.9064 H         1 UNK         0.3000 
    175 H175        2.2268  -13.4493  -38.3435 H         1 UNK         0.0600 
    176 H176        3.0979  -12.5868  -41.1547 H         1 UNK         0.0600 
    177 H177        2.2058  -11.5927  -40.0039 H         1 UNK         0.0600 
    178 H178        3.8526  -12.0869  -39.6450 H         1 UNK         0.0600 
    179 H179        1.0849  -14.0210  -41.0449 H         1 UNK         0.3000 
    180 H180       -1.1565  -15.4743  -40.7863 H         1 UNK         0.0600 
    181 H181       -2.7593  -13.6542  -38.9200 H         1 UNK         0.0600 
    182 H182       -2.5548  -15.3944  -38.7470 H         1 UNK         0.0600 
    183 H183       -3.4396  -14.7535  -40.1200 H         1 UNK         0.0600 
    184 H184       -2.0268  -12.6959  -41.0659 H         1 UNK         0.3000 
    185 H185       -1.9528  -12.0092  -43.4900 H         1 UNK         0.0600 
    186 H186        0.7371  -11.0151  -42.3739 H         1 UNK         0.0600 
    187 H187       -0.4321  -10.0156  -43.2338 H         1 UNK         0.0600 
    188 H188       -0.8462  -10.7012  -41.6730 H         1 UNK         0.0600 
    189 H189        0.8221  -12.1309  -44.5632 H         1 UNK         0.3000 
    190 H190       -1.0784  -19.1985  -47.3318 H         1 UNK         0.3000 
    191 H191       -2.3876  -19.7931  -49.7989 H         1 UNK         0.0600 
    192 H192       -2.1376  -17.4800  -48.9297 H         1 UNK         0.0600 
    193 H193       -3.2335  -17.8358  -47.5993 H         1 UNK         0.0600 
    194 H194       -3.8204  -17.8533  -49.2560 H         1 UNK         0.0600 
    195 H195       -3.4200  -20.2236  -46.3912 H         1 UNK         0.3000 
    196 H196       -5.9754  -21.3220  -46.9072 H         1 UNK         0.0600 
    197 H197       -5.2434  -20.4796  -44.6805 H         1 UNK         0.0600 
    198 H198       -4.1094  -21.8201  -44.5293 H         1 UNK         0.0600 
    199 H199       -5.8390  -22.1293  -44.5674 H         1 UNK         0.0600 
    200 H200       -2.7875  -22.9639  -46.5182 H         1 UNK         0.3000 
    201 H201       -3.6964  -25.6213  -46.8946 H         1 UNK         0.0600 
    202 H202       -1.4660  -25.0544  -45.9654 H         1 UNK         0.0600 
    203 H203       -0.9637  -24.3806  -47.5148 H         1 UNK         0.0600 
    204 H204       -1.2964  -26.1007  -47.3664 H         1 UNK         0.0600 
    205 H205       -2.8523  -23.1013  -49.2380 H         1 UNK         0.3000 
    206 H206       -3.2255  -24.7741  -51.5949 H         1 UNK         0.0600 
    207 H207       -1.6301  -22.8499  -51.5453 H         1 UNK         0.0600 
    208 H208       -2.9759  -21.7413  -51.2895 H         1 UNK         0.0600 
    209 H209       -2.8460  -22.6452  -52.7934 H         1 UNK         0.0600 
    210 H210       -5.4896  -23.9704  -49.4279 H         1 UNK         0.3000 
    211 H211       -7.6828  -23.8276  -49.3491 H         1 UNK         0.0600 
    212 H212       -7.6851  -24.7113  -52.2857 H         1 UNK         0.0600 
    213 H213       -9.0409  -24.8017  -51.1713 H         1 UNK         0.0600 
    214 H214       -7.6143  -25.7868  -50.8925 H         1 UNK         0.0600 
    215 H215       -6.3934  -21.4414  -49.6188 H         1 UNK         0.3000 
    216 H216       -6.6562  -19.2735  -49.9080 H         1 UNK         0.0600 
    217 H217       -8.8369  -18.2350  -50.3274 H         1 UNK         0.0600 
    218 H218       -9.0419  -19.5560  -49.1884 H         1 UNK         0.0600 
    219 H219       -9.5247  -19.7559  -50.8725 H         1 UNK         0.0600 
    220 H220       -5.3654  -20.7677  -51.7134 H         1 UNK         0.3000 
    221 H221       -4.2214  -20.6922  -53.5843 H         1 UNK         0.0600 
    222 H222       -5.6997  -18.1603  -54.4570 H         1 UNK         0.0600 
    223 H223       -4.3020  -18.1679  -53.3851 H         1 UNK         0.0600 
    224 H224       -4.1499  -18.7436  -55.0366 H         1 UNK         0.0600 
    225 H225       -7.3570  -21.5692  -53.5009 H         1 UNK         0.3000 
    226 H226       -8.0870  -21.7299  -56.2587 H         1 UNK         0.0600 
    227 H227       -9.7166  -21.8549  -54.3549 H         1 UNK         0.0600 
    228 H228       -9.8744  -23.2161  -55.4555 H         1 UNK         0.0600 
    229 H229       -9.0651  -23.4334  -53.9117 H         1 UNK         0.0600 
    230 H230       -6.0571  -23.7893  -54.2246 H         1 UNK         0.3000 
    231 H231       -5.9183  -25.9468  -56.2520 H         1 UNK         0.0600 
    232 H232       -4.6288  -27.1237  -54.5545 H         1 UNK         0.0600 
    233 H233       -6.0493  -26.4524  -53.7684 H         1 UNK         0.0600 
    234 H234       -4.4762  -25.6797  -53.5687 H         1 UNK         0.0600 
    235 H235       -4.6714  -22.9571  -56.0840 H         1 UNK         0.3000 
    236 H236       -3.0773  -21.7990  -57.0066 H         1 UNK         0.0600 
    237 H237       -1.6679  -24.3265  -58.0064 H         1 UNK         0.0600 
    238 H238       -2.9181  -23.4517  -58.8936 H         1 UNK         0.0600 
    239 H239       -1.3834  -22.6775  -58.5288 H         1 UNK         0.0600 
    240 H240       -1.2171  -20.8156  -56.2933 H         1 UNK         0.3000 
    241 H241       -0.2478  -21.5867  -53.7064 H         1 UNK         0.0600 
    242 H242        2.9406  -23.0494  -54.2311 H         1 UNK         0.3800 
    243 H243        1.7703  -22.5040  -53.0672 H         1 UNK         0.3800 
    244 H244        0.7572  -19.3734  -55.5643 H         1 UNK         0.0800 
    245 H245        1.1619  -19.5241  -53.8822 H         1 UNK         0.0800 
    246 H246       -1.5322  -20.2142  -52.3504 H         1 UNK         0.0800 
    247 H247       -2.3319  -18.6852  -52.1345 H         1 UNK         0.0800 
@<TRIPOS>BOND
     1    1    2 1    
     2    1  127 1    
     3    1  128 1    
     4    1  129 1    
     5    2    3 2    
     6    2    4 am   BACKBONE|DICT|INTERRES
     7    4    5 1    
     8    4  130 1    
     9    5    6 1    
    10    5   65 1    
    11    5  131 1    
    12    6    7 1    
    13    6  132 1    
    14    6  133 1    
    15    7    8 1    
    16    8    9 1    
    17    8  134 1    
    18    8  135 1    
    19    9   10 ar   
    20    9   14 ar   
    21   10   11 ar   
    22   10  136 1    
    23   11   12 ar   
    24   11  126 1    
    25   12   13 ar   
    26   12  137 1    
    27   13   14 ar   
    28   13   15 1    
    29   14  138 1    
    30   15   16 1    
    31   15  139 1    
    32   15  140 1    
    33   16   17 1    
    34   17   18 1    
    35   17  141 1    
    36   17  142 1    
    37   18   19 1    
    38   18   67 1    
    39   18  143 1    
    40   19   20 am   BACKBONE|DICT|INTERRES
    41   19  144 1    
    42   20   21 2    
    43   20   22 1    
    44   22   23 1    
    45   22   24 1    
    46   22  145 1    
    47   23  146 1    
    48   23  147 1    
    49   23  148 1    
    50   24   25 am   BACKBONE|DICT|INTERRES
    51   24  149 1    
    52   25   26 2    
    53   25   27 1    
    54   27   28 1    
    55   27   29 1    
    56   27  150 1    
    57   28  151 1    
    58   28  152 1    
    59   28  153 1    
    60   29   30 am   BACKBONE|DICT|INTERRES
    61   29  154 1    
    62   30   31 2    
    63   30   32 1    
    64   32   33 1    
    65   32   34 1    
    66   32  155 1    
    67   33  156 1    
    68   33  157 1    
    69   33  158 1    
    70   34   35 am   BACKBONE|DICT|INTERRES
    71   34  159 1    
    72   35   36 2    
    73   35   37 1    
    74   37   38 1    
    75   37   39 1    
    76   37  160 1    
    77   38  161 1    
    78   38  162 1    
    79   38  163 1    
    80   39   40 am   BACKBONE|DICT|INTERRES
    81   39  164 1    
    82   40   41 2    
    83   40   42 1    
    84   42   43 1    
    85   42   44 1    
    86   42  165 1    
    87   43  166 1    
    88   43  167 1    
    89   43  168 1    
    90   44   45 am   BACKBONE|DICT|INTERRES
    91   44  169 1    
    92   45   46 2    
    93   45   47 1    
    94   47   48 1    
    95   47   49 1    
    96   47  170 1    
    97   48  171 1    
    98   48  172 1    
    99   48  173 1    
   100   49   50 am   BACKBONE|DICT|INTERRES
   101   49  174 1    
   102   50   51 2    
   103   50   52 1    
   104   52   53 1    
   105   52   54 1    
   106   52  175 1    
   107   53  176 1    
   108   53  177 1    
   109   53  178 1    
   110   54   55 am   BACKBONE|DICT|INTERRES
   111   54  179 1    
   112   55   56 2    
   113   55   57 1    
   114   57   58 1    
   115   57   59 1    
   116   57  180 1    
   117   58  181 1    
   118   58  182 1    
   119   58  183 1    
   120   59   60 am   BACKBONE|DICT|INTERRES
   121   59  184 1    
   122   60   61 2    
   123   60   62 1    
   124   62   63 1    
   125   62   64 1    
   126   62  185 1    
   127   63  186 1    
   128   63  187 1    
   129   63  188 1    
   130   64   65 am   BACKBONE|DICT|INTERRES
   131   64  189 1    
   132   65   66 2    
   133   67   68 2    
   134   67   69 am   BACKBONE|DICT|INTERRES
   135   69   70 1    
   136   69  190 1    
   137   70   71 1    
   138   70   72 1    
   139   70  191 1    
   140   71  192 1    
   141   71  193 1    
   142   71  194 1    
   143   72   73 2    
   144   72   74 am   BACKBONE|DICT|INTERRES
   145   74   75 1    
   146   74  195 1    
   147   75   76 1    
   148   75   77 1    
   149   75  196 1    
   150   76  197 1    
   151   76  198 1    
   152   76  199 1    
   153   77   78 2    
   154   77   79 am   BACKBONE|DICT|INTERRES
   155   79   80 1    
   156   79  200 1    
   157   80   81 1    
   158   80   82 1    
   159   80  201 1    
   160   81  202 1    
   161   81  203 1    
   162   81  204 1    
   163   82   83 2    
   164   82   84 am   BACKBONE|DICT|INTERRES
   165   84   85 1    
   166   84  205 1    
   167   85   86 1    
   168   85   87 1    
   169   85  206 1    
   170   86  207 1    
   171   86  208 1    
   172   86  209 1    
   173   87   88 2    
   174   87   89 am   BACKBONE|DICT|INTERRES
   175   89   90 1    
   176   89  210 1    
   177   90   91 1    
   178   90   92 1    
   179   90  211 1    
   180   91  212 1    
   181   91  213 1    
   182   91  214 1    
   183   92   93 2    
   184   92   94 am   BACKBONE|DICT|INTERRES
   185   94   95 1    
   186   94  215 1    
   187   95   96 1    
   188   95   97 1    
   189   95  216 1    
   190   96  217 1    
   191   96  218 1    
   192   96  219 1    
   193   97   98 2    
   194   97   99 am   BACKBONE|DICT|INTERRES
   195   99  100 1    
   196   99  220 1    
   197  100  101 1    
   198  100  102 1    
   199  100  221 1    
   200  101  222 1    
   201  101  223 1    
   202  101  224 1    
   203  102  103 2    
   204  102  104 am   BACKBONE|DICT|INTERRES
   205  104  105 1    
   206  104  225 1    
   207  105  106 1    
   208  105  107 1    
   209  105  226 1    
   210  106  227 1    
   211  106  228 1    
   212  106  229 1    
   213  107  108 2    
   214  107  109 am   BACKBONE|DICT|INTERRES
   215  109  110 1    
   216  109  230 1    
   217  110  111 1    
   218  110  112 1    
   219  110  231 1    
   220  111  232 1    
   221  111  233 1    
   222  111  234 1    
   223  112  113 2    
   224  112  114 am   BACKBONE|DICT|INTERRES
   225  114  115 1    
   226  114  235 1    
   227  115  116 1    
   228  115  117 1    
   229  115  236 1    
   230  116  237 1    
   231  116  238 1    
   232  116  239 1    
   233  117  118 2    
   234  117  119 am   BACKBONE|DICT|INTERRES
   235  119  120 1    
   236  119  240 1    
   237  120  121 1    
   238  120  124 1    
   239  120  241 1    
   240  121  122 am   BACKBONE|DICT|INTERRES
   241  121  123 2    
   242  122  242 1    
   243  122  243 1    
   244  124  125 1    
   245  124  244 1    
   246  124  245 1    
   247  125  126 1    
   248  126  246 1    
   249  126  247 1    
@<TRIPOS>SUBSTRUCTURE
     1 UNK         1 GROUP             0       ****    0 ROOT    
