@<TRIPOS>MOLECULE
3R540
247   249    1
SMALL
USER_CHARGES


@<TRIPOS>ATOM
      1 CA          6.2706  -10.6100  -42.4580 C.3       0 UNK        -0.1800 
      2 C           5.2943  -11.1771  -43.4779 C.2       0 UNK         0.5000 
      3 O           4.1716  -10.6856  -43.5934 O.2       0 UNK        -0.5000 
      4 N           5.7194  -12.1971  -44.2377 N.am      1 UNK        -0.5000 
      5 CA          4.9029  -12.8943  -45.2430 C.3       1 UNK         0.1400 
      6 C6          5.5489  -14.2312  -45.6837 C.3       23 UNK        -0.0398 
      7 S7          4.3026  -15.4542  -46.2137 S.3       23 UNK        -0.2404 
      8 C8          4.6592  -15.5655  -47.9921 C.3       23 UNK        -0.0205 
      9 C9          3.5087  -16.2028  -48.7545 C.ar      23 UNK        -0.0193 
     10 C10         2.4003  -15.4273  -49.1020 C.ar      23 UNK        -0.1150 
     11 C11         1.3484  -15.9649  -49.8499 C.ar      23 UNK        -0.0193 
     12 C12         1.4205  -17.3116  -50.2354 C.ar      23 UNK        -0.1150 
     13 C13         2.5206  -18.1022  -49.8957 C.ar      23 UNK        -0.0193 
     14 C14         3.5620  -17.5428  -49.1490 C.ar      23 UNK        -0.1150 
     15 C15         2.6134  -19.5388  -50.3956 C.3       23 UNK        -0.0205 
     16 S16         2.1583  -20.7609  -49.1268 S.3       23 UNK        -0.2404 
     17 C17         0.3369  -20.8491  -49.2613 C.3       23 UNK        -0.0398 
     18 CA         -0.2289  -22.0766  -48.4975 C.3       11 UNK         0.1400 
     19 N           0.1748  -22.0675  -47.0887 N.am      11 UNK        -0.5000 
     20 C          -0.0350  -23.0338  -46.1883 C.2       10 UNK         0.5000 
     21 O          -0.6170  -24.0849  -46.4481 O.2       10 UNK        -0.5000 
     22 CA          0.4135  -22.7588  -44.7399 C.3       10 UNK         0.1400 
     23 CB          1.0503  -23.9936  -44.0715 C.3       10 UNK        -0.1800 
     24 N           1.2472  -21.5651  -44.5863 N.am      10 UNK        -0.5000 
     25 C           2.5131  -21.3628  -44.9782 C.2       9 UNK         0.5000 
     26 O           3.2056  -22.2050  -45.5489 O.2       9 UNK        -0.5000 
     27 CA          3.0974  -19.9641  -44.6920 C.3       9 UNK         0.1400 
     28 CB          3.1573  -19.1414  -45.9849 C.3       9 UNK        -0.1800 
     29 N           2.3280  -19.2128  -43.6964 N.am      9 UNK        -0.5000 
     30 C           2.2909  -19.4930  -42.3859 C.2       8 UNK         0.5000 
     31 O           2.9837  -20.3568  -41.8477 O.2       8 UNK        -0.5000 
     32 CA          1.2663  -18.7076  -41.5513 C.3       8 UNK         0.1400 
     33 CB          1.8314  -17.3373  -41.1481 C.3       8 UNK        -0.1800 
     34 N           0.0054  -18.5293  -42.2765 N.am      8 UNK        -0.5000 
     35 C          -0.9282  -19.4815  -42.4241 C.2       7 UNK         0.5000 
     36 O          -0.8270  -20.6145  -41.9556 O.2       7 UNK        -0.5000 
     37 CA         -2.1739  -19.1203  -43.2550 C.3       7 UNK         0.1400 
     38 CB         -3.2519  -18.4840  -42.3658 C.3       7 UNK        -0.1800 
     39 N          -1.8602  -18.2122  -44.3572 N.am      7 UNK        -0.5000 
     40 C          -1.2767  -18.5914  -45.5010 C.2       6 UNK         0.5000 
     41 O          -1.0328  -19.7637  -45.7831 O.2       6 UNK        -0.5000 
     42 CA         -0.9079  -17.4855  -46.5054 C.3       6 UNK         0.1400 
     43 CB         -2.0177  -17.3561  -47.5541 C.3       6 UNK        -0.1800 
     44 N          -0.6724  -16.1725  -45.9000 N.am      6 UNK        -0.5000 
     45 C           0.2777  -15.8805  -45.0033 C.2       5 UNK         0.5000 
     46 O           1.0291  -16.7277  -44.5170 O.2       5 UNK        -0.5000 
     47 CA          0.3810  -14.3996  -44.5771 C.3       5 UNK         0.1400 
     48 CB          1.4751  -14.1591  -43.5224 C.3       5 UNK        -0.1800 
     49 N           0.6162  -13.5118  -45.7182 N.am      5 UNK        -0.5000 
     50 C          -0.3149  -13.1066  -46.5925 C.2       4 UNK         0.5000 
     51 O          -1.4923  -13.4678  -46.5462 O.2       4 UNK        -0.5000 
     52 CA          0.1701  -12.1414  -47.6881 C.3       4 UNK         0.1400 
     53 CB         -0.9464  -11.6678  -48.6427 C.3       4 UNK        -0.1800 
     54 N           0.9244  -11.0214  -47.1206 N.am      4 UNK        -0.5000 
     55 C           0.4694  -10.0040  -46.3721 C.2       3 UNK         0.5000 
     56 O          -0.7188   -9.8413  -46.0925 O.2       3 UNK        -0.5000 
     57 CA          1.5094   -8.9972  -45.8229 C.3       3 UNK         0.1400 
     58 CB          1.3943   -8.8739  -44.2944 C.3       3 UNK        -0.1800 
     59 N           2.8945   -9.3398  -46.1577 N.am      3 UNK        -0.5000 
     60 C           3.4714   -9.1655  -47.3569 C.2       2 UNK         0.5000 
     61 O           2.9289   -8.5727  -48.2894 O.2       2 UNK        -0.5000 
     62 CA          4.8639   -9.8002  -47.5745 C.3       2 UNK         0.1400 
     63 CB          5.9599   -8.7260  -47.5069 C.3       2 UNK        -0.1800 
     64 N           5.1928  -10.8694  -46.6256 N.am      2 UNK        -0.5000 
     65 C           4.5021  -12.0057  -46.4449 C.2       1 UNK         0.5000 
     66 O           3.5327  -12.3218  -47.1360 O.2       1 UNK        -0.5000 
     67 C          -1.7627  -22.1743  -48.6408 C.2       11 UNK         0.5000 
     68 O          -2.2588  -22.9828  -49.4304 O.2       11 UNK        -0.5000 
     69 N          -2.4808  -21.3931  -47.8211 N.am      12 UNK        -0.5000 
     70 CA         -3.9396  -21.4253  -47.7408 C.3       12 UNK         0.1400 
     71 CB         -4.4657  -20.0745  -47.2330 C.3       12 UNK        -0.1800 
     72 C          -4.4447  -22.5660  -46.8423 C.2       12 UNK         0.5000 
     73 O          -5.5035  -23.1245  -47.1245 O.2       12 UNK        -0.5000 
     74 N          -3.6860  -22.8937  -45.7851 N.am      13 UNK        -0.5000 
     75 CA         -4.0450  -23.9055  -44.7862 C.3       13 UNK         0.1400 
     76 CB         -3.1349  -23.7705  -43.5560 C.3       13 UNK        -0.1800 
     77 C          -3.9967  -25.3392  -45.3438 C.2       13 UNK         0.5000 
     78 O          -4.9078  -26.1243  -45.0805 O.2       13 UNK        -0.5000 
     79 N          -2.9556  -25.6434  -46.1316 N.am      14 UNK        -0.5000 
     80 CA         -2.8128  -26.9003  -46.8712 C.3       14 UNK         0.1400 
     81 CB         -1.3330  -27.1055  -47.2317 C.3       14 UNK        -0.1800 
     82 C          -3.6823  -26.9389  -48.1433 C.2       14 UNK         0.5000 
     83 O          -3.8522  -28.0135  -48.7198 O.2       14 UNK        -0.5000 
     84 N          -4.2056  -25.7711  -48.5473 N.am      15 UNK        -0.5000 
     85 CA         -5.0453  -25.5097  -49.7146 C.3       15 UNK         0.1400 
     86 CB         -6.4192  -26.1954  -49.5628 C.3       15 UNK        -0.1800 
     87 C          -4.3205  -25.8748  -51.0227 C.2       15 UNK         0.5000 
     88 O          -4.7680  -26.7557  -51.7597 O.2       15 UNK        -0.5000 
     89 N          -3.1862  -25.2027  -51.2676 N.am      16 UNK        -0.5000 
     90 CA         -2.2204  -25.5118  -52.3292 C.3       16 UNK         0.1400 
     91 CB         -1.0317  -24.5451  -52.2098 C.3       16 UNK        -0.1800 
     92 C          -2.7731  -25.5125  -53.7719 C.2       16 UNK         0.5000 
     93 O          -2.1895  -26.1698  -54.6344 O.2       16 UNK        -0.5000 
     94 N          -3.8801  -24.7974  -54.0087 N.am      17 UNK        -0.5000 
     95 CA         -4.5660  -24.7061  -55.3017 C.3       17 UNK         0.1400 
     96 CB         -4.8753  -23.2239  -55.5817 C.3       17 UNK        -0.1800 
     97 C          -5.8543  -25.5555  -55.3491 C.2       17 UNK         0.5000 
     98 O          -6.6647  -25.3565  -56.2549 O.2       17 UNK        -0.5000 
     99 N          -6.0531  -26.4430  -54.3591 N.am      18 UNK        -0.5000 
    100 CA        -7.3057  -27.1497  -54.0416 C.3       18 UNK         0.1400 
    101 CB        -7.7539  -28.0788  -55.1892 C.3       18 UNK        -0.1800 
    102 C         -8.4114  -26.1766  -53.5704 C.2       18 UNK         0.5000 
    103 O         -9.6028  -26.4302  -53.7543 O.2       18 UNK        -0.5000 
    104 N         -7.9658  -25.0742  -52.9641 N.am      19 UNK        -0.5000 
    105 CA        -8.6998  -23.9350  -52.4377 C.3       19 UNK         0.1400 
    106 CB        -9.2661  -23.0888  -53.5929 C.3       19 UNK        -0.1800 
    107 C         -7.6898  -23.1306  -51.6024 C.2       19 UNK         0.5000 
    108 O         -6.4886  -23.4223  -51.6612 O.2       19 UNK        -0.5000 
    109 N         -8.1757  -22.1377  -50.8464 N.am      20 UNK        -0.5000 
    110 CA        -7.3932  -21.2629  -49.9642 C.3       20 UNK         0.1400 
    111 CB        -8.3559  -20.5244  -49.0180 C.3       20 UNK        -0.1800 
    112 C         -6.4672  -20.2955  -50.7373 C.2       20 UNK         0.5000 
    113 O         -6.6862  -19.0814  -50.7410 O.2       20 UNK        -0.5000 
    114 N         -5.4623  -20.8766  -51.4015 N.am      21 UNK        -0.5000 
    115 CA        -4.4561  -20.2404  -52.2451 C.3       21 UNK         0.1400 
    116 CB        -3.4300  -21.3036  -52.6637 C.3       21 UNK        -0.1800 
    117 C         -3.7455  -19.0747  -51.5444 C.2       21 UNK         0.5000 
    118 O         -3.1698  -19.2721  -50.4733 O.2       21 UNK        -0.5000 
    119 N         -3.7908  -17.8948  -52.1747 N.am      22 UNK        -0.5000 
    120 CA        -3.1768  -16.6477  -51.6904 C.3       22 UNK         0.1400 
    121 C         -3.9172  -15.9813  -50.4875 C.2       22 UNK         0.5000 
    122 N         -5.0667  -16.4818  -50.0464 N.am      22 UNK        -0.7600 
    123 O         -3.4652  -14.9669  -49.9658 O.2       22 UNK        -0.5000 
    124 C124       -1.6524  -16.8308  -51.4504 C.3       23 UNK        -0.0398 
    125 S125       -0.6230  -15.3732  -51.8213 S.3       23 UNK        -0.2404 
    126 C126        0.1666  -15.0559  -50.2055 C.3       23 UNK        -0.0205 
    127 H127        6.4558   -9.5556  -42.6628 H         1 UNK         0.0600 
    128 H128        5.8545  -10.6955  -41.4543 H         1 UNK         0.0600 
    129 H129        7.2265  -11.1340  -42.4763 H         1 UNK         0.0600 
    130 H130        6.6578  -12.5490  -44.1082 H         1 UNK         0.3000 
    131 H131        3.9685  -13.1316  -44.7338 H         1 UNK         0.0600 
    132 H132        6.0767  -14.6842  -44.8433 H         1 UNK         0.0800 
    133 H133        6.3033  -14.0778  -46.4574 H         1 UNK         0.0800 
    134 H134        5.5802  -16.1312  -48.1407 H         1 UNK         0.0800 
    135 H135        4.8408  -14.5672  -48.3935 H         1 UNK         0.0800 
    136 H136        2.3728  -14.3919  -48.7949 H         1 UNK         0.1150 
    137 H137        0.6429  -17.7628  -50.8258 H         1 UNK         0.1150 
    138 H138        4.4214  -18.1461  -48.8923 H         1 UNK         0.1150 
    139 H139        1.9983  -19.6821  -51.2852 H         1 UNK         0.0800 
    140 H140        3.6393  -19.7370  -50.7093 H         1 UNK         0.0800 
    141 H141       -0.0853  -19.9188  -48.8763 H         1 UNK         0.0800 
    142 H142        0.0635  -20.9022  -50.3167 H         1 UNK         0.0800 
    143 H143        0.1916  -22.9788  -48.9467 H         1 UNK         0.0600 
    144 H144        0.6080  -21.2167  -46.7608 H         1 UNK         0.3000 
    145 H145       -0.4980  -22.5249  -44.1911 H         1 UNK         0.0600 
    146 H146        1.3398  -23.7790  -43.0428 H         1 UNK         0.0600 
    147 H147        0.3492  -24.8285  -44.0428 H         1 UNK         0.0600 
    148 H148        1.9360  -24.3349  -44.6075 H         1 UNK         0.0600 
    149 H149        0.7829  -20.7813  -44.1504 H         1 UNK         0.3000 
    150 H150        4.1145  -20.0974  -44.3181 H         1 UNK         0.0600 
    151 H151        3.6150  -18.1715  -45.8051 H         1 UNK         0.0600 
    152 H152        2.1656  -18.9702  -46.4051 H         1 UNK         0.0600 
    153 H153        3.7568  -19.6449  -46.7439 H         1 UNK         0.0600 
    154 H154        1.7790  -18.4286  -44.0404 H         1 UNK         0.3000 
    155 H155        1.0662  -19.2728  -40.6384 H         1 UNK         0.0600 
    156 H156        1.1027  -16.7575  -40.5816 H         1 UNK         0.0600 
    157 H157        2.1280  -16.7517  -42.0181 H         1 UNK         0.0600 
    158 H158        2.7151  -17.4536  -40.5196 H         1 UNK         0.0600 
    159 H159       -0.1128  -17.6500  -42.7592 H         1 UNK         0.3000 
    160 H160       -2.5807  -20.0465  -43.6674 H         1 UNK         0.0600 
    161 H161       -2.9130  -17.5438  -41.9291 H         1 UNK         0.0600 
    162 H162       -3.5227  -19.1492  -41.5448 H         1 UNK         0.0600 
    163 H163       -4.1610  -18.2829  -42.9329 H         1 UNK         0.0600 
    164 H164       -2.0577  -17.2323  -44.2192 H         1 UNK         0.3000 
    165 H165        0.0134  -17.7837  -47.0099 H         1 UNK         0.0600 
    166 H166       -2.9919  -17.1817  -47.0956 H         1 UNK         0.0600 
    167 H167       -1.8268  -16.5285  -48.2321 H         1 UNK         0.0600 
    168 H168       -2.0904  -18.2618  -48.1567 H         1 UNK         0.0600 
    169 H169       -1.2378  -15.4014  -46.2427 H         1 UNK         0.3000 
    170 H170       -0.5737  -14.1268  -44.1226 H         1 UNK         0.0600 
    171 H171        1.2098  -14.6371  -42.5796 H         1 UNK         0.0600 
    172 H172        2.4363  -14.5667  -43.8348 H         1 UNK         0.0600 
    173 H173        1.6078  -13.0964  -43.3170 H         1 UNK         0.0600 
    174 H174        1.5687  -13.2070  -45.8621 H         1 UNK         0.3000 
    175 H175        0.8871  -12.7002  -48.2877 H         1 UNK         0.0600 
    176 H176       -1.7432  -11.1429  -48.1159 H         1 UNK         0.0600 
    177 H177       -0.5527  -11.0007  -49.4094 H         1 UNK         0.0600 
    178 H178       -1.4047  -12.5156  -49.1538 H         1 UNK         0.0600 
    179 H179        1.9286  -11.0964  -47.2409 H         1 UNK         0.3000 
    180 H180        1.2778   -8.0237  -46.2596 H         1 UNK         0.0600 
    181 H181        2.1219   -8.1653  -43.8982 H         1 UNK         0.0600 
    182 H182        0.4055   -8.5196  -44.0010 H         1 UNK         0.0600 
    183 H183        1.5580   -9.8333  -43.8020 H         1 UNK         0.0600 
    184 H184        3.4143   -9.8261  -45.4356 H         1 UNK         0.3000 
    185 H185        4.8681  -10.2352  -48.5759 H         1 UNK         0.0600 
    186 H186        6.9383   -9.1439  -47.7448 H         1 UNK         0.0600 
    187 H187        5.7682   -7.9252  -48.2225 H         1 UNK         0.0600 
    188 H188        6.0183   -8.2738  -46.5160 H         1 UNK         0.0600 
    189 H189        5.9620  -10.6863  -45.9980 H         1 UNK         0.3000 
    190 H190       -1.9908  -20.7831  -47.1742 H         1 UNK         0.3000 
    191 H191       -4.3438  -21.5861  -48.7421 H         1 UNK         0.0600 
    192 H192       -5.5490  -20.0980  -47.1086 H         1 UNK         0.0600 
    193 H193       -4.2461  -19.2777  -47.9427 H         1 UNK         0.0600 
    194 H194       -4.0307  -19.8040  -46.2705 H         1 UNK         0.0600 
    195 H195       -2.8204  -22.3968  -45.6449 H         1 UNK         0.3000 
    196 H196       -5.0703  -23.7052  -44.4675 H         1 UNK         0.0600 
    197 H197       -3.4983  -24.3962  -42.7399 H         1 UNK         0.0600 
    198 H198       -3.1033  -22.7445  -43.1886 H         1 UNK         0.0600 
    199 H199       -2.1158  -24.0884  -43.7719 H         1 UNK         0.0600 
    200 H200       -2.2113  -24.9617  -46.2686 H         1 UNK         0.3000 
    201 H201       -3.1256  -27.7255  -46.2281 H         1 UNK         0.0600 
    202 H202       -0.7014  -27.0758  -46.3437 H         1 UNK         0.0600 
    203 H203       -0.9781  -26.3388  -47.9218 H         1 UNK         0.0600 
    204 H204       -1.1777  -28.0733  -47.7100 H         1 UNK         0.0600 
    205 H205       -3.9907  -24.9609  -47.9845 H         1 UNK         0.3000 
    206 H206       -5.2075  -24.4321  -49.7258 H         1 UNK         0.0600 
    207 H207       -6.9183  -25.8714  -48.6495 H         1 UNK         0.0600 
    208 H208       -7.0751  -25.9469  -50.3961 H         1 UNK         0.0600 
    209 H209       -6.3334  -27.2818  -49.5314 H         1 UNK         0.0600 
    210 H210       -2.9002  -24.4842  -50.6079 H         1 UNK         0.3000 
    211 H211       -1.8526  -26.5212  -52.1350 H         1 UNK         0.0600 
    212 H212       -1.3395  -23.5101  -52.3588 H         1 UNK         0.0600 
    213 H213       -0.2654  -24.7700  -52.9528 H         1 UNK         0.0600 
    214 H214       -0.5617  -24.6161  -51.2286 H         1 UNK         0.0600 
    215 H215       -4.3054  -24.3092  -53.2336 H         1 UNK         0.3000 
    216 H216       -3.9188  -25.0689  -56.1024 H         1 UNK         0.0600 
    217 H217       -5.3236  -23.0925  -56.5672 H         1 UNK         0.0600 
    218 H218       -3.9668  -22.6218  -55.5636 H         1 UNK         0.0600 
    219 H219       -5.5701  -22.8124  -54.8481 H         1 UNK         0.0600 
    220 H220       -5.3311  -26.5369  -53.6503 H         1 UNK         0.3000 
    221 H221       -7.0797  -27.7824  -53.1820 H         1 UNK         0.0600 
    222 H222       -8.1079  -27.5197  -56.0553 H         1 UNK         0.0600 
    223 H223       -6.9388  -28.7249  -55.5148 H         1 UNK         0.0600 
    224 H224       -8.5710  -28.7251  -54.8670 H         1 UNK         0.0600 
    225 H225       -6.9682  -24.9786  -52.8190 H         1 UNK         0.3000 
    226 H226       -9.5035  -24.2881  -51.7892 H         1 UNK         0.0600 
    227 H227       -9.8056  -22.2183  -53.2184 H         1 UNK         0.0600 
    228 H228       -8.4736  -22.7284  -54.2503 H         1 UNK         0.0600 
    229 H229       -9.9663  -23.6626  -54.2000 H         1 UNK         0.0600 
    230 H230       -9.1670  -21.9490  -50.8808 H         1 UNK         0.3000 
    231 H231       -6.7526  -21.8959  -49.3470 H         1 UNK         0.0600 
    232 H232       -7.8098  -19.8757  -48.3321 H         1 UNK         0.0600 
    233 H233       -8.9275  -21.2267  -48.4110 H         1 UNK         0.0600 
    234 H234       -9.0627  -19.9012  -49.5674 H         1 UNK         0.0600 
    235 H235       -5.4519  -21.8916  -51.3924 H         1 UNK         0.3000 
    236 H236       -4.9638  -19.8742  -53.1393 H         1 UNK         0.0600 
    237 H237       -2.8831  -21.6909  -51.8032 H         1 UNK         0.0600 
    238 H238       -3.9138  -22.1458  -53.1515 H         1 UNK         0.0600 
    239 H239       -2.6996  -20.8935  -53.3620 H         1 UNK         0.0600 
    240 H240       -4.3083  -17.8185  -53.0388 H         1 UNK         0.3000 
    241 H241       -3.3009  -15.9470  -52.5166 H         1 UNK         0.0600 
    242 H242       -5.5366  -16.0260  -49.2814 H         1 UNK         0.3800 
    243 H243       -5.4655  -17.3216  -50.4481 H         1 UNK         0.3800 
    244 H244       -1.2724  -17.6196  -52.1012 H         1 UNK         0.0800 
    245 H245       -1.4727  -17.1808  -50.4346 H         1 UNK         0.0800 
    246 H246        0.5138  -14.0229  -50.2388 H         1 UNK         0.0800 
    247 H247       -0.5795  -15.0938  -49.4132 H         1 UNK         0.0800 
@<TRIPOS>BOND
     1    1    2 1    
     2    1  127 1    
     3    1  128 1    
     4    1  129 1    
     5    2    3 2    
     6    2    4 am   BACKBONE|DICT|INTERRES
     7    4    5 1    
     8    4  130 1    
     9    5    6 1    
    10    5   65 1    
    11    5  131 1    
    12    6    7 1    
    13    6  132 1    
    14    6  133 1    
    15    7    8 1    
    16    8    9 1    
    17    8  134 1    
    18    8  135 1    
    19    9   10 ar   
    20    9   14 ar   
    21   10   11 ar   
    22   10  136 1    
    23   11   12 ar   
    24   11  126 1    
    25   12   13 ar   
    26   12  137 1    
    27   13   14 ar   
    28   13   15 1    
    29   14  138 1    
    30   15   16 1    
    31   15  139 1    
    32   15  140 1    
    33   16   17 1    
    34   17   18 1    
    35   17  141 1    
    36   17  142 1    
    37   18   19 1    
    38   18   67 1    
    39   18  143 1    
    40   19   20 am   BACKBONE|DICT|INTERRES
    41   19  144 1    
    42   20   21 2    
    43   20   22 1    
    44   22   23 1    
    45   22   24 1    
    46   22  145 1    
    47   23  146 1    
    48   23  147 1    
    49   23  148 1    
    50   24   25 am   BACKBONE|DICT|INTERRES
    51   24  149 1    
    52   25   26 2    
    53   25   27 1    
    54   27   28 1    
    55   27   29 1    
    56   27  150 1    
    57   28  151 1    
    58   28  152 1    
    59   28  153 1    
    60   29   30 am   BACKBONE|DICT|INTERRES
    61   29  154 1    
    62   30   31 2    
    63   30   32 1    
    64   32   33 1    
    65   32   34 1    
    66   32  155 1    
    67   33  156 1    
    68   33  157 1    
    69   33  158 1    
    70   34   35 am   BACKBONE|DICT|INTERRES
    71   34  159 1    
    72   35   36 2    
    73   35   37 1    
    74   37   38 1    
    75   37   39 1    
    76   37  160 1    
    77   38  161 1    
    78   38  162 1    
    79   38  163 1    
    80   39   40 am   BACKBONE|DICT|INTERRES
    81   39  164 1    
    82   40   41 2    
    83   40   42 1    
    84   42   43 1    
    85   42   44 1    
    86   42  165 1    
    87   43  166 1    
    88   43  167 1    
    89   43  168 1    
    90   44   45 am   BACKBONE|DICT|INTERRES
    91   44  169 1    
    92   45   46 2    
    93   45   47 1    
    94   47   48 1    
    95   47   49 1    
    96   47  170 1    
    97   48  171 1    
    98   48  172 1    
    99   48  173 1    
   100   49   50 am   BACKBONE|DICT|INTERRES
   101   49  174 1    
   102   50   51 2    
   103   50   52 1    
   104   52   53 1    
   105   52   54 1    
   106   52  175 1    
   107   53  176 1    
   108   53  177 1    
   109   53  178 1    
   110   54   55 am   BACKBONE|DICT|INTERRES
   111   54  179 1    
   112   55   56 2    
   113   55   57 1    
   114   57   58 1    
   115   57   59 1    
   116   57  180 1    
   117   58  181 1    
   118   58  182 1    
   119   58  183 1    
   120   59   60 am   BACKBONE|DICT|INTERRES
   121   59  184 1    
   122   60   61 2    
   123   60   62 1    
   124   62   63 1    
   125   62   64 1    
   126   62  185 1    
   127   63  186 1    
   128   63  187 1    
   129   63  188 1    
   130   64   65 am   BACKBONE|DICT|INTERRES
   131   64  189 1    
   132   65   66 2    
   133   67   68 2    
   134   67   69 am   BACKBONE|DICT|INTERRES
   135   69   70 1    
   136   69  190 1    
   137   70   71 1    
   138   70   72 1    
   139   70  191 1    
   140   71  192 1    
   141   71  193 1    
   142   71  194 1    
   143   72   73 2    
   144   72   74 am   BACKBONE|DICT|INTERRES
   145   74   75 1    
   146   74  195 1    
   147   75   76 1    
   148   75   77 1    
   149   75  196 1    
   150   76  197 1    
   151   76  198 1    
   152   76  199 1    
   153   77   78 2    
   154   77   79 am   BACKBONE|DICT|INTERRES
   155   79   80 1    
   156   79  200 1    
   157   80   81 1    
   158   80   82 1    
   159   80  201 1    
   160   81  202 1    
   161   81  203 1    
   162   81  204 1    
   163   82   83 2    
   164   82   84 am   BACKBONE|DICT|INTERRES
   165   84   85 1    
   166   84  205 1    
   167   85   86 1    
   168   85   87 1    
   169   85  206 1    
   170   86  207 1    
   171   86  208 1    
   172   86  209 1    
   173   87   88 2    
   174   87   89 am   BACKBONE|DICT|INTERRES
   175   89   90 1    
   176   89  210 1    
   177   90   91 1    
   178   90   92 1    
   179   90  211 1    
   180   91  212 1    
   181   91  213 1    
   182   91  214 1    
   183   92   93 2    
   184   92   94 am   BACKBONE|DICT|INTERRES
   185   94   95 1    
   186   94  215 1    
   187   95   96 1    
   188   95   97 1    
   189   95  216 1    
   190   96  217 1    
   191   96  218 1    
   192   96  219 1    
   193   97   98 2    
   194   97   99 am   BACKBONE|DICT|INTERRES
   195   99  100 1    
   196   99  220 1    
   197  100  101 1    
   198  100  102 1    
   199  100  221 1    
   200  101  222 1    
   201  101  223 1    
   202  101  224 1    
   203  102  103 2    
   204  102  104 am   BACKBONE|DICT|INTERRES
   205  104  105 1    
   206  104  225 1    
   207  105  106 1    
   208  105  107 1    
   209  105  226 1    
   210  106  227 1    
   211  106  228 1    
   212  106  229 1    
   213  107  108 2    
   214  107  109 am   BACKBONE|DICT|INTERRES
   215  109  110 1    
   216  109  230 1    
   217  110  111 1    
   218  110  112 1    
   219  110  231 1    
   220  111  232 1    
   221  111  233 1    
   222  111  234 1    
   223  112  113 2    
   224  112  114 am   BACKBONE|DICT|INTERRES
   225  114  115 1    
   226  114  235 1    
   227  115  116 1    
   228  115  117 1    
   229  115  236 1    
   230  116  237 1    
   231  116  238 1    
   232  116  239 1    
   233  117  118 2    
   234  117  119 am   BACKBONE|DICT|INTERRES
   235  119  120 1    
   236  119  240 1    
   237  120  121 1    
   238  120  124 1    
   239  120  241 1    
   240  121  122 am   BACKBONE|DICT|INTERRES
   241  121  123 2    
   242  122  242 1    
   243  122  243 1    
   244  124  125 1    
   245  124  244 1    
   246  124  245 1    
   247  125  126 1    
   248  126  246 1    
   249  126  247 1    
@<TRIPOS>SUBSTRUCTURE
     1 UNK         1 GROUP             0       ****    0 ROOT    
