@<TRIPOS>MOLECULE
3R540
247   249    1
SMALL
USER_CHARGES


@<TRIPOS>ATOM
      1 CA          2.2202  -12.9559  -46.6003 C.3       0 UNK        -0.1800 
      2 C           1.0758  -13.5296  -47.4229 C.2       0 UNK         0.5000 
      3 O          -0.0788  -13.4310  -47.0137 O.2       0 UNK        -0.5000 
      4 N           1.3937  -14.1060  -48.5898 N.am      1 UNK        -0.5000 
      5 CA          0.4835  -14.8062  -49.5122 C.3       1 UNK         0.1400 
      6 C6          1.2708  -15.4598  -50.6734 C.3       23 UNK        -0.0398 
      7 S7          2.3309  -16.8393  -50.1196 S.3       23 UNK        -0.2404 
      8 C8          1.3417  -18.2822  -50.6286 C.3       23 UNK        -0.0205 
      9 C9          2.2160  -19.3836  -51.2007 C.ar      23 UNK        -0.0193 
     10 C10         2.7091  -19.2755  -52.5040 C.ar      23 UNK        -0.1150 
     11 C11         3.4759  -20.3033  -53.0593 C.ar      23 UNK        -0.0193 
     12 C12         3.7775  -21.4284  -52.2877 C.ar      23 UNK        -0.1150 
     13 C13         3.2862  -21.5510  -50.9845 C.ar      23 UNK        -0.0193 
     14 C14         2.4981  -20.5270  -50.4490 C.ar      23 UNK        -0.1150 
     15 C15         3.5443  -22.8267  -50.1974 C.3       23 UNK        -0.0205 
     16 S16         4.8138  -22.6394  -48.8975 S.3       23 UNK        -0.2404 
     17 C17         3.8327  -22.1807  -47.4233 C.3       23 UNK        -0.0398 
     18 CA          3.3798  -23.3897  -46.5608 C.3       11 UNK         0.1400 
     19 N           2.8920  -22.9657  -45.2478 N.am      11 UNK        -0.5000 
     20 C           2.6215  -23.7905  -44.2259 C.2       10 UNK         0.5000 
     21 O           2.8491  -25.0004  -44.2410 O.2       10 UNK        -0.5000 
     22 CA          1.9590  -23.1647  -42.9846 C.3       10 UNK         0.1400 
     23 CB          3.0241  -22.6311  -42.0150 C.3       10 UNK        -0.1800 
     24 N           1.0103  -22.0982  -43.3161 N.am      10 UNK        -0.5000 
     25 C          -0.1225  -22.2815  -44.0094 C.2       9 UNK         0.5000 
     26 O          -0.5076  -23.3754  -44.4165 O.2       9 UNK        -0.5000 
     27 CA         -0.9466  -21.0343  -44.3594 C.3       9 UNK         0.1400 
     28 CB         -1.7888  -20.5718  -43.1619 C.3       9 UNK        -0.1800 
     29 N          -0.1171  -19.9333  -44.8364 N.am      9 UNK        -0.5000 
     30 C           0.6216  -19.9397  -45.9535 C.2       8 UNK         0.5000 
     31 O           0.6264  -20.8661  -46.7663 O.2       8 UNK        -0.5000 
     32 CA          1.5525  -18.7307  -46.1599 C.3       8 UNK         0.1400 
     33 CB          0.8032  -17.5309  -46.7539 C.3       8 UNK        -0.1800 
     34 N           2.1874  -18.3140  -44.9113 N.am      8 UNK        -0.5000 
     35 C           3.1300  -19.0115  -44.2659 C.2       7 UNK         0.5000 
     36 O           3.5802  -20.0854  -44.6656 O.2       7 UNK        -0.5000 
     37 CA          3.6255  -18.4170  -42.9347 C.3       7 UNK         0.1400 
     38 CB          4.6957  -17.3444  -43.1868 C.3       7 UNK        -0.1800 
     39 N           2.5409  -17.8422  -42.1342 N.am      7 UNK        -0.5000 
     40 C           1.5786  -18.5676  -41.5481 C.2       6 UNK         0.5000 
     41 O           1.5078  -19.7932  -41.6235 O.2       6 UNK        -0.5000 
     42 CA          0.4862  -17.7947  -40.7851 C.3       6 UNK         0.1400 
     43 CB          0.9809  -17.3998  -39.3855 C.3       6 UNK        -0.1800 
     44 N          -0.0168  -16.6038  -41.4790 N.am      6 UNK        -0.5000 
     45 C          -0.5383  -16.5974  -42.7127 C.2       5 UNK         0.5000 
     46 O          -0.5338  -17.5745  -43.4613 O.2       5 UNK        -0.5000 
     47 CA         -1.1303  -15.2695  -43.2119 C.3       5 UNK         0.1400 
     48 CB         -0.0256  -14.4022  -43.8301 C.3       5 UNK        -0.1800 
     49 N          -2.1719  -15.4927  -44.2158 N.am      5 UNK        -0.5000 
     50 C          -3.3715  -16.0411  -43.9788 C.2       4 UNK         0.5000 
     51 O          -3.7663  -16.3445  -42.8512 O.2       4 UNK        -0.5000 
     52 CA         -4.2909  -16.2418  -45.2055 C.3       4 UNK         0.1400 
     53 CB         -5.6658  -16.8251  -44.8361 C.3       4 UNK        -0.1800 
     54 N          -4.4897  -14.9831  -45.9271 N.am      4 UNK        -0.5000 
     55 C          -3.6182  -14.4619  -46.7972 C.2       3 UNK         0.5000 
     56 O          -2.6035  -15.0575  -47.1656 O.2       3 UNK        -0.5000 
     57 CA         -3.9074  -13.0333  -47.2882 C.3       3 UNK         0.1400 
     58 CB         -3.9801  -12.0341  -46.1188 C.3       3 UNK        -0.1800 
     59 N          -2.8411  -12.6190  -48.1899 N.am      3 UNK        -0.5000 
     60 C          -2.9907  -11.9172  -49.3189 C.2       2 UNK         0.5000 
     61 O          -4.0664  -11.4463  -49.6907 O.2       2 UNK        -0.5000 
     62 CA         -1.7306  -11.6994  -50.1874 C.3       2 UNK         0.1400 
     63 CB         -1.2127  -10.2608  -50.0331 C.3       2 UNK        -0.1800 
     64 N          -0.6377  -12.6261  -49.8806 N.am      2 UNK        -0.5000 
     65 C          -0.6773  -13.9516  -50.0749 C.2       1 UNK         0.5000 
     66 O          -1.5992  -14.5141  -50.6653 O.2       1 UNK        -0.5000 
     67 C           2.3227  -24.2467  -47.2887 C.2       11 UNK         0.5000 
     68 O           2.6134  -25.3797  -47.6751 O.2       11 UNK        -0.5000 
     69 N           1.1291  -23.6712  -47.4950 N.am      12 UNK        -0.5000 
     70 CA          0.0807  -24.2549  -48.3331 C.3       12 UNK         0.1400 
     71 CB         -0.9095  -23.1490  -48.7289 C.3       12 UNK        -0.1800 
     72 C          -0.6657  -25.4286  -47.6761 C.2       12 UNK         0.5000 
     73 O          -1.1658  -26.2948  -48.3936 O.2       12 UNK        -0.5000 
     74 N          -0.7668  -25.4075  -46.3383 N.am      13 UNK        -0.5000 
     75 CA         -1.5575  -26.3064  -45.4866 C.3       13 UNK         0.1400 
     76 CB         -1.0338  -27.7553  -45.5686 C.3       13 UNK        -0.1800 
     77 C          -3.0784  -26.1967  -45.7431 C.2       13 UNK         0.5000 
     78 O          -3.8195  -27.1431  -45.4716 O.2       13 UNK        -0.5000 
     79 N          -3.5150  -25.0433  -46.2677 N.am      14 UNK        -0.5000 
     80 CA         -4.8781  -24.7789  -46.7242 C.3       14 UNK         0.1400 
     81 CB         -5.1201  -25.4660  -48.0852 C.3       14 UNK        -0.1800 
     82 C          -5.1521  -23.2651  -46.7704 C.2       14 UNK         0.5000 
     83 O          -5.7625  -22.7837  -47.7254 O.2       14 UNK        -0.5000 
     84 N          -4.6747  -22.5281  -45.7539 N.am      15 UNK        -0.5000 
     85 CA         -4.9120  -21.0910  -45.5365 C.3       15 UNK         0.1400 
     86 CB         -6.3863  -20.8558  -45.1441 C.3       15 UNK        -0.1800 
     87 C          -4.4685  -20.2089  -46.7253 C.2       15 UNK         0.5000 
     88 O          -5.2388  -19.3741  -47.2008 O.2       15 UNK        -0.5000 
     89 N          -3.2438  -20.4537  -47.2173 N.am      16 UNK        -0.5000 
     90 CA         -2.6321  -19.8179  -48.3943 C.3       16 UNK         0.1400 
     91 CB         -2.4274  -18.3088  -48.1546 C.3       16 UNK        -0.1800 
     92 C          -3.4102  -20.1176  -49.6946 C.2       16 UNK         0.5000 
     93 O          -3.5470  -19.2424  -50.5508 O.2       16 UNK        -0.5000 
     94 N          -3.9384  -21.3482  -49.7878 N.am      17 UNK        -0.5000 
     95 CA         -4.8584  -21.8458  -50.8164 C.3       17 UNK         0.1400 
     96 CB         -4.1677  -21.9006  -52.1954 C.3       17 UNK        -0.1800 
     97 C          -6.1733  -21.0403  -50.8227 C.2       17 UNK         0.5000 
     98 O          -6.5962  -20.5526  -51.8693 O.2       17 UNK        -0.5000 
     99 N          -6.7563  -20.8579  -49.6284 N.am      18 UNK        -0.5000 
    100 CA        -7.8996  -19.9860  -49.3257 C.3       18 UNK         0.1400 
    101 CB        -9.2001  -20.5837  -49.9000 C.3       18 UNK        -0.1800 
    102 C         -7.6573  -18.5232  -49.7661 C.2       18 UNK         0.5000 
    103 O         -8.5400  -17.8892  -50.3468 O.2       18 UNK        -0.5000 
    104 N         -6.4324  -18.0428  -49.5107 N.am      19 UNK        -0.5000 
    105 CA        -5.8611  -16.7510  -49.9033 C.3       19 UNK         0.1400 
    106 CB        -6.5852  -15.5930  -49.1863 C.3       19 UNK        -0.1800 
    107 C         -5.7324  -16.5241  -51.4287 C.2       19 UNK         0.5000 
    108 O         -5.5123  -15.3852  -51.8440 O.2       19 UNK        -0.5000 
    109 N         -5.8402  -17.5840  -52.2465 N.am      20 UNK        -0.5000 
    110 CA        -5.6319  -17.5175  -53.6979 C.3       20 UNK         0.1400 
    111 CB        -6.3603  -18.6820  -54.3853 C.3       20 UNK        -0.1800 
    112 C         -4.1404  -17.5160  -54.0878 C.2       20 UNK         0.5000 
    113 O         -3.8178  -17.0534  -55.1826 O.2       20 UNK        -0.5000 
    114 N         -3.2816  -18.0093  -53.1820 N.am      21 UNK        -0.5000 
    115 CA        -1.8262  -18.1448  -53.2553 C.3       21 UNK         0.1400 
    116 CB        -1.1373  -16.8033  -53.5740 C.3       21 UNK        -0.1800 
    117 C         -1.3426  -19.2503  -54.2125 C.2       21 UNK         0.5000 
    118 O         -1.7486  -19.3015  -55.3749 O.2       21 UNK        -0.5000 
    119 N         -0.4075  -20.0663  -53.7098 N.am      22 UNK        -0.5000 
    120 CA         0.3499  -21.0878  -54.4497 C.3       22 UNK         0.1400 
    121 C         -0.5091  -22.2702  -54.9968 C.2       22 UNK         0.5000 
    122 N          0.0289  -23.0849  -55.8948 N.am      22 UNK        -0.7600 
    123 O         -1.6425  -22.4948  -54.5796 O.2       22 UNK        -0.5000 
    124 C124        1.2991  -20.4401  -55.5058 C.3       23 UNK        -0.0398 
    125 S125        2.9262  -21.2657  -55.6026 S.3       23 UNK        -0.2404 
    126 C126        3.9441  -20.2214  -54.5047 C.3       23 UNK        -0.0205 
    127 H127        3.1721  -13.0227  -47.1274 H         1 UNK         0.0600 
    128 H128        2.3139  -13.4971  -45.6592 H         1 UNK         0.0600 
    129 H129        2.0297  -11.9069  -46.3736 H         1 UNK         0.0600 
    130 H130        2.3671  -14.1396  -48.8575 H         1 UNK         0.3000 
    131 H131        0.0012  -15.5996  -48.9375 H         1 UNK         0.0600 
    132 H132        0.6007  -15.8171  -51.4539 H         1 UNK         0.0800 
    133 H133        1.9051  -14.7179  -51.1615 H         1 UNK         0.0800 
    134 H134        0.7698  -18.6502  -49.7770 H         1 UNK         0.0800 
    135 H135        0.6091  -18.0025  -51.3821 H         1 UNK         0.0800 
    136 H136        2.4742  -18.4000  -53.0930 H         1 UNK         0.1150 
    137 H137        4.3646  -22.2267  -52.7200 H         1 UNK         0.1150 
    138 H138        2.0858  -20.6223  -49.4559 H         1 UNK         0.1150 
    139 H139        2.6017  -23.1765  -49.7842 H         1 UNK         0.0800 
    140 H140        3.8738  -23.6178  -50.8728 H         1 UNK         0.0800 
    141 H141        2.9880  -21.5585  -47.7094 H         1 UNK         0.0800 
    142 H142        4.4728  -21.5347  -46.8211 H         1 UNK         0.0800 
    143 H143        4.2540  -24.0211  -46.3870 H         1 UNK         0.0600 
    144 H144        2.7389  -21.9723  -45.1182 H         1 UNK         0.3000 
    145 H145        1.4041  -23.9554  -42.4753 H         1 UNK         0.0600 
    146 H146        3.7416  -23.4099  -41.7538 H         1 UNK         0.0600 
    147 H147        3.5826  -21.8008  -42.4478 H         1 UNK         0.0600 
    148 H148        2.5718  -22.2831  -41.0864 H         1 UNK         0.0600 
    149 H149        1.2277  -21.1722  -42.9587 H         1 UNK         0.3000 
    150 H150       -1.6266  -21.3105  -45.1647 H         1 UNK         0.0600 
    151 H151       -2.4131  -19.7174  -43.4246 H         1 UNK         0.0600 
    152 H152       -1.1621  -20.2758  -42.3204 H         1 UNK         0.0600 
    153 H153       -2.4493  -21.3675  -42.8156 H         1 UNK         0.0600 
    154 H154       -0.1079  -19.0955  -44.2556 H         1 UNK         0.3000 
    155 H155        2.3337  -19.0267  -46.8634 H         1 UNK         0.0600 
    156 H156        0.0085  -17.1758  -46.0971 H         1 UNK         0.0600 
    157 H157        0.3516  -17.7900  -47.7086 H         1 UNK         0.0600 
    158 H158        1.4808  -16.6970  -46.9368 H         1 UNK         0.0600 
    159 H159        1.8277  -17.4767  -44.4783 H         1 UNK         0.3000 
    160 H160        4.0831  -19.2254  -42.3603 H         1 UNK         0.0600 
    161 H161        5.5243  -17.7498  -43.7691 H         1 UNK         0.0600 
    162 H162        5.1101  -16.9735  -42.2491 H         1 UNK         0.0600 
    163 H163        4.2936  -16.4926  -43.7367 H         1 UNK         0.0600 
    164 H164        2.5235  -16.8383  -42.0308 H         1 UNK         0.3000 
    165 H165       -0.3600  -18.4738  -40.6621 H         1 UNK         0.0600 
    166 H166        0.1780  -16.9622  -38.7919 H         1 UNK         0.0600 
    167 H167        1.3474  -18.2708  -38.8402 H         1 UNK         0.0600 
    168 H168        1.7956  -16.6764  -39.4345 H         1 UNK         0.0600 
    169 H169       -0.0362  -15.7505  -40.9394 H         1 UNK         0.3000 
    170 H170       -1.5724  -14.7374  -42.3673 H         1 UNK         0.0600 
    171 H171       -0.4239  -13.4548  -44.1942 H         1 UNK         0.0600 
    172 H172        0.7502  -14.1692  -43.0999 H         1 UNK         0.0600 
    173 H173        0.4532  -14.9084  -44.6691 H         1 UNK         0.0600 
    174 H174       -1.9275  -15.2900  -45.1788 H         1 UNK         0.3000 
    175 H175       -3.7976  -16.9633  -45.8591 H         1 UNK         0.0600 
    176 H176       -6.2409  -16.1419  -44.2103 H         1 UNK         0.0600 
    177 H177       -6.2527  -17.0417  -45.7293 H         1 UNK         0.0600 
    178 H178       -5.5558  -17.7606  -44.2875 H         1 UNK         0.0600 
    179 H179       -5.2863  -14.4317  -45.6432 H         1 UNK         0.3000 
    180 H180       -4.8629  -13.0513  -47.8160 H         1 UNK         0.0600 
    181 H181       -4.1371  -11.0175  -46.4800 H         1 UNK         0.0600 
    182 H182       -3.0608  -12.0405  -45.5311 H         1 UNK         0.0600 
    183 H183       -4.8053  -12.2646  -45.4446 H         1 UNK         0.0600 
    184 H184       -1.9321  -13.0177  -47.9699 H         1 UNK         0.3000 
    185 H185       -2.0215  -11.8512  -51.2289 H         1 UNK         0.0600 
    186 H186       -0.8932  -10.0572  -49.0101 H         1 UNK         0.0600 
    187 H187       -0.3670  -10.0718  -50.6945 H         1 UNK         0.0600 
    188 H188       -1.9886   -9.5365  -50.2849 H         1 UNK         0.0600 
    189 H189        0.1461  -12.2481  -49.3690 H         1 UNK         0.3000 
    190 H190        0.9630  -22.7308  -47.1459 H         1 UNK         0.3000 
    191 H191        0.5423  -24.6342  -49.2475 H         1 UNK         0.0600 
    192 H192       -1.3829  -22.7084  -47.8519 H         1 UNK         0.0600 
    193 H193       -1.6987  -23.5387  -49.3735 H         1 UNK         0.0600 
    194 H194       -0.4072  -22.3514  -49.2770 H         1 UNK         0.0600 
    195 H195       -0.3483  -24.6283  -45.8368 H         1 UNK         0.3000 
    196 H196       -1.4027  -25.9637  -44.4628 H         1 UNK         0.0600 
    197 H197       -1.5068  -28.3848  -44.8142 H         1 UNK         0.0600 
    198 H198        0.0416  -27.7950  -45.3946 H         1 UNK         0.0600 
    199 H199       -1.2341  -28.2066  -46.5405 H         1 UNK         0.0600 
    200 H200       -2.8347  -24.3189  -46.4410 H         1 UNK         0.3000 
    201 H201       -5.5801  -25.1940  -45.9984 H         1 UNK         0.0600 
    202 H202       -4.9784  -26.5446  -48.0184 H         1 UNK         0.0600 
    203 H203       -4.4399  -25.0879  -48.8494 H         1 UNK         0.0600 
    204 H204       -6.1391  -25.2999  -48.4368 H         1 UNK         0.0600 
    205 H205       -4.1935  -23.0126  -45.0088 H         1 UNK         0.3000 
    206 H206       -4.2969  -20.7920  -44.6879 H         1 UNK         0.0600 
    207 H207       -6.5673  -19.8115  -44.8908 H         1 UNK         0.0600 
    208 H208       -7.0684  -21.1146  -45.9546 H         1 UNK         0.0600 
    209 H209       -6.6613  -21.4508  -44.2734 H         1 UNK         0.0600 
    210 H210       -2.6912  -21.1687  -46.7713 H         1 UNK         0.3000 
    211 H211       -1.6443  -20.2638  -48.5148 H         1 UNK         0.0600 
    212 H212       -3.3711  -17.7671  -48.1367 H         1 UNK         0.0600 
    213 H213       -1.8133  -17.8623  -48.9374 H         1 UNK         0.0600 
    214 H214       -1.9364  -18.1267  -47.2003 H         1 UNK         0.0600 
    215 H215       -3.8224  -21.9623  -48.9959 H         1 UNK         0.3000 
    216 H216       -5.1211  -22.8669  -50.5359 H         1 UNK         0.0600 
    217 H217       -4.8113  -22.3794  -52.9340 H         1 UNK         0.0600 
    218 H218       -3.2429  -22.4757  -52.1502 H         1 UNK         0.0600 
    219 H219       -3.9239  -20.9083  -52.5751 H         1 UNK         0.0600 
    220 H220       -6.3447  -21.3354  -48.8303 H         1 UNK         0.3000 
    221 H221       -7.9924  -19.9673  -48.2389 H         1 UNK         0.0600 
    222 H222       -9.1930  -20.5961  -50.9904 H         1 UNK         0.0600 
    223 H223       -9.3489  -21.6065  -49.5539 H         1 UNK         0.0600 
    224 H224      -10.0689  -20.0050  -49.5844 H         1 UNK         0.0600 
    225 H225       -5.8138  -18.6391  -48.9690 H         1 UNK         0.3000 
    226 H226       -4.8357  -16.7596  -49.5356 H         1 UNK         0.0600 
    227 H227       -6.6119  -15.7541  -48.1085 H         1 UNK         0.0600 
    228 H228       -6.0750  -14.6447  -49.3579 H         1 UNK         0.0600 
    229 H229       -7.6114  -15.4789  -49.5359 H         1 UNK         0.0600 
    230 H230       -6.0343  -18.4996  -51.8562 H         1 UNK         0.3000 
    231 H231       -6.0730  -16.5899  -54.0689 H         1 UNK         0.0600 
    232 H232       -5.8777  -19.6375  -54.1777 H         1 UNK         0.0600 
    233 H233       -7.3997  -18.7491  -54.0633 H         1 UNK         0.0600 
    234 H234       -6.3611  -18.5512  -55.4679 H         1 UNK         0.0600 
    235 H235       -3.6773  -18.3698  -52.3181 H         1 UNK         0.3000 
    236 H236       -1.5319  -18.4276  -52.2442 H         1 UNK         0.0600 
    237 H237       -1.3556  -16.4610  -54.5855 H         1 UNK         0.0600 
    238 H238       -1.4529  -16.0233  -52.8822 H         1 UNK         0.0600 
    239 H239       -0.0535  -16.8955  -53.5002 H         1 UNK         0.0600 
    240 H240       -0.1574  -19.9796  -52.7368 H         1 UNK         0.3000 
    241 H241        0.9648  -21.5493  -53.6767 H         1 UNK         0.0600 
    242 H242       -0.5109  -23.8634  -56.2397 H         1 UNK         0.3800 
    243 H243        0.9715  -22.9436  -56.2265 H         1 UNK         0.3800 
    244 H244        0.8390  -20.4319  -56.4953 H         1 UNK         0.0800 
    245 H245        1.4773  -19.3897  -55.2725 H         1 UNK         0.0800 
    246 H246        3.9287  -19.1901  -54.8609 H         1 UNK         0.0800 
    247 H247        4.9827  -20.5495  -54.5672 H         1 UNK         0.0800 
@<TRIPOS>BOND
     1    1    2 1    
     2    1  127 1    
     3    1  128 1    
     4    1  129 1    
     5    2    3 2    
     6    2    4 am   BACKBONE|DICT|INTERRES
     7    4    5 1    
     8    4  130 1    
     9    5    6 1    
    10    5   65 1    
    11    5  131 1    
    12    6    7 1    
    13    6  132 1    
    14    6  133 1    
    15    7    8 1    
    16    8    9 1    
    17    8  134 1    
    18    8  135 1    
    19    9   10 ar   
    20    9   14 ar   
    21   10   11 ar   
    22   10  136 1    
    23   11   12 ar   
    24   11  126 1    
    25   12   13 ar   
    26   12  137 1    
    27   13   14 ar   
    28   13   15 1    
    29   14  138 1    
    30   15   16 1    
    31   15  139 1    
    32   15  140 1    
    33   16   17 1    
    34   17   18 1    
    35   17  141 1    
    36   17  142 1    
    37   18   19 1    
    38   18   67 1    
    39   18  143 1    
    40   19   20 am   BACKBONE|DICT|INTERRES
    41   19  144 1    
    42   20   21 2    
    43   20   22 1    
    44   22   23 1    
    45   22   24 1    
    46   22  145 1    
    47   23  146 1    
    48   23  147 1    
    49   23  148 1    
    50   24   25 am   BACKBONE|DICT|INTERRES
    51   24  149 1    
    52   25   26 2    
    53   25   27 1    
    54   27   28 1    
    55   27   29 1    
    56   27  150 1    
    57   28  151 1    
    58   28  152 1    
    59   28  153 1    
    60   29   30 am   BACKBONE|DICT|INTERRES
    61   29  154 1    
    62   30   31 2    
    63   30   32 1    
    64   32   33 1    
    65   32   34 1    
    66   32  155 1    
    67   33  156 1    
    68   33  157 1    
    69   33  158 1    
    70   34   35 am   BACKBONE|DICT|INTERRES
    71   34  159 1    
    72   35   36 2    
    73   35   37 1    
    74   37   38 1    
    75   37   39 1    
    76   37  160 1    
    77   38  161 1    
    78   38  162 1    
    79   38  163 1    
    80   39   40 am   BACKBONE|DICT|INTERRES
    81   39  164 1    
    82   40   41 2    
    83   40   42 1    
    84   42   43 1    
    85   42   44 1    
    86   42  165 1    
    87   43  166 1    
    88   43  167 1    
    89   43  168 1    
    90   44   45 am   BACKBONE|DICT|INTERRES
    91   44  169 1    
    92   45   46 2    
    93   45   47 1    
    94   47   48 1    
    95   47   49 1    
    96   47  170 1    
    97   48  171 1    
    98   48  172 1    
    99   48  173 1    
   100   49   50 am   BACKBONE|DICT|INTERRES
   101   49  174 1    
   102   50   51 2    
   103   50   52 1    
   104   52   53 1    
   105   52   54 1    
   106   52  175 1    
   107   53  176 1    
   108   53  177 1    
   109   53  178 1    
   110   54   55 am   BACKBONE|DICT|INTERRES
   111   54  179 1    
   112   55   56 2    
   113   55   57 1    
   114   57   58 1    
   115   57   59 1    
   116   57  180 1    
   117   58  181 1    
   118   58  182 1    
   119   58  183 1    
   120   59   60 am   BACKBONE|DICT|INTERRES
   121   59  184 1    
   122   60   61 2    
   123   60   62 1    
   124   62   63 1    
   125   62   64 1    
   126   62  185 1    
   127   63  186 1    
   128   63  187 1    
   129   63  188 1    
   130   64   65 am   BACKBONE|DICT|INTERRES
   131   64  189 1    
   132   65   66 2    
   133   67   68 2    
   134   67   69 am   BACKBONE|DICT|INTERRES
   135   69   70 1    
   136   69  190 1    
   137   70   71 1    
   138   70   72 1    
   139   70  191 1    
   140   71  192 1    
   141   71  193 1    
   142   71  194 1    
   143   72   73 2    
   144   72   74 am   BACKBONE|DICT|INTERRES
   145   74   75 1    
   146   74  195 1    
   147   75   76 1    
   148   75   77 1    
   149   75  196 1    
   150   76  197 1    
   151   76  198 1    
   152   76  199 1    
   153   77   78 2    
   154   77   79 am   BACKBONE|DICT|INTERRES
   155   79   80 1    
   156   79  200 1    
   157   80   81 1    
   158   80   82 1    
   159   80  201 1    
   160   81  202 1    
   161   81  203 1    
   162   81  204 1    
   163   82   83 2    
   164   82   84 am   BACKBONE|DICT|INTERRES
   165   84   85 1    
   166   84  205 1    
   167   85   86 1    
   168   85   87 1    
   169   85  206 1    
   170   86  207 1    
   171   86  208 1    
   172   86  209 1    
   173   87   88 2    
   174   87   89 am   BACKBONE|DICT|INTERRES
   175   89   90 1    
   176   89  210 1    
   177   90   91 1    
   178   90   92 1    
   179   90  211 1    
   180   91  212 1    
   181   91  213 1    
   182   91  214 1    
   183   92   93 2    
   184   92   94 am   BACKBONE|DICT|INTERRES
   185   94   95 1    
   186   94  215 1    
   187   95   96 1    
   188   95   97 1    
   189   95  216 1    
   190   96  217 1    
   191   96  218 1    
   192   96  219 1    
   193   97   98 2    
   194   97   99 am   BACKBONE|DICT|INTERRES
   195   99  100 1    
   196   99  220 1    
   197  100  101 1    
   198  100  102 1    
   199  100  221 1    
   200  101  222 1    
   201  101  223 1    
   202  101  224 1    
   203  102  103 2    
   204  102  104 am   BACKBONE|DICT|INTERRES
   205  104  105 1    
   206  104  225 1    
   207  105  106 1    
   208  105  107 1    
   209  105  226 1    
   210  106  227 1    
   211  106  228 1    
   212  106  229 1    
   213  107  108 2    
   214  107  109 am   BACKBONE|DICT|INTERRES
   215  109  110 1    
   216  109  230 1    
   217  110  111 1    
   218  110  112 1    
   219  110  231 1    
   220  111  232 1    
   221  111  233 1    
   222  111  234 1    
   223  112  113 2    
   224  112  114 am   BACKBONE|DICT|INTERRES
   225  114  115 1    
   226  114  235 1    
   227  115  116 1    
   228  115  117 1    
   229  115  236 1    
   230  116  237 1    
   231  116  238 1    
   232  116  239 1    
   233  117  118 2    
   234  117  119 am   BACKBONE|DICT|INTERRES
   235  119  120 1    
   236  119  240 1    
   237  120  121 1    
   238  120  124 1    
   239  120  241 1    
   240  121  122 am   BACKBONE|DICT|INTERRES
   241  121  123 2    
   242  122  242 1    
   243  122  243 1    
   244  124  125 1    
   245  124  244 1    
   246  124  245 1    
   247  125  126 1    
   248  126  246 1    
   249  126  247 1    
@<TRIPOS>SUBSTRUCTURE
     1 UNK         1 GROUP             0       ****    0 ROOT    
