@<TRIPOS>MOLECULE
3R540
247   249    1
SMALL
USER_CHARGES


@<TRIPOS>ATOM
      1 CA         -6.0626  -10.7669  -45.1674 C.3       0 UNK        -0.1800 
      2 C          -4.7720  -11.0596  -45.9201 C.2       0 UNK         0.5000 
      3 O          -4.6704  -10.7396  -47.1048 O.2       0 UNK        -0.5000 
      4 N          -3.7938  -11.6595  -45.2353 N.am      1 UNK        -0.5000 
      5 CA         -2.4667  -11.9881  -45.7570 C.3       1 UNK         0.1400 
      6 C6         -2.2219  -13.5186  -45.8104 C.3       23 UNK        -0.0398 
      7 S7         -3.2755  -14.3870  -47.0179 S.3       23 UNK        -0.2404 
      8 C8         -2.2656  -14.2681  -48.5343 C.3       23 UNK        -0.0205 
      9 C9         -2.4285  -15.4761  -49.4511 C.ar      23 UNK        -0.0193 
     10 C10        -1.2997  -16.1460  -49.9336 C.ar      23 UNK        -0.1150 
     11 C11        -1.4197  -17.2389  -50.7984 C.ar      23 UNK        -0.0193 
     12 C12        -2.7030  -17.6632  -51.1740 C.ar      23 UNK        -0.1150 
     13 C13        -3.8419  -16.9994  -50.7066 C.ar      23 UNK        -0.0193 
     14 C14        -3.6968  -15.9064  -49.8492 C.ar      23 UNK        -0.1150 
     15 C15        -5.2308  -17.4262  -51.1641 C.3       23 UNK        -0.0205 
     16 S16        -5.6465  -19.1386  -50.7080 S.3       23 UNK        -0.2404 
     17 C17        -5.7417  -19.0578  -48.8858 C.3       23 UNK        -0.0398 
     18 CA         -5.1357  -20.3318  -48.2552 C.3       11 UNK         0.1400 
     19 N          -3.7087  -20.4726  -48.5600 N.am      11 UNK        -0.5000 
     20 C          -3.0019  -21.5968  -48.3982 C.2       10 UNK         0.5000 
     21 O          -3.4857  -22.6498  -47.9853 O.2       10 UNK        -0.5000 
     22 CA         -1.4972  -21.5257  -48.7077 C.3       10 UNK         0.1400 
     23 CB         -1.2648  -21.8882  -50.1779 C.3       10 UNK        -0.1800 
     24 N          -0.8869  -20.2226  -48.4235 N.am      10 UNK        -0.5000 
     25 C          -0.9124  -19.6074  -47.2340 C.2       9 UNK         0.5000 
     26 O          -1.4855  -20.0623  -46.2439 O.2       9 UNK        -0.5000 
     27 CA         -0.2056  -18.2518  -47.1292 C.3       9 UNK         0.1400 
     28 CB         -1.1153  -17.2230  -46.4423 C.3       9 UNK        -0.1800 
     29 N           1.0382  -18.3916  -46.3799 N.am      9 UNK        -0.5000 
     30 C           2.1839  -18.8575  -46.8969 C.2       8 UNK         0.5000 
     31 O           2.3073  -19.1758  -48.0804 O.2       8 UNK        -0.5000 
     32 CA          3.3989  -18.9800  -45.9552 C.3       8 UNK         0.1400 
     33 CB          4.5398  -18.0501  -46.4008 C.3       8 UNK        -0.1800 
     34 N           3.0601  -18.6755  -44.5640 N.am      8 UNK        -0.5000 
     35 C           2.7592  -19.5943  -43.6367 C.2       7 UNK         0.5000 
     36 O           2.7800  -20.8077  -43.8431 O.2       7 UNK        -0.5000 
     37 CA          2.3567  -19.0733  -42.2453 C.3       7 UNK         0.1400 
     38 CB          3.5920  -18.9420  -41.3438 C.3       7 UNK        -0.1800 
     39 N           1.6551  -17.7899  -42.3044 N.am      7 UNK        -0.5000 
     40 C           0.3966  -17.6388  -42.7394 C.2       6 UNK         0.5000 
     41 O          -0.2944  -18.5834  -43.1190 O.2       6 UNK        -0.5000 
     42 CA         -0.1793  -16.2071  -42.8097 C.3       6 UNK         0.1400 
     43 CB         -1.6773  -16.1521  -42.4478 C.3       6 UNK        -0.1800 
     44 N           0.5760  -15.2027  -42.0568 N.am      6 UNK        -0.5000 
     45 C           0.7742  -15.1272  -40.7338 C.2       5 UNK         0.5000 
     46 O           0.3216  -15.9311  -39.9170 O.2       5 UNK        -0.5000 
     47 CA          1.6583  -13.9489  -40.2741 C.3       5 UNK         0.1400 
     48 CB          2.0072  -13.9902  -38.7711 C.3       5 UNK        -0.1800 
     49 N           2.8660  -13.8186  -41.1003 N.am      5 UNK        -0.5000 
     50 C           3.8579  -14.7126  -41.2313 C.2       4 UNK         0.5000 
     51 O           3.9207  -15.7659  -40.5975 O.2       4 UNK        -0.5000 
     52 CA          4.9354  -14.3712  -42.2839 C.3       4 UNK         0.1400 
     53 CB          5.9628  -15.5047  -42.4923 C.3       4 UNK        -0.1800 
     54 N           4.3528  -13.9597  -43.5677 N.am      4 UNK        -0.5000 
     55 C           3.5405  -14.6873  -44.3489 C.2       3 UNK         0.5000 
     56 O           3.1814  -15.8382  -44.0891 O.2       3 UNK        -0.5000 
     57 CA          3.0155  -13.9827  -45.6189 C.3       3 UNK         0.1400 
     58 CB          1.9073  -14.7903  -46.3244 C.3       3 UNK        -0.1800 
     59 N           2.5378  -12.6099  -45.3989 N.am      3 UNK        -0.5000 
     60 C           1.6363  -12.2046  -44.4911 C.2       2 UNK         0.5000 
     61 O           1.2321  -12.9060  -43.5644 O.2       2 UNK        -0.5000 
     62 CA          1.0054  -10.8166  -44.7037 C.3       2 UNK         0.1400 
     63 CB          1.8940   -9.8403  -45.4988 C.3       2 UNK        -0.1800 
     64 N          -0.2472  -11.0306  -45.4254 N.am      2 UNK        -0.5000 
     65 C          -1.4102  -11.3473  -44.8420 C.2       1 UNK         0.5000 
     66 O          -1.6386  -11.2177  -43.6359 O.2       1 UNK        -0.5000 
     67 C          -5.4547  -20.4460  -46.7478 C.2       11 UNK         0.5000 
     68 O          -6.5979  -20.7504  -46.4060 O.2       11 UNK        -0.5000 
     69 N          -4.4515  -20.2443  -45.8827 N.am      12 UNK        -0.5000 
     70 CA         -4.5454  -20.4475  -44.4399 C.3       12 UNK         0.1400 
     71 CB         -3.9447  -19.2284  -43.7204 C.3       12 UNK        -0.1800 
     72 C          -3.8190  -21.7385  -44.0270 C.2       12 UNK         0.5000 
     73 O          -4.4056  -22.5769  -43.3426 O.2       12 UNK        -0.5000 
     74 N          -2.5537  -21.8725  -44.4435 N.am      13 UNK        -0.5000 
     75 CA         -1.6242  -22.9031  -43.9835 C.3       13 UNK         0.1400 
     76 CB         -0.1916  -22.4337  -44.2783 C.3       13 UNK        -0.1800 
     77 C          -1.8632  -24.2949  -44.5936 C.2       13 UNK         0.5000 
     78 O          -1.5539  -25.2921  -43.9402 O.2       13 UNK        -0.5000 
     79 N          -2.3873  -24.3454  -45.8244 N.am      14 UNK        -0.5000 
     80 CA         -2.6101  -25.5759  -46.5895 C.3       14 UNK         0.1400 
     81 CB         -1.7003  -25.5605  -47.8333 C.3       14 UNK        -0.1800 
     82 C          -4.0891  -25.7494  -46.9785 C.2       14 UNK         0.5000 
     83 O          -4.3904  -26.5808  -47.8345 O.2       14 UNK        -0.5000 
     84 N          -4.9850  -24.9439  -46.3851 N.am      15 UNK        -0.5000 
     85 CA         -6.4331  -24.8980  -46.6359 C.3       15 UNK         0.1400 
     86 CB         -7.1139  -26.1545  -46.0554 C.3       15 UNK        -0.1800 
     87 C          -6.7967  -24.6547  -48.1201 C.2       15 UNK         0.5000 
     88 O          -7.8102  -25.1627  -48.6018 O.2       15 UNK        -0.5000 
     89 N          -5.9386  -23.8937  -48.8141 N.am      16 UNK        -0.5000 
     90 CA         -5.9815  -23.5391  -50.2345 C.3       16 UNK         0.1400 
     91 CB         -7.2888  -22.8071  -50.6054 C.3       16 UNK        -0.1800 
     92 C          -5.6602  -24.6992  -51.1983 C.2       16 UNK         0.5000 
     93 O          -5.8372  -24.5331  -52.4052 O.2       16 UNK        -0.5000 
     94 N          -5.1414  -25.8297  -50.6932 N.am      17 UNK        -0.5000 
     95 CA         -4.7369  -26.9754  -51.5176 C.3       17 UNK         0.1400 
     96 CB         -4.4758  -28.1921  -50.6179 C.3       17 UNK        -0.1800 
     97 C          -3.5029  -26.6841  -52.3954 C.2       17 UNK         0.5000 
     98 O          -3.3833  -27.2497  -53.4824 O.2       17 UNK        -0.5000 
     99 N          -2.6227  -25.7970  -51.9129 N.am      18 UNK        -0.5000 
    100 CA        -1.3948  -25.3689  -52.5870 C.3       18 UNK         0.1400 
    101 CB        -0.2354  -25.4322  -51.5768 C.3       18 UNK        -0.1800 
    102 C         -1.5199  -23.9635  -53.2112 C.2       18 UNK         0.5000 
    103 O         -0.5179  -23.4257  -53.6834 O.2       18 UNK        -0.5000 
    104 N         -2.7310  -23.3810  -53.2187 N.am      19 UNK        -0.5000 
    105 CA        -3.0048  -22.0123  -53.6805 C.3       19 UNK         0.1400 
    106 CB        -4.4529  -21.6307  -53.3460 C.3       19 UNK        -0.1800 
    107 C         -2.7064  -21.7558  -55.1705 C.2       19 UNK         0.5000 
    108 O         -2.5437  -20.6007  -55.5599 O.2       19 UNK        -0.5000 
    109 N         -2.5891  -22.8239  -55.9706 N.am      20 UNK        -0.5000 
    110 CA        -2.1469  -22.7816  -57.3659 C.3       20 UNK         0.1400 
    111 CB        -2.3065  -24.1815  -57.9784 C.3       20 UNK        -0.1800 
    112 C         -0.6981  -22.2761  -57.5436 C.2       20 UNK         0.5000 
    113 O         -0.3661  -21.7767  -58.6193 O.2       20 UNK        -0.5000 
    114 N          0.1340  -22.4038  -56.4988 N.am      21 UNK        -0.5000 
    115 CA         1.5098  -21.9048  -56.4739 C.3       21 UNK         0.1400 
    116 CB         2.3180  -22.7330  -55.4623 C.3       21 UNK        -0.1800 
    117 C          1.6029  -20.4034  -56.1324 C.2       21 UNK         0.5000 
    118 O          2.6459  -19.7977  -56.3839 O.2       21 UNK        -0.5000 
    119 N          0.5412  -19.8333  -55.5487 N.am      22 UNK        -0.5000 
    120 CA         0.4649  -18.4237  -55.1372 C.3       22 UNK         0.1400 
    121 C          0.2590  -17.4652  -56.3422 C.2       22 UNK         0.5000 
    122 N          0.7802  -16.2480  -56.2666 N.am      22 UNK        -0.7600 
    123 O         -0.3966  -17.7952  -57.3282 O.2       22 UNK        -0.5000 
    124 C124       -0.6300  -18.2010  -54.0630 C.3       23 UNK        -0.0398 
    125 S125       -0.3323  -19.2017  -52.5640 S.3       23 UNK        -0.2404 
    126 C126       -0.1324  -17.9120  -51.2878 C.3       23 UNK        -0.0205 
    127 H127       -6.0126  -11.1010  -44.1308 H         1 UNK         0.0600 
    128 H128       -6.8996  -11.2740  -45.6474 H         1 UNK         0.0600 
    129 H129       -6.2644   -9.6958  -45.1701 H         1 UNK         0.0600 
    130 H130       -3.9097  -11.8353  -44.2464 H         1 UNK         0.3000 
    131 H131       -2.3350  -11.5744  -46.7591 H         1 UNK         0.0600 
    132 H132       -2.4088  -13.9645  -44.8317 H         1 UNK         0.0800 
    133 H133       -1.1781  -13.7432  -46.0354 H         1 UNK         0.0800 
    134 H134       -1.2147  -14.1459  -48.2702 H         1 UNK         0.0800 
    135 H135       -2.5516  -13.3671  -49.0783 H         1 UNK         0.0800 
    136 H136       -0.3151  -15.8091  -49.6400 H         1 UNK         0.1150 
    137 H137       -2.8357  -18.5027  -51.8404 H         1 UNK         0.1150 
    138 H138       -4.5721  -15.3805  -49.4945 H         1 UNK         0.1150 
    139 H139       -5.9971  -16.7594  -50.7658 H         1 UNK         0.0800 
    140 H140       -5.2817  -17.3342  -52.2498 H         1 UNK         0.0800 
    141 H141       -6.7936  -18.9511  -48.6148 H         1 UNK         0.0800 
    142 H142       -5.2336  -18.1664  -48.5149 H         1 UNK         0.0800 
    143 H143       -5.6429  -21.1786  -48.7128 H         1 UNK         0.0600 
    144 H144       -3.2427  -19.6526  -48.9198 H         1 UNK         0.3000 
    145 H145       -0.9978  -22.2689  -48.0829 H         1 UNK         0.0600 
    146 H146       -0.2026  -21.9531  -50.4144 H         1 UNK         0.0600 
    147 H147       -1.7144  -22.8523  -50.4131 H         1 UNK         0.0600 
    148 H148       -1.7161  -21.1515  -50.8415 H         1 UNK         0.0600 
    149 H149       -0.3674  -19.8009  -49.1788 H         1 UNK         0.3000 
    150 H150        0.0187  -17.8839  -48.1304 H         1 UNK         0.0600 
    151 H151       -2.0764  -17.1584  -46.9534 H         1 UNK         0.0600 
    152 H152       -0.6743  -16.2290  -46.4619 H         1 UNK         0.0600 
    153 H153       -1.3210  -17.4858  -45.4053 H         1 UNK         0.0600 
    154 H154        0.9896  -18.2377  -45.3837 H         1 UNK         0.3000 
    155 H155        3.7609  -20.0070  -46.0348 H         1 UNK         0.0600 
    156 H156        4.2446  -17.0021  -46.3776 H         1 UNK         0.0600 
    157 H157        4.8569  -18.2785  -47.4190 H         1 UNK         0.0600 
    158 H158        5.4122  -18.1636  -45.7570 H         1 UNK         0.0600 
    159 H159        3.0430  -17.6898  -44.3075 H         1 UNK         0.3000 
    160 H160        1.6866  -19.8091  -41.7953 H         1 UNK         0.0600 
    161 H161        4.3135  -18.2344  -41.7527 H         1 UNK         0.0600 
    162 H162        4.0993  -19.9013  -41.2343 H         1 UNK         0.0600 
    163 H163        3.3179  -18.6018  -40.3450 H         1 UNK         0.0600 
    164 H164        2.1827  -16.9661  -42.0468 H         1 UNK         0.3000 
    165 H165       -0.0898  -15.9078  -43.8535 H         1 UNK         0.0600 
    166 H166       -1.8633  -16.5222  -41.4393 H         1 UNK         0.0600 
    167 H167       -2.0611  -15.1338  -42.5088 H         1 UNK         0.0600 
    168 H168       -2.2691  -16.7599  -43.1325 H         1 UNK         0.0600 
    169 H169        0.9754  -14.4569  -42.6244 H         1 UNK         0.3000 
    170 H170        1.0715  -13.0455  -40.4479 H         1 UNK         0.0600 
    171 H171        1.1034  -13.9539  -38.1621 H         1 UNK         0.0600 
    172 H172        2.5443  -14.8995  -38.5004 H         1 UNK         0.0600 
    173 H173        2.6245  -13.1383  -38.4864 H         1 UNK         0.0600 
    174 H174        2.8752  -13.0193  -41.7186 H         1 UNK         0.3000 
    175 H175        5.4761  -13.5071  -41.8952 H         1 UNK         0.0600 
    176 H176        5.4965  -16.4149  -42.8697 H         1 UNK         0.0600 
    177 H177        6.7356  -15.2083  -43.2013 H         1 UNK         0.0600 
    178 H178        6.4620  -15.7573  -41.5562 H         1 UNK         0.0600 
    179 H179        4.5638  -13.0168  -43.8632 H         1 UNK         0.3000 
    180 H180        3.8634  -13.9159  -46.3020 H         1 UNK         0.0600 
    181 H181        1.0434  -14.9197  -45.6749 H         1 UNK         0.0600 
    182 H182        2.2560  -15.7808  -46.6121 H         1 UNK         0.0600 
    183 H183        1.5707  -14.2927  -47.2337 H         1 UNK         0.0600 
    184 H184        2.8254  -11.9394  -46.0979 H         1 UNK         0.3000 
    185 H185        0.8121  -10.3812  -43.7210 H         1 UNK         0.0600 
    186 H186        2.0591  -10.1675  -46.5259 H         1 UNK         0.0600 
    187 H187        1.4354   -8.8522  -45.5424 H         1 UNK         0.0600 
    188 H188        2.8684   -9.7202  -45.0232 H         1 UNK         0.0600 
    189 H189       -0.1573  -11.1632  -46.4226 H         1 UNK         0.3000 
    190 H190       -3.5256  -20.0429  -46.2426 H         1 UNK         0.3000 
    191 H191       -5.5879  -20.5373  -44.1276 H         1 UNK         0.0600 
    192 H192       -3.9797  -19.3550  -42.6378 H         1 UNK         0.0600 
    193 H193       -4.4964  -18.3196  -43.9606 H         1 UNK         0.0600 
    194 H194       -2.9024  -19.0666  -43.9977 H         1 UNK         0.0600 
    195 H195       -2.1470  -21.1407  -45.0251 H         1 UNK         0.3000 
    196 H196       -1.7312  -22.9963  -42.9006 H         1 UNK         0.0600 
    197 H197       -0.0153  -22.3236  -45.3491 H         1 UNK         0.0600 
    198 H198        0.0105  -21.4707  -43.8083 H         1 UNK         0.0600 
    199 H199        0.5430  -23.1428  -43.8948 H         1 UNK         0.0600 
    200 H200       -2.6417  -23.4845  -46.2951 H         1 UNK         0.3000 
    201 H201       -2.3495  -26.4531  -45.9946 H         1 UNK         0.0600 
    202 H202       -1.9662  -24.7583  -48.5209 H         1 UNK         0.0600 
    203 H203       -1.7703  -26.4990  -48.3847 H         1 UNK         0.0600 
    204 H204       -0.6548  -25.4289  -47.5547 H         1 UNK         0.0600 
    205 H205       -4.6365  -24.2891  -45.6995 H         1 UNK         0.3000 
    206 H206       -6.8104  -24.0327  -46.0888 H         1 UNK         0.0600 
    207 H207       -6.8564  -26.2923  -45.0053 H         1 UNK         0.0600 
    208 H208       -8.2000  -26.0754  -46.1134 H         1 UNK         0.0600 
    209 H209       -6.8217  -27.0568  -46.5937 H         1 UNK         0.0600 
    210 H210       -5.1128  -23.5587  -48.3233 H         1 UNK         0.3000 
    211 H211       -5.1667  -22.8282  -50.3670 H         1 UNK         0.0600 
    212 H212       -7.2131  -22.3535  -51.5944 H         1 UNK         0.0600 
    213 H213       -7.5150  -22.0061  -49.9023 H         1 UNK         0.0600 
    214 H214       -8.1418  -23.4855  -50.6256 H         1 UNK         0.0600 
    215 H215       -5.0203  -25.9253  -49.6899 H         1 UNK         0.3000 
    216 H216       -5.5668  -27.2208  -52.1836 H         1 UNK         0.0600 
    217 H217       -3.6215  -28.0302  -49.9597 H         1 UNK         0.0600 
    218 H218       -4.2640  -29.0798  -51.2152 H         1 UNK         0.0600 
    219 H219       -5.3418  -28.4173  -49.9951 H         1 UNK         0.0600 
    220 H220       -2.8091  -25.3891  -51.0089 H         1 UNK         0.3000 
    221 H221       -1.1565  -26.0509  -53.4055 H         1 UNK         0.0600 
    222 H222       -0.1129  -26.4425  -51.1860 H         1 UNK         0.0600 
    223 H223       -0.3940  -24.7666  -50.7291 H         1 UNK         0.0600 
    224 H224        0.7104  -25.1515  -52.0421 H         1 UNK         0.0600 
    225 H225       -3.5224  -23.9084  -52.8777 H         1 UNK         0.3000 
    226 H226       -2.3496  -21.3453  -53.1194 H         1 UNK         0.0600 
    227 H227       -5.1683  -22.2951  -53.8314 H         1 UNK         0.0600 
    228 H228       -4.6287  -21.6641  -52.2726 H         1 UNK         0.0600 
    229 H229       -4.6764  -20.6135  -53.6709 H         1 UNK         0.0600 
    230 H230       -2.7417  -23.7373  -55.5698 H         1 UNK         0.3000 
    231 H231       -2.8019  -22.0936  -57.9044 H         1 UNK         0.0600 
    232 H232       -1.6888  -24.9183  -57.4634 H         1 UNK         0.0600 
    233 H233       -2.0135  -24.1842  -59.0292 H         1 UNK         0.0600 
    234 H234       -3.3424  -24.5180  -57.9309 H         1 UNK         0.0600 
    235 H235       -0.2078  -22.8174  -55.6373 H         1 UNK         0.3000 
    236 H236        1.9583  -22.0476  -57.4593 H         1 UNK         0.0600 
    237 H237        2.2761  -23.7966  -55.6976 H         1 UNK         0.0600 
    238 H238        3.3685  -22.4397  -55.4684 H         1 UNK         0.0600 
    239 H239        1.9474  -22.5988  -54.4454 H         1 UNK         0.0600 
    240 H240       -0.3058  -20.3726  -55.4329 H         1 UNK         0.3000 
    241 H241        1.4237  -18.1677  -54.6813 H         1 UNK         0.0600 
    242 H242        0.6441  -15.6097  -57.0355 H         1 UNK         0.3800 
    243 H243        1.3203  -15.9495  -55.4689 H         1 UNK         0.3800 
    244 H244       -1.6160  -18.4492  -54.4562 H         1 UNK         0.0800 
    245 H245       -0.6805  -17.1471  -53.7841 H         1 UNK         0.0800 
    246 H246        0.5513  -17.1507  -51.6666 H         1 UNK         0.0800 
    247 H247        0.3710  -18.3656  -50.4347 H         1 UNK         0.0800 
@<TRIPOS>BOND
     1    1    2 1    
     2    1  127 1    
     3    1  128 1    
     4    1  129 1    
     5    2    3 2    
     6    2    4 am   BACKBONE|DICT|INTERRES
     7    4    5 1    
     8    4  130 1    
     9    5    6 1    
    10    5   65 1    
    11    5  131 1    
    12    6    7 1    
    13    6  132 1    
    14    6  133 1    
    15    7    8 1    
    16    8    9 1    
    17    8  134 1    
    18    8  135 1    
    19    9   10 ar   
    20    9   14 ar   
    21   10   11 ar   
    22   10  136 1    
    23   11   12 ar   
    24   11  126 1    
    25   12   13 ar   
    26   12  137 1    
    27   13   14 ar   
    28   13   15 1    
    29   14  138 1    
    30   15   16 1    
    31   15  139 1    
    32   15  140 1    
    33   16   17 1    
    34   17   18 1    
    35   17  141 1    
    36   17  142 1    
    37   18   19 1    
    38   18   67 1    
    39   18  143 1    
    40   19   20 am   BACKBONE|DICT|INTERRES
    41   19  144 1    
    42   20   21 2    
    43   20   22 1    
    44   22   23 1    
    45   22   24 1    
    46   22  145 1    
    47   23  146 1    
    48   23  147 1    
    49   23  148 1    
    50   24   25 am   BACKBONE|DICT|INTERRES
    51   24  149 1    
    52   25   26 2    
    53   25   27 1    
    54   27   28 1    
    55   27   29 1    
    56   27  150 1    
    57   28  151 1    
    58   28  152 1    
    59   28  153 1    
    60   29   30 am   BACKBONE|DICT|INTERRES
    61   29  154 1    
    62   30   31 2    
    63   30   32 1    
    64   32   33 1    
    65   32   34 1    
    66   32  155 1    
    67   33  156 1    
    68   33  157 1    
    69   33  158 1    
    70   34   35 am   BACKBONE|DICT|INTERRES
    71   34  159 1    
    72   35   36 2    
    73   35   37 1    
    74   37   38 1    
    75   37   39 1    
    76   37  160 1    
    77   38  161 1    
    78   38  162 1    
    79   38  163 1    
    80   39   40 am   BACKBONE|DICT|INTERRES
    81   39  164 1    
    82   40   41 2    
    83   40   42 1    
    84   42   43 1    
    85   42   44 1    
    86   42  165 1    
    87   43  166 1    
    88   43  167 1    
    89   43  168 1    
    90   44   45 am   BACKBONE|DICT|INTERRES
    91   44  169 1    
    92   45   46 2    
    93   45   47 1    
    94   47   48 1    
    95   47   49 1    
    96   47  170 1    
    97   48  171 1    
    98   48  172 1    
    99   48  173 1    
   100   49   50 am   BACKBONE|DICT|INTERRES
   101   49  174 1    
   102   50   51 2    
   103   50   52 1    
   104   52   53 1    
   105   52   54 1    
   106   52  175 1    
   107   53  176 1    
   108   53  177 1    
   109   53  178 1    
   110   54   55 am   BACKBONE|DICT|INTERRES
   111   54  179 1    
   112   55   56 2    
   113   55   57 1    
   114   57   58 1    
   115   57   59 1    
   116   57  180 1    
   117   58  181 1    
   118   58  182 1    
   119   58  183 1    
   120   59   60 am   BACKBONE|DICT|INTERRES
   121   59  184 1    
   122   60   61 2    
   123   60   62 1    
   124   62   63 1    
   125   62   64 1    
   126   62  185 1    
   127   63  186 1    
   128   63  187 1    
   129   63  188 1    
   130   64   65 am   BACKBONE|DICT|INTERRES
   131   64  189 1    
   132   65   66 2    
   133   67   68 2    
   134   67   69 am   BACKBONE|DICT|INTERRES
   135   69   70 1    
   136   69  190 1    
   137   70   71 1    
   138   70   72 1    
   139   70  191 1    
   140   71  192 1    
   141   71  193 1    
   142   71  194 1    
   143   72   73 2    
   144   72   74 am   BACKBONE|DICT|INTERRES
   145   74   75 1    
   146   74  195 1    
   147   75   76 1    
   148   75   77 1    
   149   75  196 1    
   150   76  197 1    
   151   76  198 1    
   152   76  199 1    
   153   77   78 2    
   154   77   79 am   BACKBONE|DICT|INTERRES
   155   79   80 1    
   156   79  200 1    
   157   80   81 1    
   158   80   82 1    
   159   80  201 1    
   160   81  202 1    
   161   81  203 1    
   162   81  204 1    
   163   82   83 2    
   164   82   84 am   BACKBONE|DICT|INTERRES
   165   84   85 1    
   166   84  205 1    
   167   85   86 1    
   168   85   87 1    
   169   85  206 1    
   170   86  207 1    
   171   86  208 1    
   172   86  209 1    
   173   87   88 2    
   174   87   89 am   BACKBONE|DICT|INTERRES
   175   89   90 1    
   176   89  210 1    
   177   90   91 1    
   178   90   92 1    
   179   90  211 1    
   180   91  212 1    
   181   91  213 1    
   182   91  214 1    
   183   92   93 2    
   184   92   94 am   BACKBONE|DICT|INTERRES
   185   94   95 1    
   186   94  215 1    
   187   95   96 1    
   188   95   97 1    
   189   95  216 1    
   190   96  217 1    
   191   96  218 1    
   192   96  219 1    
   193   97   98 2    
   194   97   99 am   BACKBONE|DICT|INTERRES
   195   99  100 1    
   196   99  220 1    
   197  100  101 1    
   198  100  102 1    
   199  100  221 1    
   200  101  222 1    
   201  101  223 1    
   202  101  224 1    
   203  102  103 2    
   204  102  104 am   BACKBONE|DICT|INTERRES
   205  104  105 1    
   206  104  225 1    
   207  105  106 1    
   208  105  107 1    
   209  105  226 1    
   210  106  227 1    
   211  106  228 1    
   212  106  229 1    
   213  107  108 2    
   214  107  109 am   BACKBONE|DICT|INTERRES
   215  109  110 1    
   216  109  230 1    
   217  110  111 1    
   218  110  112 1    
   219  110  231 1    
   220  111  232 1    
   221  111  233 1    
   222  111  234 1    
   223  112  113 2    
   224  112  114 am   BACKBONE|DICT|INTERRES
   225  114  115 1    
   226  114  235 1    
   227  115  116 1    
   228  115  117 1    
   229  115  236 1    
   230  116  237 1    
   231  116  238 1    
   232  116  239 1    
   233  117  118 2    
   234  117  119 am   BACKBONE|DICT|INTERRES
   235  119  120 1    
   236  119  240 1    
   237  120  121 1    
   238  120  124 1    
   239  120  241 1    
   240  121  122 am   BACKBONE|DICT|INTERRES
   241  121  123 2    
   242  122  242 1    
   243  122  243 1    
   244  124  125 1    
   245  124  244 1    
   246  124  245 1    
   247  125  126 1    
   248  126  246 1    
   249  126  247 1    
@<TRIPOS>SUBSTRUCTURE
     1 UNK         1 GROUP             0       ****    0 ROOT    
