@<TRIPOS>MOLECULE
3R540
247   249    1
SMALL
USER_CHARGES


@<TRIPOS>ATOM
      1 CA          1.0341  -10.6137  -50.0856 C.3       0 UNK        -0.1800 
      2 C           2.2427  -11.0179  -49.2535 C.2       0 UNK         0.5000 
      3 O           2.8460  -10.1722  -48.5937 O.2       0 UNK        -0.5000 
      4 N           2.5922  -12.3103  -49.2763 N.am      1 UNK        -0.5000 
      5 CA          3.7116  -12.8976  -48.5267 C.3       1 UNK         0.1400 
      6 C6          4.2077  -14.2172  -49.1781 C.3       23 UNK        -0.0398 
      7 S7          3.0126  -15.6006  -49.1185 S.3       23 UNK        -0.2404 
      8 C8          2.1515  -15.4340  -50.7178 C.3       23 UNK        -0.0205 
      9 C9          0.7203  -15.9465  -50.6326 C.ar      23 UNK        -0.0193 
     10 C10         0.2638  -16.9421  -51.5033 C.ar      23 UNK        -0.1150 
     11 C11        -1.0490  -17.4167  -51.4112 C.ar      23 UNK        -0.0193 
     12 C12        -1.9017  -16.8954  -50.4355 C.ar      23 UNK        -0.1150 
     13 C13        -1.4597  -15.9001  -49.5649 C.ar      23 UNK        -0.0193 
     14 C14        -0.1543  -15.4191  -49.6770 C.ar      23 UNK        -0.1150 
     15 C15        -2.3778  -15.3611  -48.4840 C.3       23 UNK        -0.0205 
     16 S16        -2.1181  -16.2536  -46.9232 S.3       23 UNK        -0.2404 
     17 C17        -3.2439  -17.6846  -47.0795 C.3       23 UNK        -0.0398 
     18 CA         -2.5945  -19.0010  -47.5907 C.3       11 UNK         0.1400 
     19 N          -1.2824  -19.2820  -47.0011 N.am      11 UNK        -0.5000 
     20 C          -0.4569  -20.2590  -47.4078 C.2       10 UNK         0.5000 
     21 O          -0.7041  -21.0207  -48.3421 O.2       10 UNK        -0.5000 
     22 CA          0.8447  -20.4549  -46.6106 C.3       10 UNK         0.1400 
     23 CB          1.9666  -19.5930  -47.2083 C.3       10 UNK        -0.1800 
     24 N           0.6873  -20.1556  -45.1858 N.am      10 UNK        -0.5000 
     25 C          -0.1065  -20.8468  -44.3503 C.2       9 UNK         0.5000 
     26 O          -0.7368  -21.8477  -44.6912 O.2       9 UNK        -0.5000 
     27 CA         -0.2735  -20.3145  -42.9110 C.3       9 UNK         0.1400 
     28 CB          0.6738  -21.0488  -41.9522 C.3       9 UNK        -0.1800 
     29 N          -0.0505  -18.8736  -42.7930 N.am      9 UNK        -0.5000 
     30 C          -0.7542  -17.9305  -43.4345 C.2       8 UNK         0.5000 
     31 O          -1.7582  -18.1777  -44.1028 O.2       8 UNK        -0.5000 
     32 CA         -0.2157  -16.4862  -43.3724 C.3       8 UNK         0.1400 
     33 CB         -1.0447  -15.6474  -42.3897 C.3       8 UNK        -0.1800 
     34 N           1.2046  -16.3877  -43.0141 N.am      8 UNK        -0.5000 
     35 C           2.2255  -16.9098  -43.7113 C.2       7 UNK         0.5000 
     36 O           2.0802  -17.5355  -44.7592 O.2       7 UNK        -0.5000 
     37 CA          3.6329  -16.7631  -43.1089 C.3       7 UNK         0.1400 
     38 CB          4.2790  -15.4344  -43.5244 C.3       7 UNK        -0.1800 
     39 N           3.6016  -16.8578  -41.6500 N.am      7 UNK        -0.5000 
     40 C           3.6007  -18.0118  -40.9683 C.2       6 UNK         0.5000 
     41 O           3.6880  -19.1182  -41.4999 O.2       6 UNK        -0.5000 
     42 CA          3.4644  -17.9185  -39.4360 C.3       6 UNK         0.1400 
     43 CB          4.8499  -17.8392  -38.7772 C.3       6 UNK        -0.1800 
     44 N           2.6626  -16.7733  -39.0022 N.am      6 UNK        -0.5000 
     45 C           1.3416  -16.6522  -39.1943 C.2       5 UNK         0.5000 
     46 O           0.6438  -17.5229  -39.7142 O.2       5 UNK        -0.5000 
     47 CA          0.7035  -15.3121  -38.7739 C.3       5 UNK         0.1400 
     48 CB          0.2164  -15.3832  -37.3190 C.3       5 UNK        -0.1800 
     49 N           1.5899  -14.1517  -38.9306 N.am      5 UNK        -0.5000 
     50 C           2.1394  -13.7567  -40.0863 C.2       4 UNK         0.5000 
     51 O           1.9882  -14.3577  -41.1541 O.2       4 UNK        -0.5000 
     52 CA          3.0452  -12.5193  -40.0347 C.3       4 UNK         0.1400 
     53 CB          4.3811  -12.8414  -39.3413 C.3       4 UNK        -0.1800 
     54 N           3.2989  -12.0849  -41.4024 N.am      4 UNK        -0.5000 
     55 C           3.5933  -10.8447  -41.8032 C.2       3 UNK         0.5000 
     56 O           3.7240   -9.8927  -41.0324 O.2       3 UNK        -0.5000 
     57 CA          3.7824  -10.6250  -43.3189 C.3       3 UNK         0.1400 
     58 CB          5.2740  -10.4760  -43.6566 C.3       3 UNK        -0.1800 
     59 N           3.2247  -11.6962  -44.1493 N.am      3 UNK        -0.5000 
     60 C           1.9232  -11.9163  -44.3664 C.2       2 UNK         0.5000 
     61 O           1.0301  -11.2216  -43.8791 O.2       2 UNK        -0.5000 
     62 CA          1.5757  -13.1037  -45.2920 C.3       2 UNK         0.1400 
     63 CB          0.0594  -13.3288  -45.4172 C.3       2 UNK        -0.1800 
     64 N           2.1220  -12.9552  -46.6409 N.am      2 UNK        -0.5000 
     65 C           3.4043  -13.0647  -47.0186 C.2       1 UNK         0.5000 
     66 O           4.3272  -13.2854  -46.2335 O.2       1 UNK        -0.5000 
     67 C          -3.5519  -20.1835  -47.3503 C.2       11 UNK         0.5000 
     68 O          -4.1879  -20.6693  -48.2862 O.2       11 UNK        -0.5000 
     69 N          -3.5918  -20.6460  -46.0915 N.am      12 UNK        -0.5000 
     70 CA         -4.3779  -21.7933  -45.6461 C.3       12 UNK         0.1400 
     71 CB         -4.3219  -21.8925  -44.1142 C.3       12 UNK        -0.1800 
     72 C          -3.9191  -23.1049  -46.3025 C.2       12 UNK         0.5000 
     73 O          -4.7636  -23.8750  -46.7563 O.2       12 UNK        -0.5000 
     74 N          -2.5970  -23.3142  -46.3813 N.am      13 UNK        -0.5000 
     75 CA         -1.9778  -24.4638  -47.0404 C.3       13 UNK         0.1400 
     76 CB         -0.4599  -24.4430  -46.8085 C.3       13 UNK        -0.1800 
     77 C          -2.3025  -24.5327  -48.5424 C.2       13 UNK         0.5000 
     78 O          -2.7016  -25.5929  -49.0223 O.2       13 UNK        -0.5000 
     79 N          -2.1716  -23.3988  -49.2463 N.am      14 UNK        -0.5000 
     80 CA         -2.5040  -23.2641  -50.6654 C.3       14 UNK         0.1400 
     81 CB         -2.0685  -21.8809  -51.1656 C.3       14 UNK        -0.1800 
     82 C          -3.9965  -23.4936  -50.9555 C.2       14 UNK         0.5000 
     83 O          -4.3257  -24.1531  -51.9422 O.2       14 UNK        -0.5000 
     84 N          -4.8687  -22.9693  -50.0822 N.am      15 UNK        -0.5000 
     85 CA         -6.3157  -23.1728  -50.1402 C.3       15 UNK         0.1400 
     86 CB         -7.0112  -22.2255  -49.1515 C.3       15 UNK        -0.1800 
     87 C          -6.7191  -24.6364  -49.8824 C.2       15 UNK         0.5000 
     88 O          -7.5431  -25.1718  -50.6237 O.2       15 UNK        -0.5000 
     89 N          -6.1140  -25.2656  -48.8643 N.am      16 UNK        -0.5000 
     90 CA         -6.3369  -26.6661  -48.4960 C.3       16 UNK         0.1400 
     91 CB         -5.6690  -26.9577  -47.1437 C.3       16 UNK        -0.1800 
     92 C          -5.8434  -27.6548  -49.5672 C.2       16 UNK         0.5000 
     93 O          -6.5296  -28.6381  -49.8487 O.2       16 UNK        -0.5000 
     94 N          -4.6787  -27.3645  -50.1625 N.am      17 UNK        -0.5000 
     95 CA         -4.1009  -28.1238  -51.2730 C.3       17 UNK         0.1400 
     96 CB         -2.6198  -27.7410  -51.4204 C.3       17 UNK        -0.1800 
     97 C          -4.8352  -27.9034  -52.6098 C.2       17 UNK         0.5000 
     98 O          -4.6801  -28.7215  -53.5172 O.2       17 UNK        -0.5000 
     99 N          -5.5916  -26.7990  -52.7097 N.am      18 UNK        -0.5000 
    100 CA        -6.2544  -26.2709  -53.9048 C.3       18 UNK         0.1400 
    101 CB        -7.3903  -27.2051  -54.3697 C.3       18 UNK        -0.1800 
    102 C         -5.2282  -25.9509  -55.0095 C.2       18 UNK         0.5000 
    103 O         -5.3702  -26.3971  -56.1501 O.2       18 UNK        -0.5000 
    104 N         -4.1845  -25.2021  -54.6287 N.am      19 UNK        -0.5000 
    105 CA        -2.9960  -24.8804  -55.4232 C.3       19 UNK         0.1400 
    106 CB        -1.8775  -24.4455  -54.4587 C.3       19 UNK        -0.1800 
    107 C         -3.2528  -23.8438  -56.5413 C.2       19 UNK         0.5000 
    108 O         -2.5312  -22.8508  -56.6423 O.2       19 UNK        -0.5000 
    109 N         -4.2858  -24.0914  -57.3569 N.am      20 UNK        -0.5000 
    110 CA        -4.7799  -23.3357  -58.5168 C.3       20 UNK         0.1400 
    111 CB        -3.6985  -23.2170  -59.6078 C.3       20 UNK        -0.1800 
    112 C         -5.3959  -21.9575  -58.1985 C.2       20 UNK         0.5000 
    113 O         -6.3497  -21.5616  -58.8703 O.2       20 UNK        -0.5000 
    114 N         -4.8681  -21.2556  -57.1933 N.am      21 UNK        -0.5000 
    115 CA        -5.3009  -19.9402  -56.7390 C.3       21 UNK         0.1400 
    116 CB        -4.7011  -18.8567  -57.6567 C.3       21 UNK        -0.1800 
    117 C         -4.8689  -19.7343  -55.2787 C.2       21 UNK         0.5000 
    118 O         -4.1220  -20.5532  -54.7373 O.2       21 UNK        -0.5000 
    119 N         -5.3578  -18.6369  -54.6871 N.am      22 UNK        -0.5000 
    120 CA        -5.0465  -18.0396  -53.3703 C.3       22 UNK         0.1400 
    121 C         -5.1149  -18.9267  -52.0881 C.2       22 UNK         0.5000 
    122 N         -5.1437  -20.2463  -52.1764 N.am      22 UNK        -0.7600 
    123 O         -5.1816  -18.3942  -50.9844 O.2       22 UNK        -0.5000 
    124 C124       -3.7952  -17.1129  -53.3971 C.3       23 UNK        -0.0398 
    125 S125       -2.2117  -17.8803  -53.9029 S.3       23 UNK        -0.2404 
    126 C126       -1.5392  -18.5192  -52.3361 C.3       23 UNK        -0.0205 
    127 H127        1.3235   -9.8744  -50.8325 H         1 UNK         0.0600 
    128 H128        0.2691  -10.1729  -49.4465 H         1 UNK         0.0600 
    129 H129        0.5941  -11.4663  -50.6037 H         1 UNK         0.0600 
    130 H130        2.0554  -12.9578  -49.8334 H         1 UNK         0.3000 
    131 H131        4.5436  -12.1920  -48.5825 H         1 UNK         0.0600 
    132 H132        4.4948  -14.0355  -50.2147 H         1 UNK         0.0800 
    133 H133        5.1213  -14.5495  -48.6822 H         1 UNK         0.0800 
    134 H134        2.7167  -15.9769  -51.4769 H         1 UNK         0.0800 
    135 H135        2.1278  -14.3934  -51.0393 H         1 UNK         0.0800 
    136 H136        0.9291  -17.3534  -52.2495 H         1 UNK         0.1150 
    137 H137       -2.9092  -17.2735  -50.3426 H         1 UNK         0.1150 
    138 H138        0.1909  -14.6548  -48.9954 H         1 UNK         0.1150 
    139 H139       -2.1678  -14.3030  -48.3208 H         1 UNK         0.0800 
    140 H140       -3.4226  -15.4190  -48.7925 H         1 UNK         0.0800 
    141 H141       -4.0858  -17.4151  -47.7193 H         1 UNK         0.0800 
    142 H142       -3.6695  -17.8301  -46.0849 H         1 UNK         0.0800 
    143 H143       -2.4499  -18.9166  -48.6681 H         1 UNK         0.0600 
    144 H144       -1.0262  -18.7157  -46.2033 H         1 UNK         0.3000 
    145 H145        1.1394  -21.5020  -46.6986 H         1 UNK         0.0600 
    146 H146        2.8982  -19.7130  -46.6552 H         1 UNK         0.0600 
    147 H147        2.1625  -19.8747  -48.2436 H         1 UNK         0.0600 
    148 H148        1.7069  -18.5334  -47.2051 H         1 UNK         0.0600 
    149 H149        1.1584  -19.3213  -44.8501 H         1 UNK         0.3000 
    150 H150       -1.3011  -20.5170  -42.6026 H         1 UNK         0.0600 
    151 H151        0.4879  -22.1235  -41.9676 H         1 UNK         0.0600 
    152 H152        0.5393  -20.7093  -40.9248 H         1 UNK         0.0600 
    153 H153        1.7185  -20.8928  -42.2235 H         1 UNK         0.0600 
    154 H154        0.7407  -18.5790  -42.2386 H         1 UNK         0.3000 
    155 H155       -0.3281  -16.0597  -44.3699 H         1 UNK         0.0600 
    156 H156       -1.0496  -16.0906  -41.3944 H         1 UNK         0.0600 
    157 H157       -2.0816  -15.5774  -42.7204 H         1 UNK         0.0600 
    158 H158       -0.6597  -14.6312  -42.3041 H         1 UNK         0.0600 
    159 H159        1.4222  -15.8378  -42.1880 H         1 UNK         0.3000 
    160 H160        4.2512  -17.5707  -43.5072 H         1 UNK         0.0600 
    161 H161        5.2901  -15.3461  -43.1272 H         1 UNK         0.0600 
    162 H162        3.7080  -14.5745  -43.1779 H         1 UNK         0.0600 
    163 H163        4.3512  -15.3687  -44.6101 H         1 UNK         0.0600 
    164 H164        3.4629  -15.9935  -41.1450 H         1 UNK         0.3000 
    165 H165        2.9726  -18.8306  -39.0909 H         1 UNK         0.0600 
    166 H166        4.7707  -17.8467  -37.6899 H         1 UNK         0.0600 
    167 H167        5.4671  -18.6921  -39.0627 H         1 UNK         0.0600 
    168 H168        5.3844  -16.9344  -39.0696 H         1 UNK         0.0600 
    169 H169        3.1552  -16.0121  -38.5590 H         1 UNK         0.3000 
    170 H170       -0.1654  -15.1475  -39.4130 H         1 UNK         0.0600 
    171 H171       -0.4648  -16.2231  -37.1757 H         1 UNK         0.0600 
    172 H172        1.0458  -15.5104  -36.6222 H         1 UNK         0.0600 
    173 H173       -0.3232  -14.4785  -37.0385 H         1 UNK         0.0600 
    174 H174        1.7710  -13.6132  -38.0956 H         1 UNK         0.3000 
    175 H175        2.5203  -11.7319  -39.4900 H         1 UNK         0.0600 
    176 H176        4.2260  -13.1627  -38.3108 H         1 UNK         0.0600 
    177 H177        5.0302  -11.9661  -39.3100 H         1 UNK         0.0600 
    178 H178        4.9199  -13.6369  -39.8579 H         1 UNK         0.0600 
    179 H179        3.1364  -12.7998  -42.0985 H         1 UNK         0.3000 
    180 H180        3.2776   -9.6924  -43.5790 H         1 UNK         0.0600 
    181 H181        5.8293  -11.3872  -43.4303 H         1 UNK         0.0600 
    182 H182        5.7267   -9.6642  -43.0857 H         1 UNK         0.0600 
    183 H183        5.4183  -10.2488  -44.7131 H         1 UNK         0.0600 
    184 H184        3.8873  -12.2829  -44.6492 H         1 UNK         0.3000 
    185 H185        2.0065  -14.0009  -44.8457 H         1 UNK         0.0600 
    186 H186       -0.3990  -13.4804  -44.4400 H         1 UNK         0.0600 
    187 H187       -0.4383  -12.4785  -45.8848 H         1 UNK         0.0600 
    188 H188       -0.1545  -14.2121  -46.0179 H         1 UNK         0.0600 
    189 H189        1.4524  -12.7336  -47.3616 H         1 UNK         0.3000 
    190 H190       -3.0079  -20.1994  -45.3981 H         1 UNK         0.3000 
    191 H191       -5.4156  -21.6201  -45.9385 H         1 UNK         0.0600 
    192 H192       -3.3045  -22.0482  -43.7544 H         1 UNK         0.0600 
    193 H193       -4.9271  -22.7264  -43.7565 H         1 UNK         0.0600 
    194 H194       -4.7076  -20.9867  -43.6461 H         1 UNK         0.0600 
    195 H195       -1.9681  -22.6526  -45.9347 H         1 UNK         0.3000 
    196 H196       -2.3785  -25.3657  -46.5732 H         1 UNK         0.0600 
    197 H197        0.0152  -25.3148  -47.2598 H         1 UNK         0.0600 
    198 H198       -0.2228  -24.4569  -45.7446 H         1 UNK         0.0600 
    199 H199        0.0012  -23.5564  -47.2431 H         1 UNK         0.0600 
    200 H200       -1.8103  -22.5674  -48.7865 H         1 UNK         0.3000 
    201 H201       -1.9406  -24.0201  -51.2158 H         1 UNK         0.0600 
    202 H202       -0.9887  -21.7547  -51.0874 H         1 UNK         0.0600 
    203 H203       -2.5398  -21.0863  -50.5862 H         1 UNK         0.0600 
    204 H204       -2.3403  -21.7327  -52.2118 H         1 UNK         0.0600 
    205 H205       -4.5163  -22.4125  -49.3096 H         1 UNK         0.3000 
    206 H206       -6.6497  -22.9115  -51.1468 H         1 UNK         0.0600 
    207 H207       -6.7963  -21.1829  -49.3875 H         1 UNK         0.0600 
    208 H208       -8.0941  -22.3504  -49.1861 H         1 UNK         0.0600 
    209 H209       -6.6913  -22.4073  -48.1252 H         1 UNK         0.0600 
    210 H210       -5.4792  -24.7396  -48.2680 H         1 UNK         0.3000 
    211 H211       -7.4126  -26.8134  -48.3805 H         1 UNK         0.0600 
    212 H212       -4.5933  -26.7819  -47.1804 H         1 UNK         0.0600 
    213 H213       -5.8238  -27.9953  -46.8453 H         1 UNK         0.0600 
    214 H214       -6.0837  -26.3280  -46.3564 H         1 UNK         0.0600 
    215 H215       -4.1352  -26.5742  -49.8237 H         1 UNK         0.3000 
    216 H216       -4.1587  -29.1876  -51.0335 H         1 UNK         0.0600 
    217 H217       -2.1448  -28.3070  -52.2226 H         1 UNK         0.0600 
    218 H218       -2.0657  -27.9478  -50.5047 H         1 UNK         0.0600 
    219 H219       -2.5021  -26.6813  -51.6513 H         1 UNK         0.0600 
    220 H220       -5.6175  -26.1878  -51.9043 H         1 UNK         0.3000 
    221 H221       -6.7048  -25.3209  -53.6130 H         1 UNK         0.0600 
    222 H222       -7.9504  -26.7562  -55.1907 H         1 UNK         0.0600 
    223 H223       -8.0959  -27.3965  -53.5612 H         1 UNK         0.0600 
    224 H224       -7.0128  -28.1661  -54.7200 H         1 UNK         0.0600 
    225 H225       -4.1854  -24.8498  -53.6736 H         1 UNK         0.3000 
    226 H226       -2.6657  -25.7964  -55.9170 H         1 UNK         0.0600 
    227 H227       -0.9423  -24.2712  -54.9921 H         1 UNK         0.0600 
    228 H228       -2.1376  -23.5230  -53.9384 H         1 UNK         0.0600 
    229 H229       -1.6830  -25.2110  -53.7072 H         1 UNK         0.0600 
    230 H230       -4.8165  -24.9327  -57.1405 H         1 UNK         0.3000 
    231 H231       -5.5885  -23.9420  -58.9281 H         1 UNK         0.0600 
    232 H232       -3.3091  -24.1962  -59.8861 H         1 UNK         0.0600 
    233 H233       -2.8594  -22.6001  -59.2852 H         1 UNK         0.0600 
    234 H234       -4.1068  -22.7611  -60.5106 H         1 UNK         0.0600 
    235 H235       -4.0823  -21.6483  -56.6798 H         1 UNK         0.3000 
    236 H236       -6.3911  -19.8901  -56.7756 H         1 UNK         0.0600 
    237 H237       -5.0143  -18.9937  -58.6918 H         1 UNK         0.0600 
    238 H238       -5.0196  -17.8580  -57.3564 H         1 UNK         0.0600 
    239 H239       -3.6107  -18.8744  -57.6327 H         1 UNK         0.0600 
    240 H240       -6.0000  -18.0826  -55.2347 H         1 UNK         0.3000 
    241 H241       -5.8908  -17.3648  -53.2223 H         1 UNK         0.0600 
    242 H242       -5.1978  -20.7996  -51.3378 H         1 UNK         0.3800 
    243 H243       -4.9485  -20.6714  -53.0781 H         1 UNK         0.3800 
    244 H244       -3.6738  -16.5973  -52.4459 H         1 UNK         0.0800 
    245 H245       -3.9823  -16.3125  -54.1138 H         1 UNK         0.0800 
    246 H246       -0.7172  -19.2003  -52.5606 H         1 UNK         0.0800 
    247 H247       -2.2955  -19.1200  -51.8345 H         1 UNK         0.0800 
@<TRIPOS>BOND
     1    1    2 1    
     2    1  127 1    
     3    1  128 1    
     4    1  129 1    
     5    2    3 2    
     6    2    4 am   BACKBONE|DICT|INTERRES
     7    4    5 1    
     8    4  130 1    
     9    5    6 1    
    10    5   65 1    
    11    5  131 1    
    12    6    7 1    
    13    6  132 1    
    14    6  133 1    
    15    7    8 1    
    16    8    9 1    
    17    8  134 1    
    18    8  135 1    
    19    9   10 ar   
    20    9   14 ar   
    21   10   11 ar   
    22   10  136 1    
    23   11   12 ar   
    24   11  126 1    
    25   12   13 ar   
    26   12  137 1    
    27   13   14 ar   
    28   13   15 1    
    29   14  138 1    
    30   15   16 1    
    31   15  139 1    
    32   15  140 1    
    33   16   17 1    
    34   17   18 1    
    35   17  141 1    
    36   17  142 1    
    37   18   19 1    
    38   18   67 1    
    39   18  143 1    
    40   19   20 am   BACKBONE|DICT|INTERRES
    41   19  144 1    
    42   20   21 2    
    43   20   22 1    
    44   22   23 1    
    45   22   24 1    
    46   22  145 1    
    47   23  146 1    
    48   23  147 1    
    49   23  148 1    
    50   24   25 am   BACKBONE|DICT|INTERRES
    51   24  149 1    
    52   25   26 2    
    53   25   27 1    
    54   27   28 1    
    55   27   29 1    
    56   27  150 1    
    57   28  151 1    
    58   28  152 1    
    59   28  153 1    
    60   29   30 am   BACKBONE|DICT|INTERRES
    61   29  154 1    
    62   30   31 2    
    63   30   32 1    
    64   32   33 1    
    65   32   34 1    
    66   32  155 1    
    67   33  156 1    
    68   33  157 1    
    69   33  158 1    
    70   34   35 am   BACKBONE|DICT|INTERRES
    71   34  159 1    
    72   35   36 2    
    73   35   37 1    
    74   37   38 1    
    75   37   39 1    
    76   37  160 1    
    77   38  161 1    
    78   38  162 1    
    79   38  163 1    
    80   39   40 am   BACKBONE|DICT|INTERRES
    81   39  164 1    
    82   40   41 2    
    83   40   42 1    
    84   42   43 1    
    85   42   44 1    
    86   42  165 1    
    87   43  166 1    
    88   43  167 1    
    89   43  168 1    
    90   44   45 am   BACKBONE|DICT|INTERRES
    91   44  169 1    
    92   45   46 2    
    93   45   47 1    
    94   47   48 1    
    95   47   49 1    
    96   47  170 1    
    97   48  171 1    
    98   48  172 1    
    99   48  173 1    
   100   49   50 am   BACKBONE|DICT|INTERRES
   101   49  174 1    
   102   50   51 2    
   103   50   52 1    
   104   52   53 1    
   105   52   54 1    
   106   52  175 1    
   107   53  176 1    
   108   53  177 1    
   109   53  178 1    
   110   54   55 am   BACKBONE|DICT|INTERRES
   111   54  179 1    
   112   55   56 2    
   113   55   57 1    
   114   57   58 1    
   115   57   59 1    
   116   57  180 1    
   117   58  181 1    
   118   58  182 1    
   119   58  183 1    
   120   59   60 am   BACKBONE|DICT|INTERRES
   121   59  184 1    
   122   60   61 2    
   123   60   62 1    
   124   62   63 1    
   125   62   64 1    
   126   62  185 1    
   127   63  186 1    
   128   63  187 1    
   129   63  188 1    
   130   64   65 am   BACKBONE|DICT|INTERRES
   131   64  189 1    
   132   65   66 2    
   133   67   68 2    
   134   67   69 am   BACKBONE|DICT|INTERRES
   135   69   70 1    
   136   69  190 1    
   137   70   71 1    
   138   70   72 1    
   139   70  191 1    
   140   71  192 1    
   141   71  193 1    
   142   71  194 1    
   143   72   73 2    
   144   72   74 am   BACKBONE|DICT|INTERRES
   145   74   75 1    
   146   74  195 1    
   147   75   76 1    
   148   75   77 1    
   149   75  196 1    
   150   76  197 1    
   151   76  198 1    
   152   76  199 1    
   153   77   78 2    
   154   77   79 am   BACKBONE|DICT|INTERRES
   155   79   80 1    
   156   79  200 1    
   157   80   81 1    
   158   80   82 1    
   159   80  201 1    
   160   81  202 1    
   161   81  203 1    
   162   81  204 1    
   163   82   83 2    
   164   82   84 am   BACKBONE|DICT|INTERRES
   165   84   85 1    
   166   84  205 1    
   167   85   86 1    
   168   85   87 1    
   169   85  206 1    
   170   86  207 1    
   171   86  208 1    
   172   86  209 1    
   173   87   88 2    
   174   87   89 am   BACKBONE|DICT|INTERRES
   175   89   90 1    
   176   89  210 1    
   177   90   91 1    
   178   90   92 1    
   179   90  211 1    
   180   91  212 1    
   181   91  213 1    
   182   91  214 1    
   183   92   93 2    
   184   92   94 am   BACKBONE|DICT|INTERRES
   185   94   95 1    
   186   94  215 1    
   187   95   96 1    
   188   95   97 1    
   189   95  216 1    
   190   96  217 1    
   191   96  218 1    
   192   96  219 1    
   193   97   98 2    
   194   97   99 am   BACKBONE|DICT|INTERRES
   195   99  100 1    
   196   99  220 1    
   197  100  101 1    
   198  100  102 1    
   199  100  221 1    
   200  101  222 1    
   201  101  223 1    
   202  101  224 1    
   203  102  103 2    
   204  102  104 am   BACKBONE|DICT|INTERRES
   205  104  105 1    
   206  104  225 1    
   207  105  106 1    
   208  105  107 1    
   209  105  226 1    
   210  106  227 1    
   211  106  228 1    
   212  106  229 1    
   213  107  108 2    
   214  107  109 am   BACKBONE|DICT|INTERRES
   215  109  110 1    
   216  109  230 1    
   217  110  111 1    
   218  110  112 1    
   219  110  231 1    
   220  111  232 1    
   221  111  233 1    
   222  111  234 1    
   223  112  113 2    
   224  112  114 am   BACKBONE|DICT|INTERRES
   225  114  115 1    
   226  114  235 1    
   227  115  116 1    
   228  115  117 1    
   229  115  236 1    
   230  116  237 1    
   231  116  238 1    
   232  116  239 1    
   233  117  118 2    
   234  117  119 am   BACKBONE|DICT|INTERRES
   235  119  120 1    
   236  119  240 1    
   237  120  121 1    
   238  120  124 1    
   239  120  241 1    
   240  121  122 am   BACKBONE|DICT|INTERRES
   241  121  123 2    
   242  122  242 1    
   243  122  243 1    
   244  124  125 1    
   245  124  244 1    
   246  124  245 1    
   247  125  126 1    
   248  126  246 1    
   249  126  247 1    
@<TRIPOS>SUBSTRUCTURE
     1 UNK         1 GROUP             0       ****    0 ROOT    
