@<TRIPOS>MOLECULE
3R540
247   249    1
SMALL
USER_CHARGES


@<TRIPOS>ATOM
      1 CA         -3.9886  -13.6149  -47.7621 C.3       0 UNK        -0.1800 
      2 C          -4.2726  -14.7900  -48.6951 C.2       0 UNK         0.5000 
      3 O          -5.3652  -14.8670  -49.2508 O.2       0 UNK        -0.5000 
      4 N          -3.3344  -15.7238  -48.8989 N.am      1 UNK        -0.5000 
      5 CA         -2.0140  -15.7978  -48.2566 C.3       1 UNK         0.1400 
      6 C6         -0.9548  -16.4425  -49.1773 C.3       23 UNK        -0.0398 
      7 S7         -0.7294  -15.4889  -50.7185 S.3       23 UNK        -0.2404 
      8 C8          0.9364  -16.0129  -51.2263 C.3       23 UNK        -0.0205 
      9 C9          1.0057  -17.5150  -51.4477 C.ar      23 UNK        -0.0193 
     10 C10         0.4426  -18.0830  -52.5912 C.ar      23 UNK        -0.1150 
     11 C11         0.4926  -19.4628  -52.7983 C.ar      23 UNK        -0.0193 
     12 C12         1.1101  -20.2761  -51.8430 C.ar      23 UNK        -0.1150 
     13 C13         1.6718  -19.7252  -50.6864 C.ar      23 UNK        -0.0193 
     14 C14         1.6255  -18.3376  -50.5047 C.ar      23 UNK        -0.1150 
     15 C15         2.3516  -20.6537  -49.6812 C.3       23 UNK        -0.0205 
     16 S16         2.4080  -20.0388  -47.9625 S.3       23 UNK        -0.2404 
     17 C17         0.6651  -20.2002  -47.4362 C.3       23 UNK        -0.0398 
     18 CA          0.3024  -21.6280  -46.9585 C.3       11 UNK         0.1400 
     19 N           1.3080  -22.2105  -46.0675 N.am      11 UNK        -0.5000 
     20 C           1.4038  -23.5115  -45.7683 C.2       10 UNK         0.5000 
     21 O           0.6480  -24.3731  -46.2165 O.2       10 UNK        -0.5000 
     22 CA          2.5062  -23.9005  -44.7668 C.3       10 UNK         0.1400 
     23 CB          3.8465  -24.0979  -45.4901 C.3       10 UNK        -0.1800 
     24 N           2.6691  -22.9042  -43.7050 N.am      10 UNK        -0.5000 
     25 C           1.7484  -22.6542  -42.7636 C.2       9 UNK         0.5000 
     26 O           0.6872  -23.2709  -42.6699 O.2       9 UNK        -0.5000 
     27 CA          2.0405  -21.4899  -41.7988 C.3       9 UNK         0.1400 
     28 CB          2.9131  -21.9629  -40.6272 C.3       9 UNK        -0.1800 
     29 N           2.6766  -20.3351  -42.4399 N.am      9 UNK        -0.5000 
     30 C           2.1404  -19.6055  -43.4271 C.2       8 UNK         0.5000 
     31 O           1.0647  -19.8805  -43.9599 O.2       8 UNK        -0.5000 
     32 CA          2.9327  -18.3603  -43.8715 C.3       8 UNK         0.1400 
     33 CB          2.1530  -17.4836  -44.8689 C.3       8 UNK        -0.1800 
     34 N           3.2883  -17.5315  -42.7224 N.am      8 UNK        -0.5000 
     35 C           4.4061  -17.6339  -41.9941 C.2       7 UNK         0.5000 
     36 O           5.2538  -18.5086  -42.1733 O.2       7 UNK        -0.5000 
     37 CA          4.5914  -16.6099  -40.8642 C.3       7 UNK         0.1400 
     38 CB          4.9771  -15.2354  -41.4341 C.3       7 UNK        -0.1800 
     39 N           3.3649  -16.4789  -40.0792 N.am      7 UNK        -0.5000 
     40 C           3.2630  -16.7174  -38.7648 C.2       6 UNK         0.5000 
     41 O           4.2159  -17.0231  -38.0465 O.2       6 UNK        -0.5000 
     42 CA          1.8581  -16.6009  -38.1357 C.3       6 UNK         0.1400 
     43 CB          1.6716  -15.2182  -37.4927 C.3       6 UNK        -0.1800 
     44 N           0.7687  -16.8309  -39.0865 N.am      6 UNK        -0.5000 
     45 C           0.5267  -17.9919  -39.7095 C.2       5 UNK         0.5000 
     46 O           1.1478  -19.0290  -39.4793 O.2       5 UNK        -0.5000 
     47 CA         -0.5839  -18.0051  -40.7780 C.3       5 UNK         0.1400 
     48 CB         -1.8639  -18.6045  -40.1747 C.3       5 UNK        -0.1800 
     49 N          -0.9188  -16.7130  -41.3921 N.am      5 UNK        -0.5000 
     50 C          -0.0841  -15.8384  -41.9737 C.2       4 UNK         0.5000 
     51 O           1.1423  -15.9552  -41.9498 O.2       4 UNK        -0.5000 
     52 CA         -0.7213  -14.6340  -42.6997 C.3       4 UNK         0.1400 
     53 CB          0.1960  -14.0708  -43.8003 C.3       4 UNK        -0.1800 
     54 N          -2.0189  -14.9678  -43.2929 N.am      4 UNK        -0.5000 
     55 C          -3.2068  -14.8323  -42.6848 C.2       3 UNK         0.5000 
     56 O          -3.3314  -14.4086  -41.5359 O.2       3 UNK        -0.5000 
     57 CA         -4.4671  -15.2600  -43.4672 C.3       3 UNK         0.1400 
     58 CB         -5.1861  -14.0289  -44.0397 C.3       3 UNK        -0.1800 
     59 N          -4.1936  -16.2030  -44.5539 N.am      3 UNK        -0.5000 
     60 C          -3.7771  -17.4655  -44.3833 C.2       2 UNK         0.5000 
     61 O          -3.6450  -17.9906  -43.2794 O.2       2 UNK        -0.5000 
     62 CA         -3.4306  -18.2750  -45.6491 C.3       2 UNK         0.1400 
     63 CB         -4.6017  -19.1945  -46.0275 C.3       2 UNK        -0.1800 
     64 N          -3.0855  -17.4771  -46.8258 N.am      2 UNK        -0.5000 
     65 C          -2.1137  -16.5581  -46.9195 C.2       1 UNK         0.5000 
     66 O          -1.3647  -16.2594  -45.9903 O.2       1 UNK        -0.5000 
     67 C          -1.0893  -21.6523  -46.2994 C.2       11 UNK         0.5000 
     68 O          -2.0797  -21.8958  -46.9855 O.2       11 UNK        -0.5000 
     69 N          -1.1330  -21.4435  -44.9760 N.am      12 UNK        -0.5000 
     70 CA         -2.3251  -21.5760  -44.1423 C.3       12 UNK         0.1400 
     71 CB         -2.0525  -20.9873  -42.7542 C.3       12 UNK        -0.1800 
     72 C          -2.8307  -23.0231  -44.0508 C.2       12 UNK         0.5000 
     73 O          -4.0366  -23.2431  -44.1592 O.2       12 UNK        -0.5000 
     74 N          -1.9066  -23.9837  -43.9085 N.am      13 UNK        -0.5000 
     75 CA         -2.1974  -25.4196  -43.9290 C.3       13 UNK         0.1400 
     76 CB         -0.9397  -26.2054  -43.5288 C.3       13 UNK        -0.1800 
     77 C          -2.7362  -25.8974  -45.2921 C.2       13 UNK         0.5000 
     78 O          -3.6494  -26.7227  -45.3308 O.2       13 UNK        -0.5000 
     79 N          -2.1862  -25.3435  -46.3813 N.am      14 UNK        -0.5000 
     80 CA         -2.6392  -25.5717  -47.7550 C.3       14 UNK         0.1400 
     81 CB         -1.5190  -25.1446  -48.7168 C.3       14 UNK        -0.1800 
     82 C          -3.9487  -24.8335  -48.1063 C.2       14 UNK         0.5000 
     83 O          -4.5951  -25.2020  -49.0875 O.2       14 UNK        -0.5000 
     84 N          -4.2941  -23.7984  -47.3246 N.am      15 UNK        -0.5000 
     85 CA         -5.3723  -22.8252  -47.5392 C.3       15 UNK         0.1400 
     86 CB         -6.7556  -23.4962  -47.4182 C.3       15 UNK        -0.1800 
     87 C          -5.1841  -22.0361  -48.8550 C.2       15 UNK         0.5000 
     88 O          -6.1390  -21.8344  -49.6080 O.2       15 UNK        -0.5000 
     89 N          -3.9320  -21.6489  -49.1248 N.am      16 UNK        -0.5000 
     90 CA         -3.4900  -21.0642  -50.3849 C.3       16 UNK         0.1400 
     91 CB         -2.0136  -21.4308  -50.5952 C.3       16 UNK        -0.1800 
     92 C          -3.6767  -19.5383  -50.4423 C.2       16 UNK         0.5000 
     93 O          -3.6683  -18.8553  -49.4135 O.2       16 UNK        -0.5000 
     94 N          -3.7796  -19.0297  -51.6726 N.am      17 UNK        -0.5000 
     95 CA         -3.8034  -17.6167  -52.0168 C.3       17 UNK         0.1400 
     96 CB         -5.2392  -17.0762  -51.9338 C.3       17 UNK        -0.1800 
     97 C          -3.2259  -17.4633  -53.4279 C.2       17 UNK         0.5000 
     98 O          -3.3939  -18.3658  -54.2555 O.2       17 UNK        -0.5000 
     99 N          -2.5543  -16.3318  -53.6725 N.am      18 UNK        -0.5000 
    100 CA        -1.9228  -15.9834  -54.9459 C.3       18 UNK         0.1400 
    101 CB        -1.1841  -14.6465  -54.7896 C.3       18 UNK        -0.1800 
    102 C         -2.9365  -15.9178  -56.1002 C.2       18 UNK         0.5000 
    103 O         -4.0713  -15.4809  -55.8947 O.2       18 UNK        -0.5000 
    104 N         -2.5137  -16.3945  -57.2782 N.am      19 UNK        -0.5000 
    105 CA        -3.2815  -16.5915  -58.5164 C.3       19 UNK         0.1400 
    106 CB        -3.8968  -15.2752  -59.0293 C.3       19 UNK        -0.1800 
    107 C         -4.3409  -17.7108  -58.4300 C.2       19 UNK         0.5000 
    108 O         -4.4942  -18.4649  -59.3909 O.2       19 UNK        -0.5000 
    109 N         -5.0308  -17.8227  -57.2893 N.am      20 UNK        -0.5000 
    110 CA        -6.0588  -18.8221  -57.0151 C.3       20 UNK         0.1400 
    111 CB        -6.8425  -18.4102  -55.7589 C.3       20 UNK        -0.1800 
    112 C         -5.4849  -20.2415  -56.8636 C.2       20 UNK         0.5000 
    113 O         -5.9591  -21.1583  -57.5360 O.2       20 UNK        -0.5000 
    114 N         -4.4876  -20.3990  -55.9822 N.am      21 UNK        -0.5000 
    115 CA        -3.9111  -21.6994  -55.6269 C.3       21 UNK         0.1400 
    116 CB        -3.7428  -21.7677  -54.1009 C.3       21 UNK        -0.1800 
    117 C         -2.5735  -21.9861  -56.3320 C.2       21 UNK         0.5000 
    118 O         -2.1350  -23.1372  -56.3260 O.2       21 UNK        -0.5000 
    119 N         -1.9406  -20.9619  -56.9162 N.am      22 UNK        -0.5000 
    120 CA        -0.6327  -21.0683  -57.5859 C.3       22 UNK         0.1400 
    121 C         -0.4468  -20.0826  -58.7745 C.2       22 UNK         0.5000 
    122 N         -1.5125  -19.5667  -59.3728 N.am      22 UNK        -0.7600 
    123 O          0.6736  -19.7976  -59.1882 O.2       22 UNK        -0.5000 
    124 C124        0.5568  -21.1067  -56.5854 C.3       23 UNK        -0.0398 
    125 S125        0.7530  -19.6074  -55.5573 S.3       23 UNK        -0.2404 
    126 C126       -0.1375  -20.0754  -54.0400 C.3       23 UNK        -0.0205 
    127 H127       -3.3142  -12.9062  -48.2427 H         1 UNK         0.0600 
    128 H128       -3.5403  -13.9426  -46.8255 H         1 UNK         0.0600 
    129 H129       -4.9119  -13.0887  -47.5188 H         1 UNK         0.0600 
    130 H130       -3.5642  -16.5117  -49.4882 H         1 UNK         0.3000 
    131 H131       -1.6610  -14.7908  -48.0273 H         1 UNK         0.0600 
    132 H132        0.0057  -16.5000  -48.6615 H         1 UNK         0.0800 
    133 H133       -1.2298  -17.4666  -49.4368 H         1 UNK         0.0800 
    134 H134        1.2069  -15.4967  -52.1484 H         1 UNK         0.0800 
    135 H135        1.6610  -15.6960  -50.4746 H         1 UNK         0.0800 
    136 H136       -0.0314  -17.4480  -53.3226 H         1 UNK         0.1150 
    137 H137        1.1518  -21.3451  -51.9987 H         1 UNK         0.1150 
    138 H138        2.0697  -17.8884  -49.6286 H         1 UNK         0.1150 
    139 H139        1.8666  -21.6309  -49.6846 H         1 UNK         0.0800 
    140 H140        3.3761  -20.8191  -50.0163 H         1 UNK         0.0800 
    141 H141        0.0130  -19.8899  -48.2536 H         1 UNK         0.0800 
    142 H142        0.4958  -19.4791  -46.6356 H         1 UNK         0.0800 
    143 H143        0.2479  -22.2634  -47.8450 H         1 UNK         0.0600 
    144 H144        1.9469  -21.5608  -45.6344 H         1 UNK         0.3000 
    145 H145        2.2210  -24.8491  -44.3070 H         1 UNK         0.0600 
    146 H146        4.6199  -24.4380  -44.8013 H         1 UNK         0.0600 
    147 H147        3.7580  -24.8502  -46.2752 H         1 UNK         0.0600 
    148 H148        4.1937  -23.1754  -45.9573 H         1 UNK         0.0600 
    149 H149        3.5150  -22.3536  -43.7140 H         1 UNK         0.3000 
    150 H150        1.0839  -21.1533  -41.3943 H         1 UNK         0.0600 
    151 H151        2.4541  -22.8096  -40.1152 H         1 UNK         0.0600 
    152 H152        3.0427  -21.1706  -39.8894 H         1 UNK         0.0600 
    153 H153        3.9029  -22.2763  -40.9614 H         1 UNK         0.0600 
    154 H154        3.5658  -20.0350  -42.0616 H         1 UNK         0.3000 
    155 H155        3.8414  -18.7060  -44.3685 H         1 UNK         0.0600 
    156 H156        1.1603  -17.2272  -44.4967 H         1 UNK         0.0600 
    157 H157        2.6813  -16.5530  -45.0768 H         1 UNK         0.0600 
    158 H158        2.0255  -17.9943  -45.8208 H         1 UNK         0.0600 
    159 H159        2.5962  -16.8289  -42.4703 H         1 UNK         0.3000 
    160 H160        5.4156  -16.9618  -40.2403 H         1 UNK         0.0600 
    161 H161        5.1783  -14.5228  -40.6340 H         1 UNK         0.0600 
    162 H162        4.1858  -14.8198  -42.0595 H         1 UNK         0.0600 
    163 H163        5.8789  -15.3034  -42.0439 H         1 UNK         0.0600 
    164 H164        2.5200  -16.2537  -40.5951 H         1 UNK         0.3000 
    165 H165        1.7856  -17.3573  -37.3515 H         1 UNK         0.0600 
    166 H166        0.7136  -15.1480  -36.9772 H         1 UNK         0.0600 
    167 H167        2.4510  -15.0218  -36.7552 H         1 UNK         0.0600 
    168 H168        1.7141  -14.4206  -38.2355 H         1 UNK         0.0600 
    169 H169        0.2075  -16.0307  -39.3376 H         1 UNK         0.3000 
    170 H170       -0.2381  -18.6560  -41.5823 H         1 UNK         0.0600 
    171 H171       -1.6806  -19.6053  -39.7812 H         1 UNK         0.0600 
    172 H172       -2.2441  -17.9930  -39.3555 H         1 UNK         0.0600 
    173 H173       -2.6557  -18.6912  -40.9174 H         1 UNK         0.0600 
    174 H174       -1.9063  -16.5132  -41.4637 H         1 UNK         0.3000 
    175 H175       -0.8535  -13.8498  -41.9518 H         1 UNK         0.0600 
    176 H176       -0.2676  -13.2227  -44.3042 H         1 UNK         0.0600 
    177 H177        0.4280  -14.8222  -44.5553 H         1 UNK         0.0600 
    178 H178        1.1418  -13.7210  -43.3846 H         1 UNK         0.0600 
    179 H179       -1.9840  -15.3802  -44.2195 H         1 UNK         0.3000 
    180 H180       -5.1407  -15.7494  -42.7606 H         1 UNK         0.0600 
    181 H181       -4.5454  -13.4656  -44.7181 H         1 UNK         0.0600 
    182 H182       -5.4885  -13.3503  -43.2410 H         1 UNK         0.0600 
    183 H183       -6.0884  -14.3116  -44.5823 H         1 UNK         0.0600 
    184 H184       -4.2946  -15.8575  -45.4956 H         1 UNK         0.3000 
    185 H185       -2.5588  -18.8847  -45.4085 H         1 UNK         0.0600 
    186 H186       -4.9621  -19.7659  -45.1714 H         1 UNK         0.0600 
    187 H187       -5.4480  -18.6265  -46.4157 H         1 UNK         0.0600 
    188 H188       -4.2971  -19.9056  -46.7941 H         1 UNK         0.0600 
    189 H189       -3.6041  -17.6999  -47.6685 H         1 UNK         0.3000 
    190 H190       -0.2767  -21.1662  -44.5046 H         1 UNK         0.3000 
    191 H191       -3.1203  -20.9941  -44.6015 H         1 UNK         0.0600 
    192 H192       -1.7321  -19.9501  -42.8385 H         1 UNK         0.0600 
    193 H193       -2.9534  -21.0025  -42.1399 H         1 UNK         0.0600 
    194 H194       -1.2784  -21.5363  -42.2196 H         1 UNK         0.0600 
    195 H195       -0.9396  -23.7146  -43.7563 H         1 UNK         0.3000 
    196 H196       -2.9695  -25.6134  -43.1814 H         1 UNK         0.0600 
    197 H197       -1.1428  -27.2765  -43.4974 H         1 UNK         0.0600 
    198 H198       -0.5895  -25.9111  -42.5392 H         1 UNK         0.0600 
    199 H199       -0.1227  -26.0471  -44.2326 H         1 UNK         0.0600 
    200 H200       -1.3826  -24.7356  -46.2632 H         1 UNK         0.3000 
    201 H201       -2.8163  -26.6407  -47.8895 H         1 UNK         0.0600 
    202 H202       -0.6008  -25.7000  -48.5252 H         1 UNK         0.0600 
    203 H203       -1.2930  -24.0823  -48.6215 H         1 UNK         0.0600 
    204 H204       -1.8003  -25.3284  -49.7545 H         1 UNK         0.0600 
    205 H205       -3.6649  -23.5723  -46.5661 H         1 UNK         0.3000 
    206 H206       -5.2897  -22.1003  -46.7290 H         1 UNK         0.0600 
    207 H207       -6.8492  -24.0347  -46.4750 H         1 UNK         0.0600 
    208 H208       -7.5527  -22.7526  -47.4477 H         1 UNK         0.0600 
    209 H209       -6.9383  -24.2028  -48.2281 H         1 UNK         0.0600 
    210 H210       -3.2189  -21.7909  -48.4127 H         1 UNK         0.3000 
    211 H211       -4.0693  -21.5133  -51.1936 H         1 UNK         0.0600 
    212 H212       -1.3773  -20.9995  -49.8228 H         1 UNK         0.0600 
    213 H213       -1.6561  -21.0676  -51.5581 H         1 UNK         0.0600 
    214 H214       -1.8690  -22.5111  -50.5852 H         1 UNK         0.0600 
    215 H215       -3.7431  -19.6385  -52.4791 H         1 UNK         0.3000 
    216 H216       -3.1641  -17.0688  -51.3252 H         1 UNK         0.0600 
    217 H217       -5.2756  -16.0190  -52.1995 H         1 UNK         0.0600 
    218 H218       -5.6387  -17.1706  -50.9239 H         1 UNK         0.0600 
    219 H219       -5.9097  -17.6103  -52.6071 H         1 UNK         0.0600 
    220 H220       -2.4806  -15.6403  -52.9406 H         1 UNK         0.3000 
    221 H221       -1.1915  -16.7604  -55.1766 H         1 UNK         0.0600 
    222 H222       -0.4242  -14.7041  -54.0102 H         1 UNK         0.0600 
    223 H223       -0.6788  -14.3676  -55.7152 H         1 UNK         0.0600 
    224 H224       -1.8689  -13.8374  -54.5321 H         1 UNK         0.0600 
    225 H225       -1.5641  -16.7374  -57.3250 H         1 UNK         0.3000 
    226 H226       -2.5514  -16.9114  -59.2609 H         1 UNK         0.0600 
    227 H227       -3.1413  -14.4946  -59.1181 H         1 UNK         0.0600 
    228 H228       -4.3376  -15.4149  -60.0171 H         1 UNK         0.0600 
    229 H229       -4.6864  -14.9066  -58.3743 H         1 UNK         0.0600 
    230 H230       -4.8432  -17.1400  -56.5617 H         1 UNK         0.3000 
    231 H231       -6.7542  -18.8313  -57.8571 H         1 UNK         0.0600 
    232 H232       -6.1942  -18.3383  -54.8856 H         1 UNK         0.0600 
    233 H233       -7.6244  -19.1353  -55.5298 H         1 UNK         0.0600 
    234 H234       -7.3256  -17.4427  -55.8959 H         1 UNK         0.0600 
    235 H235       -4.1506  -19.5928  -55.4600 H         1 UNK         0.3000 
    236 H236       -4.5952  -22.5016  -55.9114 H         1 UNK         0.0600 
    237 H237       -4.6965  -21.6117  -53.5964 H         1 UNK         0.0600 
    238 H238       -3.3680  -22.7440  -53.7906 H         1 UNK         0.0600 
    239 H239       -3.0409  -21.0198  -53.7383 H         1 UNK         0.0600 
    240 H240       -2.3503  -20.0410  -56.8749 H         1 UNK         0.3000 
    241 H241       -0.6211  -22.0346  -58.0936 H         1 UNK         0.0600 
    242 H242       -2.4486  -19.8511  -59.1289 H         1 UNK         0.3800 
    243 H243       -1.3719  -18.9599  -60.1648 H         1 UNK         0.3800 
    244 H244        0.4655  -21.9813  -55.9412 H         1 UNK         0.0800 
    245 H245        1.4922  -21.2612  -57.1255 H         1 UNK         0.0800 
    246 H246       -0.1828  -21.1604  -53.9404 H         1 UNK         0.0800 
    247 H247       -1.1665  -19.7325  -54.1266 H         1 UNK         0.0800 
@<TRIPOS>BOND
     1    1    2 1    
     2    1  127 1    
     3    1  128 1    
     4    1  129 1    
     5    2    3 2    
     6    2    4 am   BACKBONE|DICT|INTERRES
     7    4    5 1    
     8    4  130 1    
     9    5    6 1    
    10    5   65 1    
    11    5  131 1    
    12    6    7 1    
    13    6  132 1    
    14    6  133 1    
    15    7    8 1    
    16    8    9 1    
    17    8  134 1    
    18    8  135 1    
    19    9   10 ar   
    20    9   14 ar   
    21   10   11 ar   
    22   10  136 1    
    23   11   12 ar   
    24   11  126 1    
    25   12   13 ar   
    26   12  137 1    
    27   13   14 ar   
    28   13   15 1    
    29   14  138 1    
    30   15   16 1    
    31   15  139 1    
    32   15  140 1    
    33   16   17 1    
    34   17   18 1    
    35   17  141 1    
    36   17  142 1    
    37   18   19 1    
    38   18   67 1    
    39   18  143 1    
    40   19   20 am   BACKBONE|DICT|INTERRES
    41   19  144 1    
    42   20   21 2    
    43   20   22 1    
    44   22   23 1    
    45   22   24 1    
    46   22  145 1    
    47   23  146 1    
    48   23  147 1    
    49   23  148 1    
    50   24   25 am   BACKBONE|DICT|INTERRES
    51   24  149 1    
    52   25   26 2    
    53   25   27 1    
    54   27   28 1    
    55   27   29 1    
    56   27  150 1    
    57   28  151 1    
    58   28  152 1    
    59   28  153 1    
    60   29   30 am   BACKBONE|DICT|INTERRES
    61   29  154 1    
    62   30   31 2    
    63   30   32 1    
    64   32   33 1    
    65   32   34 1    
    66   32  155 1    
    67   33  156 1    
    68   33  157 1    
    69   33  158 1    
    70   34   35 am   BACKBONE|DICT|INTERRES
    71   34  159 1    
    72   35   36 2    
    73   35   37 1    
    74   37   38 1    
    75   37   39 1    
    76   37  160 1    
    77   38  161 1    
    78   38  162 1    
    79   38  163 1    
    80   39   40 am   BACKBONE|DICT|INTERRES
    81   39  164 1    
    82   40   41 2    
    83   40   42 1    
    84   42   43 1    
    85   42   44 1    
    86   42  165 1    
    87   43  166 1    
    88   43  167 1    
    89   43  168 1    
    90   44   45 am   BACKBONE|DICT|INTERRES
    91   44  169 1    
    92   45   46 2    
    93   45   47 1    
    94   47   48 1    
    95   47   49 1    
    96   47  170 1    
    97   48  171 1    
    98   48  172 1    
    99   48  173 1    
   100   49   50 am   BACKBONE|DICT|INTERRES
   101   49  174 1    
   102   50   51 2    
   103   50   52 1    
   104   52   53 1    
   105   52   54 1    
   106   52  175 1    
   107   53  176 1    
   108   53  177 1    
   109   53  178 1    
   110   54   55 am   BACKBONE|DICT|INTERRES
   111   54  179 1    
   112   55   56 2    
   113   55   57 1    
   114   57   58 1    
   115   57   59 1    
   116   57  180 1    
   117   58  181 1    
   118   58  182 1    
   119   58  183 1    
   120   59   60 am   BACKBONE|DICT|INTERRES
   121   59  184 1    
   122   60   61 2    
   123   60   62 1    
   124   62   63 1    
   125   62   64 1    
   126   62  185 1    
   127   63  186 1    
   128   63  187 1    
   129   63  188 1    
   130   64   65 am   BACKBONE|DICT|INTERRES
   131   64  189 1    
   132   65   66 2    
   133   67   68 2    
   134   67   69 am   BACKBONE|DICT|INTERRES
   135   69   70 1    
   136   69  190 1    
   137   70   71 1    
   138   70   72 1    
   139   70  191 1    
   140   71  192 1    
   141   71  193 1    
   142   71  194 1    
   143   72   73 2    
   144   72   74 am   BACKBONE|DICT|INTERRES
   145   74   75 1    
   146   74  195 1    
   147   75   76 1    
   148   75   77 1    
   149   75  196 1    
   150   76  197 1    
   151   76  198 1    
   152   76  199 1    
   153   77   78 2    
   154   77   79 am   BACKBONE|DICT|INTERRES
   155   79   80 1    
   156   79  200 1    
   157   80   81 1    
   158   80   82 1    
   159   80  201 1    
   160   81  202 1    
   161   81  203 1    
   162   81  204 1    
   163   82   83 2    
   164   82   84 am   BACKBONE|DICT|INTERRES
   165   84   85 1    
   166   84  205 1    
   167   85   86 1    
   168   85   87 1    
   169   85  206 1    
   170   86  207 1    
   171   86  208 1    
   172   86  209 1    
   173   87   88 2    
   174   87   89 am   BACKBONE|DICT|INTERRES
   175   89   90 1    
   176   89  210 1    
   177   90   91 1    
   178   90   92 1    
   179   90  211 1    
   180   91  212 1    
   181   91  213 1    
   182   91  214 1    
   183   92   93 2    
   184   92   94 am   BACKBONE|DICT|INTERRES
   185   94   95 1    
   186   94  215 1    
   187   95   96 1    
   188   95   97 1    
   189   95  216 1    
   190   96  217 1    
   191   96  218 1    
   192   96  219 1    
   193   97   98 2    
   194   97   99 am   BACKBONE|DICT|INTERRES
   195   99  100 1    
   196   99  220 1    
   197  100  101 1    
   198  100  102 1    
   199  100  221 1    
   200  101  222 1    
   201  101  223 1    
   202  101  224 1    
   203  102  103 2    
   204  102  104 am   BACKBONE|DICT|INTERRES
   205  104  105 1    
   206  104  225 1    
   207  105  106 1    
   208  105  107 1    
   209  105  226 1    
   210  106  227 1    
   211  106  228 1    
   212  106  229 1    
   213  107  108 2    
   214  107  109 am   BACKBONE|DICT|INTERRES
   215  109  110 1    
   216  109  230 1    
   217  110  111 1    
   218  110  112 1    
   219  110  231 1    
   220  111  232 1    
   221  111  233 1    
   222  111  234 1    
   223  112  113 2    
   224  112  114 am   BACKBONE|DICT|INTERRES
   225  114  115 1    
   226  114  235 1    
   227  115  116 1    
   228  115  117 1    
   229  115  236 1    
   230  116  237 1    
   231  116  238 1    
   232  116  239 1    
   233  117  118 2    
   234  117  119 am   BACKBONE|DICT|INTERRES
   235  119  120 1    
   236  119  240 1    
   237  120  121 1    
   238  120  124 1    
   239  120  241 1    
   240  121  122 am   BACKBONE|DICT|INTERRES
   241  121  123 2    
   242  122  242 1    
   243  122  243 1    
   244  124  125 1    
   245  124  244 1    
   246  124  245 1    
   247  125  126 1    
   248  126  246 1    
   249  126  247 1    
@<TRIPOS>SUBSTRUCTURE
     1 UNK         1 GROUP             0       ****    0 ROOT    
