@<TRIPOS>MOLECULE
3R540
247   249    1
SMALL
USER_CHARGES


@<TRIPOS>ATOM
      1 CA          0.3654  -11.7330  -47.0554 C.3       0 UNK        -0.1800 
      2 C           0.1867  -13.2044  -47.3983 C.2       0 UNK         0.5000 
      3 O          -0.2970  -13.9736  -46.5684 O.2       0 UNK        -0.5000 
      4 N           0.5491  -13.6001  -48.6265 N.am      1 UNK        -0.5000 
      5 CA          0.4634  -14.9833  -49.1221 C.3       1 UNK         0.1400 
      6 C6          1.2459  -15.1727  -50.4530 C.3       23 UNK        -0.0398 
      7 S7          2.4620  -16.5319  -50.3821 S.3       23 UNK        -0.2404 
      8 C8          1.4092  -17.9582  -50.7771 C.3       23 UNK        -0.0205 
      9 C9          2.2271  -19.1948  -51.1089 C.ar      23 UNK        -0.0193 
     10 C10         2.4397  -19.5533  -52.4408 C.ar      23 UNK        -0.1150 
     11 C11         3.1190  -20.7317  -52.7566 C.ar      23 UNK        -0.0193 
     12 C12         3.5981  -21.5451  -51.7262 C.ar      23 UNK        -0.1150 
     13 C13         3.4018  -21.2022  -50.3844 C.ar      23 UNK        -0.0193 
     14 C14         2.7261  -20.0084  -50.0875 C.ar      23 UNK        -0.1150 
     15 C15         3.9119  -22.1814  -49.3195 C.3       23 UNK        -0.0205 
     16 S16         3.7257  -21.6842  -47.5704 S.3       23 UNK        -0.2404 
     17 C17         1.9127  -21.6867  -47.3620 C.3       23 UNK        -0.0398 
     18 CA          1.3581  -22.7748  -46.4071 C.3       11 UNK         0.1400 
     19 N           2.0099  -22.7535  -45.0972 N.am      11 UNK        -0.5000 
     20 C           2.3260  -23.8196  -44.3536 C.2       10 UNK         0.5000 
     21 O           2.1335  -24.9779  -44.7261 O.2       10 UNK        -0.5000 
     22 CA          2.8759  -23.5540  -42.9362 C.3       10 UNK         0.1400 
     23 CB          3.8862  -24.6238  -42.4707 C.3       10 UNK        -0.1800 
     24 N           3.3924  -22.1941  -42.7446 N.am      10 UNK        -0.5000 
     25 C           4.5092  -21.6506  -43.2546 C.2       9 UNK         0.5000 
     26 O           5.3127  -22.2705  -43.9519 O.2       9 UNK        -0.5000 
     27 CA          4.7826  -20.1618  -42.9429 C.3       9 UNK         0.1400 
     28 CB          4.9903  -19.3557  -44.2369 C.3       9 UNK        -0.1800 
     29 N           3.7131  -19.5332  -42.1636 N.am      9 UNK        -0.5000 
     30 C           3.6060  -19.5576  -40.8281 C.2       8 UNK         0.5000 
     31 O           4.4496  -20.0607  -40.0859 O.2       8 UNK        -0.5000 
     32 CA          2.3235  -18.9527  -40.2184 C.3       8 UNK         0.1400 
     33 CB          2.5488  -17.4809  -39.8419 C.3       8 UNK        -0.1800 
     34 N           1.1562  -19.0483  -41.0991 N.am      8 UNK        -0.5000 
     35 C           0.5868  -20.1914  -41.5064 C.2       7 UNK         0.5000 
     36 O           0.9552  -21.3070  -41.1397 O.2       7 UNK        -0.5000 
     37 CA         -0.5241  -20.0703  -42.5666 C.3       7 UNK         0.1400 
     38 CB         -1.8847  -19.7789  -41.9171 C.3       7 UNK        -0.1800 
     39 N          -0.2204  -19.0565  -43.5812 N.am      7 UNK        -0.5000 
     40 C           0.8161  -19.1378  -44.4273 C.2       6 UNK         0.5000 
     41 O           1.6132  -20.0727  -44.4295 O.2       6 UNK        -0.5000 
     42 CA          1.0389  -17.9634  -45.3918 C.3       6 UNK         0.1400 
     43 CB          0.1396  -18.0813  -46.6315 C.3       6 UNK        -0.1800 
     44 N           0.8522  -16.6714  -44.7299 N.am      6 UNK        -0.5000 
     45 C           1.7010  -16.1879  -43.8080 C.2       5 UNK         0.5000 
     46 O           2.7735  -16.7226  -43.5275 O.2       5 UNK        -0.5000 
     47 CA          1.2614  -14.9401  -43.0159 C.3       5 UNK         0.1400 
     48 CB          1.7859  -13.6524  -43.6648 C.3       5 UNK        -0.1800 
     49 N          -0.1903  -14.8589  -42.8418 N.am      5 UNK        -0.5000 
     50 C          -0.9011  -15.7301  -42.1114 C.2       4 UNK         0.5000 
     51 O          -0.3858  -16.6432  -41.4672 O.2       4 UNK        -0.5000 
     52 CA         -2.4369  -15.5974  -42.1147 C.3       4 UNK         0.1400 
     53 CB         -2.9202  -14.9692  -40.7991 C.3       4 UNK        -0.1800 
     54 N          -2.9943  -14.8369  -43.2367 N.am      4 UNK        -0.5000 
     55 C          -2.8871  -15.1578  -44.5331 C.2       3 UNK         0.5000 
     56 O          -2.2403  -16.1258  -44.9393 O.2       3 UNK        -0.5000 
     57 CA         -3.6329  -14.2400  -45.5188 C.3       3 UNK         0.1400 
     58 CB         -3.3940  -12.7465  -45.2207 C.3       3 UNK        -0.1800 
     59 N          -3.2096  -14.5059  -46.8902 N.am      3 UNK        -0.5000 
     60 C          -4.0260  -14.7091  -47.9320 C.2       2 UNK         0.5000 
     61 O          -5.2521  -14.7579  -47.8312 O.2       2 UNK        -0.5000 
     62 CA         -3.3893  -14.8373  -49.3327 C.3       2 UNK         0.1400 
     63 CB         -4.0486  -13.8674  -50.3291 C.3       2 UNK        -0.1800 
     64 N          -1.9535  -14.5673  -49.3239 N.am      2 UNK        -0.5000 
     65 C          -0.9938  -15.4962  -49.2434 C.2       1 UNK         0.5000 
     66 O          -1.2227  -16.7039  -49.2535 O.2       1 UNK        -0.5000 
     67 C          -0.1647  -22.6091  -46.2009 C.2       11 UNK         0.5000 
     68 O          -0.7829  -21.7275  -46.8020 O.2       11 UNK        -0.5000 
     69 N          -0.7505  -23.4360  -45.3228 N.am      12 UNK        -0.5000 
     70 CA         -2.1483  -23.3471  -44.8895 C.3       12 UNK         0.1400 
     71 CB         -2.4070  -24.3907  -43.7940 C.3       12 UNK        -0.1800 
     72 C          -3.1694  -23.4884  -46.0336 C.2       12 UNK         0.5000 
     73 O          -4.2061  -22.8265  -46.0026 O.2       12 UNK        -0.5000 
     74 N          -2.8376  -24.3059  -47.0429 N.am      13 UNK        -0.5000 
     75 CA         -3.6286  -24.4745  -48.2623 C.3       13 UNK         0.1400 
     76 CB         -3.0600  -25.6390  -49.0867 C.3       13 UNK        -0.1800 
     77 C          -3.6901  -23.1902  -49.1081 C.2       13 UNK         0.5000 
     78 O          -4.7624  -22.8423  -49.6002 O.2       13 UNK        -0.5000 
     79 N          -2.5533  -22.4878  -49.2276 N.am      14 UNK        -0.5000 
     80 CA         -2.4571  -21.2031  -49.9204 C.3       14 UNK         0.1400 
     81 CB         -0.9861  -20.8307  -50.1585 C.3       14 UNK        -0.1800 
     82 C          -3.1927  -20.0927  -49.1556 C.2       14 UNK         0.5000 
     83 O          -3.9098  -19.3122  -49.7784 O.2       14 UNK        -0.5000 
     84 N          -3.0560  -20.0794  -47.8225 N.am      15 UNK        -0.5000 
     85 CA         -3.7671  -19.1608  -46.9319 C.3       15 UNK         0.1400 
     86 CB         -3.2899  -19.3730  -45.4886 C.3       15 UNK        -0.1800 
     87 C          -5.2974  -19.3158  -47.0278 C.2       15 UNK         0.5000 
     88 O          -6.0020  -18.3163  -47.1663 O.2       15 UNK        -0.5000 
     89 N          -5.7768  -20.5680  -46.9945 N.am      16 UNK        -0.5000 
     90 CA         -7.1915  -20.9247  -47.1135 C.3       16 UNK         0.1400 
     91 CB         -7.3704  -22.4138  -46.7812 C.3       16 UNK        -0.1800 
     92 C          -7.7872  -20.6067  -48.4975 C.2       16 UNK         0.5000 
     93 O          -8.9235  -20.1384  -48.5751 O.2       16 UNK        -0.5000 
     94 N          -7.0121  -20.8547  -49.5617 N.am      17 UNK        -0.5000 
     95 CA         -7.4085  -20.6162  -50.9516 C.3       17 UNK         0.1400 
     96 CB         -6.5526  -21.5041  -51.8660 C.3       17 UNK        -0.1800 
     97 C          -7.2960  -19.1446  -51.3937 C.2       17 UNK         0.5000 
     98 O          -7.6989  -18.8323  -52.5137 O.2       17 UNK        -0.5000 
     99 N          -6.7197  -18.2798  -50.5461 N.am      18 UNK        -0.5000 
    100 CA        -6.3693  -16.8828  -50.8225 C.3       18 UNK         0.1400 
    101 CB        -7.6293  -16.0185  -51.0365 C.3       18 UNK        -0.1800 
    102 C         -5.3446  -16.7751  -51.9731 C.2       18 UNK         0.5000 
    103 O         -5.5368  -16.0129  -52.9205 O.2       18 UNK        -0.5000 
    104 N         -4.2880  -17.5917  -51.8649 N.am      19 UNK        -0.5000 
    105 CA        -3.1472  -17.7845  -52.7650 C.3       19 UNK         0.1400 
    106 CB        -2.3970  -16.4644  -53.0254 C.3       19 UNK        -0.1800 
    107 C         -3.4687  -18.5298  -54.0757 C.2       19 UNK         0.5000 
    108 O         -2.5336  -18.9404  -54.7638 O.2       19 UNK        -0.5000 
    109 N         -4.7527  -18.7469  -54.3960 N.am      20 UNK        -0.5000 
    110 CA        -5.2215  -19.3508  -55.6505 C.3       20 UNK         0.1400 
    111 CB        -6.7525  -19.2505  -55.7138 C.3       20 UNK        -0.1800 
    112 C         -4.7710  -20.8086  -55.8796 C.2       20 UNK         0.5000 
    113 O         -4.7583  -21.2643  -57.0234 O.2       20 UNK        -0.5000 
    114 N         -4.3962  -21.5073  -54.8000 N.am      21 UNK        -0.5000 
    115 CA        -3.8680  -22.8717  -54.8267 C.3       21 UNK         0.1400 
    116 CB        -4.0053  -23.4859  -53.4231 C.3       21 UNK        -0.1800 
    117 C         -2.4061  -22.9693  -55.3106 C.2       21 UNK         0.5000 
    118 O         -1.9506  -24.0818  -55.5804 O.2       21 UNK        -0.5000 
    119 N         -1.6866  -21.8407  -55.3867 N.am      22 UNK        -0.5000 
    120 CA        -0.2493  -21.8018  -55.7018 C.3       22 UNK         0.1400 
    121 C          0.1783  -20.5917  -56.5807 C.2       22 UNK         0.5000 
    122 N         -0.5340  -19.4727  -56.5839 N.am      22 UNK        -0.7600 
    123 O          1.1653  -20.6763  -57.3060 O.2       22 UNK        -0.5000 
    124 C124        0.5888  -21.9150  -54.4028 C.3       23 UNK        -0.0398 
    125 S125        2.2731  -22.5746  -54.6554 S.3       23 UNK        -0.2404 
    126 C126        3.3077  -21.1416  -54.2105 C.3       23 UNK        -0.0205 
    127 H127        0.7523  -11.1639  -47.9009 H         1 UNK         0.0600 
    128 H128       -0.5903  -11.2987  -46.7620 H         1 UNK         0.0600 
    129 H129        1.0608  -11.6218  -46.2239 H         1 UNK         0.0600 
    130 H130        0.9350  -12.9218  -49.2681 H         1 UNK         0.3000 
    131 H131        0.9382  -15.5902  -48.3507 H         1 UNK         0.0600 
    132 H132        1.8170  -14.2746  -50.6922 H         1 UNK         0.0800 
    133 H133        0.5870  -15.3160  -51.3121 H         1 UNK         0.0800 
    134 H134        0.7461  -17.7125  -51.6082 H         1 UNK         0.0800 
    135 H135        0.7659  -18.1766  -49.9248 H         1 UNK         0.0800 
    136 H136        2.0526  -18.9268  -53.2324 H         1 UNK         0.1150 
    137 H137        4.1094  -22.4649  -51.9743 H         1 UNK         0.1150 
    138 H138        2.5593  -19.7039  -49.0661 H         1 UNK         0.1150 
    139 H139        3.4137  -23.1420  -49.4585 H         1 UNK         0.0800 
    140 H140        4.9731  -22.3595  -49.4987 H         1 UNK         0.0800 
    141 H141        1.4423  -21.7940  -48.3398 H         1 UNK         0.0800 
    142 H142        1.6455  -20.6928  -47.0063 H         1 UNK         0.0800 
    143 H143        1.5181  -23.7440  -46.8833 H         1 UNK         0.0600 
    144 H144        2.1295  -21.8240  -44.7005 H         1 UNK         0.3000 
    145 H145        2.0115  -23.6269  -42.2752 H         1 UNK         0.0600 
    146 H146        4.2624  -24.4038  -41.4717 H         1 UNK         0.0600 
    147 H147        3.4195  -25.6085  -42.4302 H         1 UNK         0.0600 
    148 H148        4.7400  -24.6994  -43.1442 H         1 UNK         0.0600 
    149 H149        2.7890  -21.5923  -42.1968 H         1 UNK         0.3000 
    150 H150        5.7114  -20.1189  -42.3706 H         1 UNK         0.0600 
    151 H151        5.8434  -19.7333  -44.8016 H         1 UNK         0.0600 
    152 H152        5.1843  -18.3049  -44.0211 H         1 UNK         0.0600 
    153 H153        4.1203  -19.4076  -44.8912 H         1 UNK         0.0600 
    154 H154        2.9755  -19.0948  -42.6996 H         1 UNK         0.3000 
    155 H155        2.0978  -19.5088  -39.3063 H         1 UNK         0.0600 
    156 H156        2.7803  -16.8745  -40.7178 H         1 UNK         0.0600 
    157 H157        3.3797  -17.3789  -39.1428 H         1 UNK         0.0600 
    158 H158        1.6662  -17.0555  -39.3637 H         1 UNK         0.0600 
    159 H159        0.7432  -18.1703  -41.4039 H         1 UNK         0.3000 
    160 H160       -0.5956  -21.0334  -43.0768 H         1 UNK         0.0600 
    161 H161       -2.6796  -19.7381  -42.6609 H         1 UNK         0.0600 
    162 H162       -1.8831  -18.8343  -41.3740 H         1 UNK         0.0600 
    163 H163       -2.1485  -20.5621  -41.2055 H         1 UNK         0.0600 
    164 H164       -0.8129  -18.2399  -43.6138 H         1 UNK         0.3000 
    165 H165        2.0740  -18.0299  -45.7344 H         1 UNK         0.0600 
    166 H166        0.6104  -17.6030  -47.4860 H         1 UNK         0.0600 
    167 H167       -0.0351  -19.1184  -46.9167 H         1 UNK         0.0600 
    168 H168       -0.8367  -17.6223  -46.4858 H         1 UNK         0.0600 
    169 H169       -0.0216  -16.1871  -44.9036 H         1 UNK         0.3000 
    170 H170        1.7088  -15.0131  -42.0225 H         1 UNK         0.0600 
    171 H171        2.8734  -13.6738  -43.7464 H         1 UNK         0.0600 
    172 H172        1.3876  -13.5169  -44.6675 H         1 UNK         0.0600 
    173 H173        1.5209  -12.7749  -43.0750 H         1 UNK         0.0600 
    174 H174       -0.6791  -14.1489  -43.3666 H         1 UNK         0.3000 
    175 H175       -2.8419  -16.6094  -42.1764 H         1 UNK         0.0600 
    176 H176       -4.0086  -14.9654  -40.7389 H         1 UNK         0.0600 
    177 H177       -2.5519  -15.5297  -39.9386 H         1 UNK         0.0600 
    178 H178       -2.5728  -13.9406  -40.6938 H         1 UNK         0.0600 
    179 H179       -3.5349  -14.0212  -42.9887 H         1 UNK         0.3000 
    180 H180       -4.6965  -14.4557  -45.4005 H         1 UNK         0.0600 
    181 H181       -2.3305  -12.5048  -45.2086 H         1 UNK         0.0600 
    182 H182       -3.8121  -12.4548  -44.2571 H         1 UNK         0.0600 
    183 H183       -3.8680  -12.1160  -45.9733 H         1 UNK         0.0600 
    184 H184       -2.2041  -14.5460  -47.0215 H         1 UNK         0.3000 
    185 H185       -3.5702  -15.8579  -49.6725 H         1 UNK         0.0600 
    186 H186       -3.8970  -12.8276  -50.0373 H         1 UNK         0.0600 
    187 H187       -3.6420  -13.9971  -51.3323 H         1 UNK         0.0600 
    188 H188       -5.1240  -14.0329  -50.3959 H         1 UNK         0.0600 
    189 H189       -1.6792  -13.5959  -49.2984 H         1 UNK         0.3000 
    190 H190       -0.1805  -24.1429  -44.8793 H         1 UNK         0.3000 
    191 H191       -2.2906  -22.3570  -44.4524 H         1 UNK         0.0600 
    192 H192       -1.7560  -24.2294  -42.9345 H         1 UNK         0.0600 
    193 H193       -2.2403  -25.4055  -44.1572 H         1 UNK         0.0600 
    194 H194       -3.4359  -24.3342  -43.4358 H         1 UNK         0.0600 
    195 H195       -1.9671  -24.8131  -46.9852 H         1 UNK         0.3000 
    196 H196       -4.6499  -24.7289  -47.9706 H         1 UNK         0.0600 
    197 H197       -3.6416  -25.7922  -49.9969 H         1 UNK         0.0600 
    198 H198       -3.0887  -26.5717  -48.5231 H         1 UNK         0.0600 
    199 H199       -2.0265  -25.4577  -49.3845 H         1 UNK         0.0600 
    200 H200       -1.7335  -22.7961  -48.7260 H         1 UNK         0.3000 
    201 H201       -2.9367  -21.3083  -50.8954 H         1 UNK         0.0600 
    202 H202       -0.4512  -21.6235  -50.6818 H         1 UNK         0.0600 
    203 H203       -0.4622  -20.6274  -49.2249 H         1 UNK         0.0600 
    204 H204       -0.9125  -19.9318  -50.7712 H         1 UNK         0.0600 
    205 H205       -2.4176  -20.7421  -47.3940 H         1 UNK         0.3000 
    206 H206       -3.5064  -18.1431  -47.2320 H         1 UNK         0.0600 
    207 H207       -2.2059  -19.3162  -45.4229 H         1 UNK         0.0600 
    208 H208       -3.6989  -18.6071  -44.8286 H         1 UNK         0.0600 
    209 H209       -3.5945  -20.3426  -45.0960 H         1 UNK         0.0600 
    210 H210       -5.1302  -21.3364  -46.8373 H         1 UNK         0.3000 
    211 H211       -7.7455  -20.3433  -46.3736 H         1 UNK         0.0600 
    212 H212       -6.8005  -23.0482  -47.4614 H         1 UNK         0.0600 
    213 H213       -8.4179  -22.7092  -46.8537 H         1 UNK         0.0600 
    214 H214       -7.0405  -22.6328  -45.7656 H         1 UNK         0.0600 
    215 H215       -6.1071  -21.2918  -49.4204 H         1 UNK         0.3000 
    216 H216       -8.4523  -20.9122  -51.0748 H         1 UNK         0.0600 
    217 H217       -6.8447  -21.3976  -52.9113 H         1 UNK         0.0600 
    218 H218       -6.6674  -22.5562  -51.6056 H         1 UNK         0.0600 
    219 H219       -5.4945  -21.2513  -51.7892 H         1 UNK         0.0600 
    220 H220       -6.3916  -18.6454  -49.6615 H         1 UNK         0.3000 
    221 H221       -5.8729  -16.5171  -49.9239 H         1 UNK         0.0600 
    222 H222       -8.1643  -16.2904  -51.9466 H         1 UNK         0.0600 
    223 H223       -8.3196  -16.1170  -50.1988 H         1 UNK         0.0600 
    224 H224       -7.3669  -14.9633  -51.1178 H         1 UNK         0.0600 
    225 H225       -4.2580  -18.1990  -51.0436 H         1 UNK         0.3000 
    226 H226       -2.4636  -18.4361  -52.2190 H         1 UNK         0.0600 
    227 H227       -2.1219  -15.9777  -52.0903 H         1 UNK         0.0600 
    228 H228       -2.9937  -15.7628  -53.6083 H         1 UNK         0.0600 
    229 H229       -1.4746  -16.6437  -53.5791 H         1 UNK         0.0600 
    230 H230       -5.4665  -18.3796  -53.7812 H         1 UNK         0.3000 
    231 H231       -4.8097  -18.7564  -56.4685 H         1 UNK         0.0600 
    232 H232       -7.0897  -18.2224  -55.5802 H         1 UNK         0.0600 
    233 H233       -7.2264  -19.8623  -54.9459 H         1 UNK         0.0600 
    234 H234       -7.1267  -19.5925  -56.6796 H         1 UNK         0.0600 
    235 H235       -4.4369  -21.0504  -53.9024 H         1 UNK         0.3000 
    236 H236       -4.4738  -23.4650  -55.5149 H         1 UNK         0.0600 
    237 H237       -3.5941  -24.4957  -53.3916 H         1 UNK         0.0600 
    238 H238       -3.4819  -22.8974  -52.6692 H         1 UNK         0.0600 
    239 H239       -5.0510  -23.5627  -53.1289 H         1 UNK         0.0600 
    240 H240       -2.1275  -20.9530  -55.1803 H         1 UNK         0.3000 
    241 H241       -0.0241  -22.6747  -56.3180 H         1 UNK         0.0600 
    242 H242       -0.2394  -18.7165  -57.1804 H         1 UNK         0.3800 
    243 H243       -1.3168  -19.3214  -55.9500 H         1 UNK         0.3800 
    244 H244        0.6086  -20.9569  -53.8851 H         1 UNK         0.0800 
    245 H245        0.1055  -22.6034  -53.7080 H         1 UNK         0.0800 
    246 H246        3.0802  -20.3128  -54.8831 H         1 UNK         0.0800 
    247 H247        4.3553  -21.3945  -54.3794 H         1 UNK         0.0800 
@<TRIPOS>BOND
     1    1    2 1    
     2    1  127 1    
     3    1  128 1    
     4    1  129 1    
     5    2    3 2    
     6    2    4 am   BACKBONE|DICT|INTERRES
     7    4    5 1    
     8    4  130 1    
     9    5    6 1    
    10    5   65 1    
    11    5  131 1    
    12    6    7 1    
    13    6  132 1    
    14    6  133 1    
    15    7    8 1    
    16    8    9 1    
    17    8  134 1    
    18    8  135 1    
    19    9   10 ar   
    20    9   14 ar   
    21   10   11 ar   
    22   10  136 1    
    23   11   12 ar   
    24   11  126 1    
    25   12   13 ar   
    26   12  137 1    
    27   13   14 ar   
    28   13   15 1    
    29   14  138 1    
    30   15   16 1    
    31   15  139 1    
    32   15  140 1    
    33   16   17 1    
    34   17   18 1    
    35   17  141 1    
    36   17  142 1    
    37   18   19 1    
    38   18   67 1    
    39   18  143 1    
    40   19   20 am   BACKBONE|DICT|INTERRES
    41   19  144 1    
    42   20   21 2    
    43   20   22 1    
    44   22   23 1    
    45   22   24 1    
    46   22  145 1    
    47   23  146 1    
    48   23  147 1    
    49   23  148 1    
    50   24   25 am   BACKBONE|DICT|INTERRES
    51   24  149 1    
    52   25   26 2    
    53   25   27 1    
    54   27   28 1    
    55   27   29 1    
    56   27  150 1    
    57   28  151 1    
    58   28  152 1    
    59   28  153 1    
    60   29   30 am   BACKBONE|DICT|INTERRES
    61   29  154 1    
    62   30   31 2    
    63   30   32 1    
    64   32   33 1    
    65   32   34 1    
    66   32  155 1    
    67   33  156 1    
    68   33  157 1    
    69   33  158 1    
    70   34   35 am   BACKBONE|DICT|INTERRES
    71   34  159 1    
    72   35   36 2    
    73   35   37 1    
    74   37   38 1    
    75   37   39 1    
    76   37  160 1    
    77   38  161 1    
    78   38  162 1    
    79   38  163 1    
    80   39   40 am   BACKBONE|DICT|INTERRES
    81   39  164 1    
    82   40   41 2    
    83   40   42 1    
    84   42   43 1    
    85   42   44 1    
    86   42  165 1    
    87   43  166 1    
    88   43  167 1    
    89   43  168 1    
    90   44   45 am   BACKBONE|DICT|INTERRES
    91   44  169 1    
    92   45   46 2    
    93   45   47 1    
    94   47   48 1    
    95   47   49 1    
    96   47  170 1    
    97   48  171 1    
    98   48  172 1    
    99   48  173 1    
   100   49   50 am   BACKBONE|DICT|INTERRES
   101   49  174 1    
   102   50   51 2    
   103   50   52 1    
   104   52   53 1    
   105   52   54 1    
   106   52  175 1    
   107   53  176 1    
   108   53  177 1    
   109   53  178 1    
   110   54   55 am   BACKBONE|DICT|INTERRES
   111   54  179 1    
   112   55   56 2    
   113   55   57 1    
   114   57   58 1    
   115   57   59 1    
   116   57  180 1    
   117   58  181 1    
   118   58  182 1    
   119   58  183 1    
   120   59   60 am   BACKBONE|DICT|INTERRES
   121   59  184 1    
   122   60   61 2    
   123   60   62 1    
   124   62   63 1    
   125   62   64 1    
   126   62  185 1    
   127   63  186 1    
   128   63  187 1    
   129   63  188 1    
   130   64   65 am   BACKBONE|DICT|INTERRES
   131   64  189 1    
   132   65   66 2    
   133   67   68 2    
   134   67   69 am   BACKBONE|DICT|INTERRES
   135   69   70 1    
   136   69  190 1    
   137   70   71 1    
   138   70   72 1    
   139   70  191 1    
   140   71  192 1    
   141   71  193 1    
   142   71  194 1    
   143   72   73 2    
   144   72   74 am   BACKBONE|DICT|INTERRES
   145   74   75 1    
   146   74  195 1    
   147   75   76 1    
   148   75   77 1    
   149   75  196 1    
   150   76  197 1    
   151   76  198 1    
   152   76  199 1    
   153   77   78 2    
   154   77   79 am   BACKBONE|DICT|INTERRES
   155   79   80 1    
   156   79  200 1    
   157   80   81 1    
   158   80   82 1    
   159   80  201 1    
   160   81  202 1    
   161   81  203 1    
   162   81  204 1    
   163   82   83 2    
   164   82   84 am   BACKBONE|DICT|INTERRES
   165   84   85 1    
   166   84  205 1    
   167   85   86 1    
   168   85   87 1    
   169   85  206 1    
   170   86  207 1    
   171   86  208 1    
   172   86  209 1    
   173   87   88 2    
   174   87   89 am   BACKBONE|DICT|INTERRES
   175   89   90 1    
   176   89  210 1    
   177   90   91 1    
   178   90   92 1    
   179   90  211 1    
   180   91  212 1    
   181   91  213 1    
   182   91  214 1    
   183   92   93 2    
   184   92   94 am   BACKBONE|DICT|INTERRES
   185   94   95 1    
   186   94  215 1    
   187   95   96 1    
   188   95   97 1    
   189   95  216 1    
   190   96  217 1    
   191   96  218 1    
   192   96  219 1    
   193   97   98 2    
   194   97   99 am   BACKBONE|DICT|INTERRES
   195   99  100 1    
   196   99  220 1    
   197  100  101 1    
   198  100  102 1    
   199  100  221 1    
   200  101  222 1    
   201  101  223 1    
   202  101  224 1    
   203  102  103 2    
   204  102  104 am   BACKBONE|DICT|INTERRES
   205  104  105 1    
   206  104  225 1    
   207  105  106 1    
   208  105  107 1    
   209  105  226 1    
   210  106  227 1    
   211  106  228 1    
   212  106  229 1    
   213  107  108 2    
   214  107  109 am   BACKBONE|DICT|INTERRES
   215  109  110 1    
   216  109  230 1    
   217  110  111 1    
   218  110  112 1    
   219  110  231 1    
   220  111  232 1    
   221  111  233 1    
   222  111  234 1    
   223  112  113 2    
   224  112  114 am   BACKBONE|DICT|INTERRES
   225  114  115 1    
   226  114  235 1    
   227  115  116 1    
   228  115  117 1    
   229  115  236 1    
   230  116  237 1    
   231  116  238 1    
   232  116  239 1    
   233  117  118 2    
   234  117  119 am   BACKBONE|DICT|INTERRES
   235  119  120 1    
   236  119  240 1    
   237  120  121 1    
   238  120  124 1    
   239  120  241 1    
   240  121  122 am   BACKBONE|DICT|INTERRES
   241  121  123 2    
   242  122  242 1    
   243  122  243 1    
   244  124  125 1    
   245  124  244 1    
   246  124  245 1    
   247  125  126 1    
   248  126  246 1    
   249  126  247 1    
@<TRIPOS>SUBSTRUCTURE
     1 UNK         1 GROUP             0       ****    0 ROOT    
