@<TRIPOS>MOLECULE
3R540
247   249    1
SMALL
USER_CHARGES


@<TRIPOS>ATOM
      1 CA          3.9327  -10.4254  -47.4803 C.3       0 UNK        -0.1800 
      2 C           2.4811  -10.8108  -47.7236 C.2       0 UNK         0.5000 
      3 O           1.9401  -10.5169  -48.7906 O.2       0 UNK        -0.5000 
      4 N           1.8505  -11.4782  -46.7491 N.am      1 UNK        -0.5000 
      5 CA          0.4908  -12.0181  -46.8408 C.3       1 UNK         0.1400 
      6 C6         -0.0246  -12.4836  -45.4593 C.3       23 UNK        -0.0398 
      7 S7         -1.8463  -12.5909  -45.3872 S.3       23 UNK        -0.2404 
      8 C8         -2.1082  -14.1712  -44.5211 C.3       23 UNK        -0.0205 
      9 C9         -2.1510  -15.3543  -45.4765 C.ar      23 UNK        -0.0193 
     10 C10        -3.3768  -15.9025  -45.8655 C.ar      23 UNK        -0.1150 
     11 C11        -3.4204  -17.0266  -46.6952 C.ar      23 UNK        -0.0193 
     12 C12        -2.2279  -17.5642  -47.1837 C.ar      23 UNK        -0.1150 
     13 C13        -0.9936  -17.0382  -46.7905 C.ar      23 UNK        -0.0193 
     14 C14        -0.9673  -15.9373  -45.9326 C.ar      23 UNK        -0.1150 
     15 C15         0.3127  -17.6476  -47.2880 C.3       23 UNK        -0.0205 
     16 S16         0.8177  -19.1229  -46.3382 S.3       23 UNK        -0.2404 
     17 C17        -0.4725  -20.2930  -46.8573 C.3       23 UNK        -0.0398 
     18 CA         -0.1431  -21.7871  -46.6525 C.3       11 UNK         0.1400 
     19 N           0.0578  -22.1268  -45.2387 N.am      11 UNK        -0.5000 
     20 C           0.3496  -23.3505  -44.7727 C.2       10 UNK         0.5000 
     21 O           0.5434  -24.3292  -45.4898 O.2       10 UNK        -0.5000 
     22 CA          0.3569  -23.5327  -43.2478 C.3       10 UNK         0.1400 
     23 CB          1.6913  -23.0770  -42.6383 C.3       10 UNK        -0.1800 
     24 N          -0.7568  -22.8216  -42.6225 N.am      10 UNK        -0.5000 
     25 C          -2.0393  -23.1995  -42.7236 C.2       9 UNK         0.5000 
     26 O          -2.4092  -24.2090  -43.3239 O.2       9 UNK        -0.5000 
     27 CA         -3.0882  -22.2745  -42.0800 C.3       9 UNK         0.1400 
     28 CB         -3.2453  -22.5917  -40.5856 C.3       9 UNK        -0.1800 
     29 N          -2.7688  -20.8559  -42.2434 N.am      9 UNK        -0.5000 
     30 C          -2.7587  -20.2148  -43.4202 C.2       8 UNK         0.5000 
     31 O          -3.0470  -20.7495  -44.4910 O.2       8 UNK        -0.5000 
     32 CA         -2.3174  -18.7392  -43.3989 C.3       8 UNK         0.1400 
     33 CB         -3.5123  -17.8401  -43.0486 C.3       8 UNK        -0.1800 
     34 N          -1.2169  -18.4403  -42.4771 N.am      8 UNK        -0.5000 
     35 C          -0.0321  -19.0615  -42.4207 C.2       7 UNK         0.5000 
     36 O           0.2570  -20.0398  -43.1105 O.2       7 UNK        -0.5000 
     37 CA          0.9890  -18.4923  -41.4125 C.3       7 UNK         0.1400 
     38 CB          2.1719  -19.4482  -41.1751 C.3       7 UNK        -0.1800 
     39 N           1.5188  -17.1943  -41.8309 N.am      7 UNK        -0.5000 
     40 C           0.8585  -16.0288  -41.8222 C.2       6 UNK         0.5000 
     41 O          -0.3034  -15.9145  -41.4274 O.2       6 UNK        -0.5000 
     42 CA          1.6126  -14.7713  -42.3093 C.3       6 UNK         0.1400 
     43 CB          1.7775  -13.7608  -41.1631 C.3       6 UNK        -0.1800 
     44 N           2.9319  -15.0242  -42.9009 N.am      6 UNK        -0.5000 
     45 C           3.1424  -15.5954  -44.0931 C.2       5 UNK         0.5000 
     46 O           2.2418  -16.0513  -44.7944 O.2       5 UNK        -0.5000 
     47 CA          4.6096  -15.7186  -44.5454 C.3       5 UNK         0.1400 
     48 CB          5.2611  -16.9540  -43.9033 C.3       5 UNK        -0.1800 
     49 N           4.7313  -15.8285  -45.9998 N.am      5 UNK        -0.5000 
     50 C           4.4699  -14.8460  -46.8717 C.2       4 UNK         0.5000 
     51 O           4.1885  -13.6937  -46.5314 O.2       4 UNK        -0.5000 
     52 CA          4.5909  -15.2025  -48.3666 C.3       4 UNK         0.1400 
     53 CB          4.0875  -16.6201  -48.7064 C.3       4 UNK        -0.1800 
     54 N           3.8649  -14.2298  -49.1788 N.am      4 UNK        -0.5000 
     55 C           4.2461  -13.7914  -50.3856 C.2       3 UNK         0.5000 
     56 O           5.2820  -14.1632  -50.9408 O.2       3 UNK        -0.5000 
     57 CA          3.3357  -12.7560  -51.0861 C.3       3 UNK         0.1400 
     58 CB          3.4784  -12.7668  -52.6229 C.3       3 UNK        -0.1800 
     59 N           1.9273  -12.8428  -50.6869 N.am      3 UNK        -0.5000 
     60 C           1.0787  -13.8673  -50.8768 C.2       2 UNK         0.5000 
     61 O           1.3584  -14.8780  -51.5229 O.2       2 UNK        -0.5000 
     62 CA         -0.3130  -13.7363  -50.2087 C.3       2 UNK         0.1400 
     63 CB         -0.9761  -15.1028  -49.9402 C.3       2 UNK        -0.1800 
     64 N          -0.2901  -12.9222  -48.9841 N.am      2 UNK        -0.5000 
     65 C           0.4630  -13.1423  -47.8956 C.2       1 UNK         0.5000 
     66 O           1.1933  -14.1231  -47.7508 O.2       1 UNK        -0.5000 
     67 C          -1.2717  -22.6250  -47.2918 C.2       11 UNK         0.5000 
     68 O          -1.1048  -23.1502  -48.3974 O.2       11 UNK        -0.5000 
     69 N          -2.4048  -22.7225  -46.5812 N.am      12 UNK        -0.5000 
     70 CA         -3.5734  -23.5004  -46.9796 C.3       12 UNK         0.1400 
     71 CB         -4.7408  -23.2130  -46.0242 C.3       12 UNK        -0.1800 
     72 C          -3.2713  -25.0060  -47.0557 C.2       12 UNK         0.5000 
     73 O          -3.5879  -25.6350  -48.0659 O.2       12 UNK        -0.5000 
     74 N          -2.6290  -25.5406  -46.0080 N.am      13 UNK        -0.5000 
     75 CA         -2.2245  -26.9434  -45.9123 C.3       13 UNK         0.1400 
     76 CB         -1.7099  -27.2285  -44.4933 C.3       13 UNK        -0.1800 
     77 C          -1.1720  -27.3532  -46.9593 C.2       13 UNK         0.5000 
     78 O          -1.2349  -28.4737  -47.4670 O.2       13 UNK        -0.5000 
     79 N          -0.2263  -26.4507  -47.2553 N.am      14 UNK        -0.5000 
     80 CA          0.8671  -26.6732  -48.1975 C.3       14 UNK         0.1400 
     81 CB          1.9104  -25.5514  -48.0680 C.3       14 UNK        -0.1800 
     82 C           0.3958  -26.8071  -49.6536 C.2       14 UNK         0.5000 
     83 O           0.7377  -27.7964  -50.3041 O.2       14 UNK        -0.5000 
     84 N          -0.3491  -25.8089  -50.1502 N.am      15 UNK        -0.5000 
     85 CA         -0.6916  -25.7083  -51.5716 C.3       15 UNK         0.1400 
     86 CB          0.5444  -25.2436  -52.3766 C.3       15 UNK        -0.1800 
     87 C          -1.9139  -24.8135  -51.8340 C.2       15 UNK         0.5000 
     88 O          -1.9789  -24.1940  -52.8963 O.2       15 UNK        -0.5000 
     89 N          -2.8537  -24.7226  -50.8794 N.am      16 UNK        -0.5000 
     90 CA         -4.0756  -23.9049  -50.9609 C.3       16 UNK         0.1400 
     91 CB         -5.0546  -24.4896  -52.0011 C.3       16 UNK        -0.1800 
     92 C          -3.7764  -22.4080  -51.2002 C.2       16 UNK         0.5000 
     93 O          -4.4342  -21.7658  -52.0218 O.2       16 UNK        -0.5000 
     94 N          -2.7475  -21.8981  -50.5053 N.am      17 UNK        -0.5000 
     95 CA         -2.1831  -20.5518  -50.6436 C.3       17 UNK         0.1400 
     96 CB         -3.2138  -19.4789  -50.2330 C.3       17 UNK        -0.1800 
     97 C          -1.5720  -20.3123  -52.0384 C.2       17 UNK         0.5000 
     98 O          -1.7978  -19.2642  -52.6397 O.2       17 UNK        -0.5000 
     99 N          -0.8361  -21.3156  -52.5412 N.am      18 UNK        -0.5000 
    100 CA        -0.2668  -21.3961  -53.8939 C.3       18 UNK         0.1400 
    101 CB         0.8584  -20.3577  -54.0832 C.3       18 UNK        -0.1800 
    102 C         -1.3625  -21.3183  -54.9791 C.2       18 UNK         0.5000 
    103 O         -1.2318  -20.5790  -55.9560 O.2       18 UNK        -0.5000 
    104 N         -2.4450  -22.0710  -54.7407 N.am      19 UNK        -0.5000 
    105 CA        -3.6862  -22.1578  -55.5124 C.3       19 UNK         0.1400 
    106 CB        -3.4164  -22.7230  -56.9223 C.3       19 UNK        -0.1800 
    107 C         -4.5247  -20.8599  -55.5465 C.2       19 UNK         0.5000 
    108 O         -5.4572  -20.7769  -56.3481 O.2       19 UNK        -0.5000 
    109 N         -4.2206  -19.8785  -54.6818 N.am      20 UNK        -0.5000 
    110 CA        -4.9951  -18.6406  -54.5535 C.3       20 UNK         0.1400 
    111 CB        -4.1748  -17.5725  -53.8159 C.3       20 UNK        -0.1800 
    112 C         -6.3480  -18.8579  -53.8516 C.2       20 UNK         0.5000 
    113 O         -7.2979  -18.1420  -54.1692 O.2       20 UNK        -0.5000 
    114 N         -6.4063  -19.8467  -52.9429 N.am      21 UNK        -0.5000 
    115 CA        -7.5737  -20.3140  -52.1917 C.3       21 UNK         0.1400 
    116 CB        -8.5433  -21.0581  -53.1319 C.3       21 UNK        -0.1800 
    117 C         -8.2669  -19.1908  -51.3930 C.2       21 UNK         0.5000 
    118 O         -9.2846  -18.6536  -51.8359 O.2       21 UNK        -0.5000 
    119 N         -7.6952  -18.8548  -50.2278 N.am      22 UNK        -0.5000 
    120 CA        -8.2063  -17.8242  -49.3015 C.3       22 UNK         0.1400 
    121 C         -9.6594  -18.0503  -48.7792 C.2       22 UNK         0.5000 
    122 N        -10.1753  -19.2735  -48.7541 N.am      22 UNK        -0.7600 
    123 O        -10.3250  -17.0970  -48.3839 O.2       22 UNK        -0.5000 
    124 C124       -7.2706  -17.6176  -48.0835 C.3       23 UNK        -0.0398 
    125 S125       -5.5630  -17.1161  -48.4881 S.3       23 UNK        -0.2404 
    126 C126       -4.7461  -17.7157  -46.9770 C.3       23 UNK        -0.0205 
    127 H127        4.0610   -9.3488  -47.5916 H         1 UNK         0.0600 
    128 H128        4.5773  -10.9258  -48.2029 H         1 UNK         0.0600 
    129 H129        4.2631  -10.7075  -46.4802 H         1 UNK         0.0600 
    130 H130        2.3819  -11.7634  -45.9386 H         1 UNK         0.3000 
    131 H131       -0.1487  -11.1998  -47.1798 H         1 UNK         0.0600 
    132 H132        0.4412  -13.4242  -45.1686 H         1 UNK         0.0800 
    133 H133        0.2701  -11.7632  -44.6949 H         1 UNK         0.0800 
    134 H134       -3.0487  -14.1080  -43.9717 H         1 UNK         0.0800 
    135 H135       -1.3366  -14.3242  -43.7662 H         1 UNK         0.0800 
    136 H136       -4.2976  -15.4808  -45.4877 H         1 UNK         0.1150 
    137 H137       -2.2629  -18.4200  -47.8369 H         1 UNK         0.1150 
    138 H138       -0.0172  -15.5330  -45.6250 H         1 UNK         0.1150 
    139 H139        0.2325  -17.8971  -48.3466 H         1 UNK         0.0800 
    140 H140        1.1068  -16.9041  -47.2118 H         1 UNK         0.0800 
    141 H141       -0.6618  -20.1030  -47.9115 H         1 UNK         0.0800 
    142 H142       -1.3868  -20.0337  -46.3254 H         1 UNK         0.0800 
    143 H143        0.7825  -22.0182  -47.1834 H         1 UNK         0.0600 
    144 H144       -0.0334  -21.3658  -44.5715 H         1 UNK         0.3000 
    145 H145        0.2403  -24.5977  -43.0361 H         1 UNK         0.0600 
    146 H146        1.6906  -23.1888  -41.5541 H         1 UNK         0.0600 
    147 H147        1.9125  -22.0355  -42.8697 H         1 UNK         0.0600 
    148 H148        2.5159  -23.6758  -43.0267 H         1 UNK         0.0600 
    149 H149       -0.5419  -21.9262  -42.2058 H         1 UNK         0.3000 
    150 H150       -4.0446  -22.4649  -42.5718 H         1 UNK         0.0600 
    151 H151       -3.5020  -23.6412  -40.4350 H         1 UNK         0.0600 
    152 H152       -4.0411  -21.9964  -40.1377 H         1 UNK         0.0600 
    153 H153       -2.3261  -22.3957  -40.0321 H         1 UNK         0.0600 
    154 H154       -2.5149  -20.3421  -41.4126 H         1 UNK         0.3000 
    155 H155       -1.9721  -18.4846  -44.4015 H         1 UNK         0.0600 
    156 H156       -4.3309  -17.9856  -43.7543 H         1 UNK         0.0600 
    157 H157       -3.2371  -16.7862  -43.0809 H         1 UNK         0.0600 
    158 H158       -3.8968  -18.0517  -42.0503 H         1 UNK         0.0600 
    159 H159       -1.3158  -17.5992  -41.9186 H         1 UNK         0.3000 
    160 H160        0.4713  -18.3638  -40.4597 H         1 UNK         0.0600 
    161 H161        2.7523  -19.6059  -42.0852 H         1 UNK         0.0600 
    162 H162        1.8235  -20.4235  -40.8331 H         1 UNK         0.0600 
    163 H163        2.8457  -19.0603  -40.4110 H         1 UNK         0.0600 
    164 H164        2.4533  -17.1963  -42.2098 H         1 UNK         0.3000 
    165 H165        0.9869  -14.3093  -43.0732 H         1 UNK         0.0600 
    166 H166        2.2291  -12.8334  -41.5159 H         1 UNK         0.0600 
    167 H167        0.8128  -13.5013  -40.7248 H         1 UNK         0.0600 
    168 H168        2.4043  -14.1587  -40.3642 H         1 UNK         0.0600 
    169 H169        3.7264  -14.7018  -42.3669 H         1 UNK         0.3000 
    170 H170        5.1497  -14.8260  -44.2228 H         1 UNK         0.0600 
    171 H171        4.7524  -17.8741  -44.1951 H         1 UNK         0.0600 
    172 H172        6.3084  -17.0433  -44.1926 H         1 UNK         0.0600 
    173 H173        5.2319  -16.8945  -42.8146 H         1 UNK         0.0600 
    174 H174        4.9250  -16.7508  -46.3596 H         1 UNK         0.3000 
    175 H175        5.6557  -15.1477  -48.6012 H         1 UNK         0.0600 
    176 H176        3.0405  -16.7449  -48.4333 H         1 UNK         0.0600 
    177 H177        4.1741  -16.8208  -49.7745 H         1 UNK         0.0600 
    178 H178        4.6628  -17.3909  -48.1935 H         1 UNK         0.0600 
    179 H179        3.0040  -13.8911  -48.7607 H         1 UNK         0.3000 
    180 H180        3.6804  -11.7814  -50.7383 H         1 UNK         0.0600 
    181 H181        3.2328  -13.7406  -53.0471 H         1 UNK         0.0600 
    182 H182        4.4999  -12.5301  -52.9225 H         1 UNK         0.0600 
    183 H183        2.8273  -12.0247  -53.0849 H         1 UNK         0.0600 
    184 H184        1.6060  -12.0643  -50.1205 H         1 UNK         0.3000 
    185 H185       -0.9413  -13.1994  -50.9204 H         1 UNK         0.0600 
    186 H186       -0.3414  -15.7357  -49.3222 H         1 UNK         0.0600 
    187 H187       -1.9332  -14.9900  -49.4304 H         1 UNK         0.0600 
    188 H188       -1.1635  -15.6396  -50.8708 H         1 UNK         0.0600 
    189 H189       -0.8311  -12.0695  -49.0250 H         1 UNK         0.3000 
    190 H190       -2.4836  -22.2073  -45.7091 H         1 UNK         0.3000 
    191 H191       -3.8676  -23.1618  -47.9727 H         1 UNK         0.0600 
    192 H192       -5.0066  -22.1557  -46.0361 H         1 UNK         0.0600 
    193 H193       -4.4990  -23.4834  -44.9962 H         1 UNK         0.0600 
    194 H194       -5.6296  -23.7753  -46.3126 H         1 UNK         0.0600 
    195 H195       -2.4237  -24.9556  -45.2040 H         1 UNK         0.3000 
    196 H196       -3.1122  -27.5566  -46.0805 H         1 UNK         0.0600 
    197 H197       -2.4799  -27.0299  -43.7475 H         1 UNK         0.0600 
    198 H198       -0.8425  -26.6137  -44.2503 H         1 UNK         0.0600 
    199 H199       -1.4146  -28.2729  -44.3855 H         1 UNK         0.0600 
    200 H200       -0.2007  -25.5786  -46.7340 H         1 UNK         0.3000 
    201 H201        1.3554  -27.6108  -47.9233 H         1 UNK         0.0600 
    202 H202        2.3695  -25.5554  -47.0794 H         1 UNK         0.0600 
    203 H203        1.4689  -24.5669  -48.2277 H         1 UNK         0.0600 
    204 H204        2.7131  -25.6748  -48.7962 H         1 UNK         0.0600 
    205 H205       -0.5941  -25.0244  -49.5562 H         1 UNK         0.3000 
    206 H206       -0.9797  -26.6980  -51.9317 H         1 UNK         0.0600 
    207 H207        1.3853  -25.9258  -52.2543 H         1 UNK         0.0600 
    208 H208        0.8728  -24.2518  -52.0643 H         1 UNK         0.0600 
    209 H209        0.3317  -25.2004  -53.4455 H         1 UNK         0.0600 
    210 H210       -2.7517  -25.2641  -50.0283 H         1 UNK         0.3000 
    211 H211       -4.5676  -23.9693  -49.9915 H         1 UNK         0.0600 
    212 H212       -4.6581  -24.4290  -53.0146 H         1 UNK         0.0600 
    213 H213       -6.0039  -23.9525  -51.9903 H         1 UNK         0.0600 
    214 H214       -5.2730  -25.5361  -51.7894 H         1 UNK         0.0600 
    215 H215       -2.2498  -22.5128  -49.8679 H         1 UNK         0.3000 
    216 H216       -1.3475  -20.4976  -49.9498 H         1 UNK         0.0600 
    217 H217       -2.7564  -18.4896  -50.1950 H         1 UNK         0.0600 
    218 H218       -3.6284  -19.6901  -49.2480 H         1 UNK         0.0600 
    219 H219       -4.0467  -19.4196  -50.9330 H         1 UNK         0.0600 
    220 H220       -0.7547  -22.1571  -51.9898 H         1 UNK         0.3000 
    221 H221        0.1808  -22.3871  -53.9830 H         1 UNK         0.0600 
    222 H222        0.4787  -19.3359  -54.0578 H         1 UNK         0.0600 
    223 H223        1.6167  -20.4529  -53.3062 H         1 UNK         0.0600 
    224 H224        1.3578  -20.4959  -55.0428 H         1 UNK         0.0600 
    225 H225       -2.4098  -22.6796  -53.9257 H         1 UNK         0.3000 
    226 H226       -4.3025  -22.8858  -54.9835 H         1 UNK         0.0600 
    227 H227       -2.8421  -23.6481  -56.8726 H         1 UNK         0.0600 
    228 H228       -4.3491  -22.9509  -57.4393 H         1 UNK         0.0600 
    229 H229       -2.8644  -22.0171  -57.5433 H         1 UNK         0.0600 
    230 H230       -3.4393  -19.9988  -54.0496 H         1 UNK         0.3000 
    231 H231       -5.1986  -18.2638  -55.5582 H         1 UNK         0.0600 
    232 H232       -4.6921  -16.6125  -53.8252 H         1 UNK         0.0600 
    233 H233       -3.2025  -17.4233  -54.2858 H         1 UNK         0.0600 
    234 H234       -4.0091  -17.8393  -52.7724 H         1 UNK         0.0600 
    235 H235       -5.5565  -20.3763  -52.7643 H         1 UNK         0.3000 
    236 H236       -7.2035  -21.0423  -51.4684 H         1 UNK         0.0600 
    237 H237       -8.9350  -20.4064  -53.9136 H         1 UNK         0.0600 
    238 H238       -8.0491  -21.9001  -53.6169 H         1 UNK         0.0600 
    239 H239       -9.3953  -21.4549  -52.5787 H         1 UNK         0.0600 
    240 H240       -6.8428  -19.3161  -49.9469 H         1 UNK         0.3000 
    241 H241       -8.2287  -16.8886  -49.8632 H         1 UNK         0.0600 
    242 H242      -11.1158  -19.4073  -48.4168 H         1 UNK         0.3800 
    243 H243       -9.6426  -20.0653  -49.0756 H         1 UNK         0.3800 
    244 H244       -7.2382  -18.5356  -47.4933 H         1 UNK         0.0800 
    245 H245       -7.6731  -16.8483  -47.4212 H         1 UNK         0.0800 
    246 H246       -4.5978  -18.7942  -47.0523 H         1 UNK         0.0800 
    247 H247       -5.4081  -17.5649  -46.1227 H         1 UNK         0.0800 
@<TRIPOS>BOND
     1    1    2 1    
     2    1  127 1    
     3    1  128 1    
     4    1  129 1    
     5    2    3 2    
     6    2    4 am   BACKBONE|DICT|INTERRES
     7    4    5 1    
     8    4  130 1    
     9    5    6 1    
    10    5   65 1    
    11    5  131 1    
    12    6    7 1    
    13    6  132 1    
    14    6  133 1    
    15    7    8 1    
    16    8    9 1    
    17    8  134 1    
    18    8  135 1    
    19    9   10 ar   
    20    9   14 ar   
    21   10   11 ar   
    22   10  136 1    
    23   11   12 ar   
    24   11  126 1    
    25   12   13 ar   
    26   12  137 1    
    27   13   14 ar   
    28   13   15 1    
    29   14  138 1    
    30   15   16 1    
    31   15  139 1    
    32   15  140 1    
    33   16   17 1    
    34   17   18 1    
    35   17  141 1    
    36   17  142 1    
    37   18   19 1    
    38   18   67 1    
    39   18  143 1    
    40   19   20 am   BACKBONE|DICT|INTERRES
    41   19  144 1    
    42   20   21 2    
    43   20   22 1    
    44   22   23 1    
    45   22   24 1    
    46   22  145 1    
    47   23  146 1    
    48   23  147 1    
    49   23  148 1    
    50   24   25 am   BACKBONE|DICT|INTERRES
    51   24  149 1    
    52   25   26 2    
    53   25   27 1    
    54   27   28 1    
    55   27   29 1    
    56   27  150 1    
    57   28  151 1    
    58   28  152 1    
    59   28  153 1    
    60   29   30 am   BACKBONE|DICT|INTERRES
    61   29  154 1    
    62   30   31 2    
    63   30   32 1    
    64   32   33 1    
    65   32   34 1    
    66   32  155 1    
    67   33  156 1    
    68   33  157 1    
    69   33  158 1    
    70   34   35 am   BACKBONE|DICT|INTERRES
    71   34  159 1    
    72   35   36 2    
    73   35   37 1    
    74   37   38 1    
    75   37   39 1    
    76   37  160 1    
    77   38  161 1    
    78   38  162 1    
    79   38  163 1    
    80   39   40 am   BACKBONE|DICT|INTERRES
    81   39  164 1    
    82   40   41 2    
    83   40   42 1    
    84   42   43 1    
    85   42   44 1    
    86   42  165 1    
    87   43  166 1    
    88   43  167 1    
    89   43  168 1    
    90   44   45 am   BACKBONE|DICT|INTERRES
    91   44  169 1    
    92   45   46 2    
    93   45   47 1    
    94   47   48 1    
    95   47   49 1    
    96   47  170 1    
    97   48  171 1    
    98   48  172 1    
    99   48  173 1    
   100   49   50 am   BACKBONE|DICT|INTERRES
   101   49  174 1    
   102   50   51 2    
   103   50   52 1    
   104   52   53 1    
   105   52   54 1    
   106   52  175 1    
   107   53  176 1    
   108   53  177 1    
   109   53  178 1    
   110   54   55 am   BACKBONE|DICT|INTERRES
   111   54  179 1    
   112   55   56 2    
   113   55   57 1    
   114   57   58 1    
   115   57   59 1    
   116   57  180 1    
   117   58  181 1    
   118   58  182 1    
   119   58  183 1    
   120   59   60 am   BACKBONE|DICT|INTERRES
   121   59  184 1    
   122   60   61 2    
   123   60   62 1    
   124   62   63 1    
   125   62   64 1    
   126   62  185 1    
   127   63  186 1    
   128   63  187 1    
   129   63  188 1    
   130   64   65 am   BACKBONE|DICT|INTERRES
   131   64  189 1    
   132   65   66 2    
   133   67   68 2    
   134   67   69 am   BACKBONE|DICT|INTERRES
   135   69   70 1    
   136   69  190 1    
   137   70   71 1    
   138   70   72 1    
   139   70  191 1    
   140   71  192 1    
   141   71  193 1    
   142   71  194 1    
   143   72   73 2    
   144   72   74 am   BACKBONE|DICT|INTERRES
   145   74   75 1    
   146   74  195 1    
   147   75   76 1    
   148   75   77 1    
   149   75  196 1    
   150   76  197 1    
   151   76  198 1    
   152   76  199 1    
   153   77   78 2    
   154   77   79 am   BACKBONE|DICT|INTERRES
   155   79   80 1    
   156   79  200 1    
   157   80   81 1    
   158   80   82 1    
   159   80  201 1    
   160   81  202 1    
   161   81  203 1    
   162   81  204 1    
   163   82   83 2    
   164   82   84 am   BACKBONE|DICT|INTERRES
   165   84   85 1    
   166   84  205 1    
   167   85   86 1    
   168   85   87 1    
   169   85  206 1    
   170   86  207 1    
   171   86  208 1    
   172   86  209 1    
   173   87   88 2    
   174   87   89 am   BACKBONE|DICT|INTERRES
   175   89   90 1    
   176   89  210 1    
   177   90   91 1    
   178   90   92 1    
   179   90  211 1    
   180   91  212 1    
   181   91  213 1    
   182   91  214 1    
   183   92   93 2    
   184   92   94 am   BACKBONE|DICT|INTERRES
   185   94   95 1    
   186   94  215 1    
   187   95   96 1    
   188   95   97 1    
   189   95  216 1    
   190   96  217 1    
   191   96  218 1    
   192   96  219 1    
   193   97   98 2    
   194   97   99 am   BACKBONE|DICT|INTERRES
   195   99  100 1    
   196   99  220 1    
   197  100  101 1    
   198  100  102 1    
   199  100  221 1    
   200  101  222 1    
   201  101  223 1    
   202  101  224 1    
   203  102  103 2    
   204  102  104 am   BACKBONE|DICT|INTERRES
   205  104  105 1    
   206  104  225 1    
   207  105  106 1    
   208  105  107 1    
   209  105  226 1    
   210  106  227 1    
   211  106  228 1    
   212  106  229 1    
   213  107  108 2    
   214  107  109 am   BACKBONE|DICT|INTERRES
   215  109  110 1    
   216  109  230 1    
   217  110  111 1    
   218  110  112 1    
   219  110  231 1    
   220  111  232 1    
   221  111  233 1    
   222  111  234 1    
   223  112  113 2    
   224  112  114 am   BACKBONE|DICT|INTERRES
   225  114  115 1    
   226  114  235 1    
   227  115  116 1    
   228  115  117 1    
   229  115  236 1    
   230  116  237 1    
   231  116  238 1    
   232  116  239 1    
   233  117  118 2    
   234  117  119 am   BACKBONE|DICT|INTERRES
   235  119  120 1    
   236  119  240 1    
   237  120  121 1    
   238  120  124 1    
   239  120  241 1    
   240  121  122 am   BACKBONE|DICT|INTERRES
   241  121  123 2    
   242  122  242 1    
   243  122  243 1    
   244  124  125 1    
   245  124  244 1    
   246  124  245 1    
   247  125  126 1    
   248  126  246 1    
   249  126  247 1    
@<TRIPOS>SUBSTRUCTURE
     1 UNK         1 GROUP             0       ****    0 ROOT    
