@<TRIPOS>MOLECULE
3R540
247   249    1
SMALL
USER_CHARGES


@<TRIPOS>ATOM
      1 CA         -2.3886  -12.0674  -43.6248 C.3       0 UNK        -0.1800 
      2 C          -1.4805  -11.6169  -44.7598 C.2       0 UNK         0.5000 
      3 O          -0.6954  -10.6849  -44.5823 O.2       0 UNK        -0.5000 
      4 N          -1.5984  -12.2635  -45.9258 N.am      1 UNK        -0.5000 
      5 CA         -0.7700  -12.0149  -47.1091 C.3       1 UNK         0.1400 
      6 C6         -1.5076  -12.4246  -48.4114 C.3       23 UNK        -0.0398 
      7 S7         -1.7328  -14.2237  -48.6580 S.3       23 UNK        -0.2404 
      8 C8         -0.7298  -14.4634  -50.1585 C.3       23 UNK        -0.0205 
      9 C9         -0.7737  -15.9019  -50.6449 C.ar      23 UNK        -0.0193 
     10 C10        -1.7748  -16.3150  -51.5294 C.ar      23 UNK        -0.1150 
     11 C11        -1.8095  -17.6324  -51.9943 C.ar      23 UNK        -0.0193 
     12 C12        -0.8408  -18.5403  -51.5606 C.ar      23 UNK        -0.1150 
     13 C13         0.1671  -18.1395  -50.6810 C.ar      23 UNK        -0.0193 
     14 C14         0.1981  -16.8167  -50.2289 C.ar      23 UNK        -0.1150 
     15 C15         1.2228  -19.1381  -50.2286 C.3       23 UNK        -0.0205 
     16 S16         1.1891  -19.4104  -48.4302 S.3       23 UNK        -0.2404 
     17 C17        -0.4924  -20.0696  -48.1643 C.3       23 UNK        -0.0398 
     18 CA         -0.4811  -21.4306  -47.4318 C.3       11 UNK         0.1400 
     19 N           0.1177  -21.3579  -46.0938 N.am      11 UNK        -0.5000 
     20 C           0.3991  -22.4212  -45.3277 C.2       10 UNK         0.5000 
     21 O           0.2496  -23.5842  -45.6990 O.2       10 UNK        -0.5000 
     22 CA          0.8600  -22.1466  -43.8842 C.3       10 UNK         0.1400 
     23 CB          2.3683  -21.8636  -43.8205 C.3       10 UNK        -0.1800 
     24 N           0.1115  -21.0516  -43.2639 N.am      10 UNK        -0.5000 
     25 C          -1.1963  -21.1126  -42.9731 C.2       9 UNK         0.5000 
     26 O          -1.8801  -22.1229  -43.1359 O.2       9 UNK        -0.5000 
     27 CA         -1.8659  -19.8270  -42.4532 C.3       9 UNK         0.1400 
     28 CB         -1.6760  -19.6930  -40.9354 C.3       9 UNK        -0.1800 
     29 N          -1.3794  -18.6189  -43.1204 N.am      9 UNK        -0.5000 
     30 C          -1.5396  -18.3469  -44.4236 C.2       8 UNK         0.5000 
     31 O          -2.1736  -19.0661  -45.1949 O.2       8 UNK        -0.5000 
     32 CA         -0.8209  -17.0963  -44.9696 C.3       8 UNK         0.1400 
     33 CB         -1.6449  -15.8295  -44.7031 C.3       8 UNK        -0.1800 
     34 N           0.5287  -16.9340  -44.4225 N.am      8 UNK        -0.5000 
     35 C           1.5122  -17.8336  -44.5710 C.2       7 UNK         0.5000 
     36 O           1.3907  -18.8772  -45.2078 O.2       7 UNK        -0.5000 
     37 CA          2.8230  -17.5650  -43.8176 C.3       7 UNK         0.1400 
     38 CB          3.7036  -16.5528  -44.5681 C.3       7 UNK        -0.1800 
     39 N           2.5549  -17.1016  -42.4565 N.am      7 UNK        -0.5000 
     40 C           2.1159  -17.8977  -41.4696 C.2       6 UNK         0.5000 
     41 O           1.9592  -19.1124  -41.5950 O.2       6 UNK        -0.5000 
     42 CA          1.7584  -17.2246  -40.1292 C.3       6 UNK         0.1400 
     43 CB          2.9997  -17.1224  -39.2306 C.3       6 UNK        -0.1800 
     44 N           1.1749  -15.8927  -40.2954 N.am      6 UNK        -0.5000 
     45 C          -0.0084  -15.6462  -40.8755 C.2       5 UNK         0.5000 
     46 O          -0.7728  -16.5287  -41.2599 O.2       5 UNK        -0.5000 
     47 CA         -0.3758  -14.1689  -41.1232 C.3       5 UNK         0.1400 
     48 CB         -1.2305  -13.6242  -39.9698 C.3       5 UNK        -0.1800 
     49 N           0.7841  -13.2931  -41.3247 N.am      5 UNK        -0.5000 
     50 C           1.7031  -13.4555  -42.2859 C.2       4 UNK         0.5000 
     51 O           1.6556  -14.3590  -43.1238 O.2       4 UNK        -0.5000 
     52 CA          2.9180  -12.5196  -42.2371 C.3       4 UNK         0.1400 
     53 CB          3.7803  -12.8552  -40.9991 C.3       4 UNK        -0.1800 
     54 N           3.6939  -12.6915  -43.4632 N.am      4 UNK        -0.5000 
     55 C           4.7685  -11.9812  -43.8258 C.2       3 UNK         0.5000 
     56 O           5.2086  -11.0261  -43.1842 O.2       3 UNK        -0.5000 
     57 CA          5.4869  -12.4089  -45.1197 C.3       3 UNK         0.1400 
     58 CB          6.5326  -13.4940  -44.8195 C.3       3 UNK        -0.1800 
     59 N           4.5861  -12.8890  -46.1689 N.am      3 UNK        -0.5000 
     60 C           3.7289  -12.1116  -46.8429 C.2       2 UNK         0.5000 
     61 O           3.5853  -10.9072  -46.6202 O.2       2 UNK        -0.5000 
     62 CA          2.9222  -12.7581  -47.9894 C.3       2 UNK         0.1400 
     63 CB          3.0672  -14.2955  -48.0991 C.3       2 UNK        -0.1800 
     64 N           1.5148  -12.3506  -47.9396 N.am      2 UNK        -0.5000 
     65 C           0.6357  -12.6483  -46.9719 C.2       1 UNK         0.5000 
     66 O           0.8963  -13.3869  -46.0201 O.2       1 UNK        -0.5000 
     67 C          -1.8988  -22.0372  -47.3845 C.2       11 UNK         0.5000 
     68 O          -2.2084  -22.9049  -48.1972 O.2       11 UNK        -0.5000 
     69 N          -2.7156  -21.6196  -46.4064 N.am      12 UNK        -0.5000 
     70 CA         -4.0581  -22.1549  -46.1685 C.3       12 UNK         0.1400 
     71 CB         -4.7741  -21.3052  -45.1090 C.3       12 UNK        -0.1800 
     72 C          -4.0661  -23.6465  -45.7768 C.2       12 UNK         0.5000 
     73 O          -4.9947  -24.3648  -46.1465 O.2       12 UNK        -0.5000 
     74 N          -3.0301  -24.0948  -45.0557 N.am      13 UNK        -0.5000 
     75 CA         -2.8091  -25.5022  -44.7238 C.3       13 UNK         0.1400 
     76 CB         -1.7955  -25.6018  -43.5739 C.3       13 UNK        -0.1800 
     77 C          -2.3443  -26.3332  -45.9367 C.2       13 UNK         0.5000 
     78 O          -2.6855  -27.5131  -46.0285 O.2       13 UNK        -0.5000 
     79 N          -1.5941  -25.7116  -46.8562 N.am      14 UNK        -0.5000 
     80 CA         -1.0112  -26.3164  -48.0570 C.3       14 UNK         0.1400 
     81 CB          0.2282  -25.5034  -48.4726 C.3       14 UNK        -0.1800 
     82 C          -2.0198  -26.5058  -49.2139 C.2       14 UNK         0.5000 
     83 O          -1.7198  -26.1594  -50.3591 O.2       14 UNK        -0.5000 
     84 N          -3.1815  -27.0944  -48.8957 N.am      15 UNK        -0.5000 
     85 CA         -4.2393  -27.5596  -49.7975 C.3       15 UNK         0.1400 
     86 CB         -3.8060  -28.8884  -50.4556 C.3       15 UNK        -0.1800 
     87 C          -4.7011  -26.4902  -50.8110 C.2       15 UNK         0.5000 
     88 O          -5.3956  -25.5504  -50.4240 O.2       15 UNK        -0.5000 
     89 N          -4.3096  -26.6485  -52.0838 N.am      16 UNK        -0.5000 
     90 CA         -4.6679  -25.7888  -53.2148 C.3       16 UNK         0.1400 
     91 CB         -4.0551  -26.3746  -54.4956 C.3       16 UNK        -0.1800 
     92 C          -4.2627  -24.3117  -53.0499 C.2       16 UNK         0.5000 
     93 O          -4.9476  -23.4407  -53.5858 O.2       16 UNK        -0.5000 
     94 N          -3.2058  -24.0463  -52.2687 N.am      17 UNK        -0.5000 
     95 CA         -2.7333  -22.6991  -51.9412 C.3       17 UNK         0.1400 
     96 CB         -1.3034  -22.7860  -51.3852 C.3       17 UNK        -0.1800 
     97 C          -3.6773  -21.9020  -51.0122 C.2       17 UNK         0.5000 
     98 O          -3.4439  -20.7117  -50.8059 O.2       17 UNK        -0.5000 
     99 N          -4.7404  -22.5377  -50.4954 N.am      18 UNK        -0.5000 
    100 CA        -5.8620  -21.8626  -49.8411 C.3       18 UNK         0.1400 
    101 CB        -6.6698  -22.8942  -49.0399 C.3       18 UNK        -0.1800 
    102 C         -6.7878  -21.1474  -50.8468 C.2       18 UNK         0.5000 
    103 O         -7.4878  -20.2108  -50.4591 O.2       18 UNK        -0.5000 
    104 N         -6.7917  -21.6096  -52.1040 N.am      19 UNK        -0.5000 
    105 CA        -7.5459  -21.0438  -53.2187 C.3       19 UNK         0.1400 
    106 CB        -8.1651  -22.2049  -54.0208 C.3       19 UNK        -0.1800 
    107 C         -6.6250  -20.1644  -54.0875 C.2       19 UNK         0.5000 
    108 O         -5.5135  -19.8303  -53.6761 O.2       19 UNK        -0.5000 
    109 N         -7.0988  -19.8042  -55.2880 N.am      20 UNK        -0.5000 
    110 CA        -6.3756  -18.9871  -56.2697 C.3       20 UNK         0.1400 
    111 CB        -7.3608  -18.5450  -57.3632 C.3       20 UNK        -0.1800 
    112 C         -5.1476  -19.6820  -56.8978 C.2       20 UNK         0.5000 
    113 O         -4.3269  -19.0094  -57.5238 O.2       20 UNK        -0.5000 
    114 N         -5.0266  -21.0045  -56.7220 N.am      21 UNK        -0.5000 
    115 CA        -3.8909  -21.8252  -57.1416 C.3       21 UNK         0.1400 
    116 CB        -4.3686  -23.2813  -57.2821 C.3       21 UNK        -0.1800 
    117 C         -2.7020  -21.6747  -56.1675 C.2       21 UNK         0.5000 
    118 O         -2.2902  -22.6456  -55.5317 O.2       21 UNK        -0.5000 
    119 N         -2.1871  -20.4445  -56.0559 N.am      22 UNK        -0.5000 
    120 CA        -1.1244  -20.0370  -55.1219 C.3       22 UNK         0.1400 
    121 C          0.2739  -20.6776  -55.3671 C.2       22 UNK         0.5000 
    122 N          0.5446  -21.2700  -56.5237 N.am      22 UNK        -0.7600 
    123 O          1.1290  -20.6352  -54.4874 O.2       22 UNK        -0.5000 
    124 C124       -0.9911  -18.4926  -55.0373 C.3       23 UNK        -0.0398 
    125 S125       -2.5499  -17.6060  -54.6812 S.3       23 UNK        -0.2404 
    126 C126       -2.8964  -18.0821  -52.9578 C.3       23 UNK        -0.0205 
    127 H127       -3.2730  -11.4322  -43.5782 H         1 UNK         0.0600 
    128 H128       -1.8664  -11.9908  -42.6716 H         1 UNK         0.0600 
    129 H129       -2.7123  -13.1002  -43.7547 H         1 UNK         0.0600 
    130 H130       -2.2378  -13.0407  -46.0044 H         1 UNK         0.3000 
    131 H131       -0.6101  -10.9360  -47.1693 H         1 UNK         0.0600 
    132 H132       -2.4962  -11.9636  -48.4263 H         1 UNK         0.0800 
    133 H133       -0.9923  -12.0006  -49.2742 H         1 UNK         0.0800 
    134 H134       -1.0913  -13.8007  -50.9464 H         1 UNK         0.0800 
    135 H135        0.3009  -14.1690  -49.9578 H         1 UNK         0.0800 
    136 H136       -2.5253  -15.6106  -51.8600 H         1 UNK         0.1150 
    137 H137       -0.8717  -19.5610  -51.9127 H         1 UNK         0.1150 
    138 H138        0.9744  -16.5046  -49.5448 H         1 UNK         0.1150 
    139 H139        1.1016  -20.0962  -50.7366 H         1 UNK         0.0800 
    140 H140        2.2077  -18.7637  -50.5104 H         1 UNK         0.0800 
    141 H141       -1.0626  -19.3292  -47.6027 H         1 UNK         0.0800 
    142 H142       -0.9965  -20.1690  -49.1271 H         1 UNK         0.0800 
    143 H143        0.1350  -22.1134  -48.0206 H         1 UNK         0.0600 
    144 H144        0.3399  -20.4301  -45.7427 H         1 UNK         0.3000 
    145 H145        0.6685  -23.0496  -43.3006 H         1 UNK         0.0600 
    146 H146        2.6947  -21.6939  -42.7943 H         1 UNK         0.0600 
    147 H147        2.9367  -22.7100  -44.2076 H         1 UNK         0.0600 
    148 H148        2.6466  -20.9901  -44.4084 H         1 UNK         0.0600 
    149 H149        0.6175  -20.1932  -43.0859 H         1 UNK         0.3000 
    150 H150       -2.9360  -19.9069  -42.6532 H         1 UNK         0.0600 
    151 H151       -2.0483  -20.5766  -40.4155 H         1 UNK         0.0600 
    152 H152       -2.2201  -18.8330  -40.5447 H         1 UNK         0.0600 
    153 H153       -0.6255  -19.5734  -40.6700 H         1 UNK         0.0600 
    154 H154       -0.9110  -17.9341  -42.5333 H         1 UNK         0.3000 
    155 H155       -0.7211  -17.2137  -46.0509 H         1 UNK         0.0600 
    156 H156       -1.1297  -14.9441  -45.0730 H         1 UNK         0.0600 
    157 H157       -1.8374  -15.6881  -43.6402 H         1 UNK         0.0600 
    158 H158       -2.6103  -15.8816  -45.2075 H         1 UNK         0.0600 
    159 H159        0.7248  -16.0810  -43.9101 H         1 UNK         0.3000 
    160 H160        3.3761  -18.5050  -43.7572 H         1 UNK         0.0600 
    161 H161        3.1879  -15.6101  -44.7468 H         1 UNK         0.0600 
    162 H162        3.9971  -16.9474  -45.5415 H         1 UNK         0.0600 
    163 H163        4.6172  -16.3399  -44.0136 H         1 UNK         0.0600 
    164 H164        2.5653  -16.1003  -42.3143 H         1 UNK         0.3000 
    165 H165        1.0227  -17.8558  -39.6265 H         1 UNK         0.0600 
    166 H166        3.7641  -16.4801  -39.6699 H         1 UNK         0.0600 
    167 H167        2.7449  -16.7198  -38.2501 H         1 UNK         0.0600 
    168 H168        3.4475  -18.1043  -39.0711 H         1 UNK         0.0600 
    169 H169        1.7369  -15.1086  -40.0003 H         1 UNK         0.3000 
    170 H170       -0.9716  -14.1377  -42.0360 H         1 UNK         0.0600 
    171 H171       -2.1179  -14.2401  -39.8173 H         1 UNK         0.0600 
    172 H172       -0.6760  -13.6086  -39.0307 H         1 UNK         0.0600 
    173 H173       -1.5728  -12.6099  -40.1752 H         1 UNK         0.0600 
    174 H174        0.8968  -12.5396  -40.6617 H         1 UNK         0.3000 
    175 H175        2.5626  -11.4889  -42.1827 H         1 UNK         0.0600 
    176 H176        4.6245  -12.1744  -40.8950 H         1 UNK         0.0600 
    177 H177        3.2045  -12.7759  -40.0765 H         1 UNK         0.0600 
    178 H178        4.1772  -13.8699  -41.0520 H         1 UNK         0.0600 
    179 H179        3.3426  -13.4232  -44.0694 H         1 UNK         0.3000 
    180 H180        6.0141  -11.5336  -45.5055 H         1 UNK         0.0600 
    181 H181        7.1083  -13.7459  -45.7103 H         1 UNK         0.0600 
    182 H182        7.2404  -13.1545  -44.0621 H         1 UNK         0.0600 
    183 H183        6.0699  -14.4084  -44.4478 H         1 UNK         0.0600 
    184 H184        4.6479  -13.8667  -46.4112 H         1 UNK         0.3000 
    185 H185        3.3250  -12.3321  -48.9093 H         1 UNK         0.0600 
    186 H186        2.4810  -14.6813  -48.9321 H         1 UNK         0.0600 
    187 H187        4.1027  -14.5825  -48.2853 H         1 UNK         0.0600 
    188 H188        2.7365  -14.8121  -47.1977 H         1 UNK         0.0600 
    189 H189        1.2353  -11.7019  -48.6613 H         1 UNK         0.3000 
    190 H190       -2.4135  -20.8573  -45.8052 H         1 UNK         0.3000 
    191 H191       -4.6115  -22.0599  -47.1025 H         1 UNK         0.0600 
    192 H192       -5.8001  -21.6461  -44.9655 H         1 UNK         0.0600 
    193 H193       -4.8176  -20.2571  -45.4059 H         1 UNK         0.0600 
    194 H194       -4.2732  -21.3600  -44.1430 H         1 UNK         0.0600 
    195 H195       -2.3465  -23.4275  -44.7162 H         1 UNK         0.3000 
    196 H196       -3.7536  -25.9250  -44.3751 H         1 UNK         0.0600 
    197 H197       -1.6485  -26.6397  -43.2728 H         1 UNK         0.0600 
    198 H198       -2.1396  -25.0534  -42.6967 H         1 UNK         0.0600 
    199 H199       -0.8218  -25.2019  -43.8566 H         1 UNK         0.0600 
    200 H200       -1.3664  -24.7368  -46.7020 H         1 UNK         0.3000 
    201 H201       -0.6614  -27.3165  -47.7934 H         1 UNK         0.0600 
    202 H202        0.9592  -25.4606  -47.6651 H         1 UNK         0.0600 
    203 H203       -0.0334  -24.4803  -48.7389 H         1 UNK         0.0600 
    204 H204        0.7258  -25.9519  -49.3332 H         1 UNK         0.0600 
    205 H205       -3.3161  -27.3161  -47.9148 H         1 UNK         0.3000 
    206 H206       -5.1059  -27.7724  -49.1700 H         1 UNK         0.0600 
    207 H207       -3.6255  -29.6530  -49.6998 H         1 UNK         0.0600 
    208 H208       -4.5820  -29.2736  -51.1186 H         1 UNK         0.0600 
    209 H209       -2.8893  -28.7819  -51.0368 H         1 UNK         0.0600 
    210 H210       -3.7087  -27.4318  -52.2944 H         1 UNK         0.3000 
    211 H211       -5.7550  -25.8162  -53.3120 H         1 UNK         0.0600 
    212 H212       -2.9653  -26.3858  -54.4497 H         1 UNK         0.0600 
    213 H213       -4.3395  -25.7888  -55.3697 H         1 UNK         0.0600 
    214 H214       -4.3963  -27.3956  -54.6674 H         1 UNK         0.0600 
    215 H215       -2.7255  -24.8173  -51.8181 H         1 UNK         0.3000 
    216 H216       -2.6862  -22.1304  -52.8716 H         1 UNK         0.0600 
    217 H217       -0.9409  -21.8121  -51.0570 H         1 UNK         0.0600 
    218 H218       -0.6116  -23.1509  -52.1445 H         1 UNK         0.0600 
    219 H219       -1.2473  -23.4619  -50.5340 H         1 UNK         0.0600 
    220 H220       -4.8442  -23.5341  -50.6535 H         1 UNK         0.3000 
    221 H221       -5.4660  -21.1152  -49.1508 H         1 UNK         0.0600 
    222 H222       -7.2030  -23.5839  -49.6956 H         1 UNK         0.0600 
    223 H223       -6.0273  -23.4906  -48.3946 H         1 UNK         0.0600 
    224 H224       -7.4102  -22.4041  -48.4068 H         1 UNK         0.0600 
    225 H225       -6.1151  -22.3199  -52.3624 H         1 UNK         0.3000 
    226 H226       -8.3542  -20.4116  -52.8463 H         1 UNK         0.0600 
    227 H227       -8.7315  -22.8717  -53.3702 H         1 UNK         0.0600 
    228 H228       -8.8574  -21.8428  -54.7811 H         1 UNK         0.0600 
    229 H229       -7.4036  -22.8020  -54.5237 H         1 UNK         0.0600 
    230 H230       -8.0203  -20.1146  -55.5602 H         1 UNK         0.3000 
    231 H231       -6.0089  -18.0940  -55.7592 H         1 UNK         0.0600 
    232 H232       -6.8709  -17.9016  -58.0954 H         1 UNK         0.0600 
    233 H233       -8.1913  -17.9786  -56.9414 H         1 UNK         0.0600 
    234 H234       -7.7736  -19.3992  -57.9013 H         1 UNK         0.0600 
    235 H235       -5.7219  -21.4674  -56.1562 H         1 UNK         0.3000 
    236 H236       -3.5514  -21.4908  -58.1241 H         1 UNK         0.0600 
    237 H237       -4.7723  -23.6606  -56.3434 H         1 UNK         0.0600 
    238 H238       -5.1477  -23.3683  -58.0395 H         1 UNK         0.0600 
    239 H239       -3.5506  -23.9379  -57.5811 H         1 UNK         0.0600 
    240 H240       -2.6235  -19.7003  -56.5891 H         1 UNK         0.3000 
    241 H241       -1.4319  -20.3946  -54.1388 H         1 UNK         0.0600 
    242 H242        1.4519  -21.6845  -56.6687 H         1 UNK         0.3800 
    243 H243       -0.1510  -21.3189  -57.2505 H         1 UNK         0.3800 
    244 H244       -0.6113  -18.1054  -55.9842 H         1 UNK         0.0800 
    245 H245       -0.2517  -18.2066  -54.2880 H         1 UNK         0.0800 
    246 H246       -3.8514  -17.6491  -52.6571 H         1 UNK         0.0800 
    247 H247       -3.0324  -19.1623  -52.9060 H         1 UNK         0.0800 
@<TRIPOS>BOND
     1    1    2 1    
     2    1  127 1    
     3    1  128 1    
     4    1  129 1    
     5    2    3 2    
     6    2    4 am   BACKBONE|DICT|INTERRES
     7    4    5 1    
     8    4  130 1    
     9    5    6 1    
    10    5   65 1    
    11    5  131 1    
    12    6    7 1    
    13    6  132 1    
    14    6  133 1    
    15    7    8 1    
    16    8    9 1    
    17    8  134 1    
    18    8  135 1    
    19    9   10 ar   
    20    9   14 ar   
    21   10   11 ar   
    22   10  136 1    
    23   11   12 ar   
    24   11  126 1    
    25   12   13 ar   
    26   12  137 1    
    27   13   14 ar   
    28   13   15 1    
    29   14  138 1    
    30   15   16 1    
    31   15  139 1    
    32   15  140 1    
    33   16   17 1    
    34   17   18 1    
    35   17  141 1    
    36   17  142 1    
    37   18   19 1    
    38   18   67 1    
    39   18  143 1    
    40   19   20 am   BACKBONE|DICT|INTERRES
    41   19  144 1    
    42   20   21 2    
    43   20   22 1    
    44   22   23 1    
    45   22   24 1    
    46   22  145 1    
    47   23  146 1    
    48   23  147 1    
    49   23  148 1    
    50   24   25 am   BACKBONE|DICT|INTERRES
    51   24  149 1    
    52   25   26 2    
    53   25   27 1    
    54   27   28 1    
    55   27   29 1    
    56   27  150 1    
    57   28  151 1    
    58   28  152 1    
    59   28  153 1    
    60   29   30 am   BACKBONE|DICT|INTERRES
    61   29  154 1    
    62   30   31 2    
    63   30   32 1    
    64   32   33 1    
    65   32   34 1    
    66   32  155 1    
    67   33  156 1    
    68   33  157 1    
    69   33  158 1    
    70   34   35 am   BACKBONE|DICT|INTERRES
    71   34  159 1    
    72   35   36 2    
    73   35   37 1    
    74   37   38 1    
    75   37   39 1    
    76   37  160 1    
    77   38  161 1    
    78   38  162 1    
    79   38  163 1    
    80   39   40 am   BACKBONE|DICT|INTERRES
    81   39  164 1    
    82   40   41 2    
    83   40   42 1    
    84   42   43 1    
    85   42   44 1    
    86   42  165 1    
    87   43  166 1    
    88   43  167 1    
    89   43  168 1    
    90   44   45 am   BACKBONE|DICT|INTERRES
    91   44  169 1    
    92   45   46 2    
    93   45   47 1    
    94   47   48 1    
    95   47   49 1    
    96   47  170 1    
    97   48  171 1    
    98   48  172 1    
    99   48  173 1    
   100   49   50 am   BACKBONE|DICT|INTERRES
   101   49  174 1    
   102   50   51 2    
   103   50   52 1    
   104   52   53 1    
   105   52   54 1    
   106   52  175 1    
   107   53  176 1    
   108   53  177 1    
   109   53  178 1    
   110   54   55 am   BACKBONE|DICT|INTERRES
   111   54  179 1    
   112   55   56 2    
   113   55   57 1    
   114   57   58 1    
   115   57   59 1    
   116   57  180 1    
   117   58  181 1    
   118   58  182 1    
   119   58  183 1    
   120   59   60 am   BACKBONE|DICT|INTERRES
   121   59  184 1    
   122   60   61 2    
   123   60   62 1    
   124   62   63 1    
   125   62   64 1    
   126   62  185 1    
   127   63  186 1    
   128   63  187 1    
   129   63  188 1    
   130   64   65 am   BACKBONE|DICT|INTERRES
   131   64  189 1    
   132   65   66 2    
   133   67   68 2    
   134   67   69 am   BACKBONE|DICT|INTERRES
   135   69   70 1    
   136   69  190 1    
   137   70   71 1    
   138   70   72 1    
   139   70  191 1    
   140   71  192 1    
   141   71  193 1    
   142   71  194 1    
   143   72   73 2    
   144   72   74 am   BACKBONE|DICT|INTERRES
   145   74   75 1    
   146   74  195 1    
   147   75   76 1    
   148   75   77 1    
   149   75  196 1    
   150   76  197 1    
   151   76  198 1    
   152   76  199 1    
   153   77   78 2    
   154   77   79 am   BACKBONE|DICT|INTERRES
   155   79   80 1    
   156   79  200 1    
   157   80   81 1    
   158   80   82 1    
   159   80  201 1    
   160   81  202 1    
   161   81  203 1    
   162   81  204 1    
   163   82   83 2    
   164   82   84 am   BACKBONE|DICT|INTERRES
   165   84   85 1    
   166   84  205 1    
   167   85   86 1    
   168   85   87 1    
   169   85  206 1    
   170   86  207 1    
   171   86  208 1    
   172   86  209 1    
   173   87   88 2    
   174   87   89 am   BACKBONE|DICT|INTERRES
   175   89   90 1    
   176   89  210 1    
   177   90   91 1    
   178   90   92 1    
   179   90  211 1    
   180   91  212 1    
   181   91  213 1    
   182   91  214 1    
   183   92   93 2    
   184   92   94 am   BACKBONE|DICT|INTERRES
   185   94   95 1    
   186   94  215 1    
   187   95   96 1    
   188   95   97 1    
   189   95  216 1    
   190   96  217 1    
   191   96  218 1    
   192   96  219 1    
   193   97   98 2    
   194   97   99 am   BACKBONE|DICT|INTERRES
   195   99  100 1    
   196   99  220 1    
   197  100  101 1    
   198  100  102 1    
   199  100  221 1    
   200  101  222 1    
   201  101  223 1    
   202  101  224 1    
   203  102  103 2    
   204  102  104 am   BACKBONE|DICT|INTERRES
   205  104  105 1    
   206  104  225 1    
   207  105  106 1    
   208  105  107 1    
   209  105  226 1    
   210  106  227 1    
   211  106  228 1    
   212  106  229 1    
   213  107  108 2    
   214  107  109 am   BACKBONE|DICT|INTERRES
   215  109  110 1    
   216  109  230 1    
   217  110  111 1    
   218  110  112 1    
   219  110  231 1    
   220  111  232 1    
   221  111  233 1    
   222  111  234 1    
   223  112  113 2    
   224  112  114 am   BACKBONE|DICT|INTERRES
   225  114  115 1    
   226  114  235 1    
   227  115  116 1    
   228  115  117 1    
   229  115  236 1    
   230  116  237 1    
   231  116  238 1    
   232  116  239 1    
   233  117  118 2    
   234  117  119 am   BACKBONE|DICT|INTERRES
   235  119  120 1    
   236  119  240 1    
   237  120  121 1    
   238  120  124 1    
   239  120  241 1    
   240  121  122 am   BACKBONE|DICT|INTERRES
   241  121  123 2    
   242  122  242 1    
   243  122  243 1    
   244  124  125 1    
   245  124  244 1    
   246  124  245 1    
   247  125  126 1    
   248  126  246 1    
   249  126  247 1    
@<TRIPOS>SUBSTRUCTURE
     1 UNK         1 GROUP             0       ****    0 ROOT    
