@<TRIPOS>MOLECULE
3R540
247   249    1
SMALL
USER_CHARGES


@<TRIPOS>ATOM
      1 CA          1.6877  -10.6692  -44.5217 C.3       0 UNK        -0.1800 
      2 C           2.4277  -10.9560  -45.8206 C.2       0 UNK         0.5000 
      3 O           3.0775  -10.0646  -46.3686 O.2       0 UNK        -0.5000 
      4 N           2.3426  -12.1972  -46.3141 N.am      1 UNK        -0.5000 
      5 CA          2.9588  -12.6835  -47.5563 C.3       1 UNK         0.1400 
      6 C6          2.2088  -13.9216  -48.1138 C.3       23 UNK        -0.0398 
      7 S7          0.4837  -13.5282  -48.5676 S.3       23 UNK        -0.2404 
      8 C8          0.5339  -13.6556  -50.3849 C.3       23 UNK        -0.0205 
      9 C9          0.0821  -15.0279  -50.8640 C.ar      23 UNK        -0.0193 
     10 C10        -1.1770  -15.1843  -51.4509 C.ar      23 UNK        -0.1150 
     11 C11        -1.6091  -16.4396  -51.8885 C.ar      23 UNK        -0.0193 
     12 C12        -0.7736  -17.5471  -51.7211 C.ar      23 UNK        -0.1150 
     13 C13         0.4915  -17.4076  -51.1414 C.ar      23 UNK        -0.0193 
     14 C14         0.9195  -16.1396  -50.7327 C.ar      23 UNK        -0.1150 
     15 C15         1.3909  -18.6329  -51.0017 C.3       23 UNK        -0.0205 
     16 S16         2.2961  -18.7523  -49.4183 S.3       23 UNK        -0.2404 
     17 C17         0.9956  -18.5528  -48.1538 C.3       23 UNK        -0.0398 
     18 CA          0.0996  -19.8078  -47.9652 C.3       11 UNK         0.1400 
     19 N          -0.1626  -20.0951  -46.5502 N.am      11 UNK        -0.5000 
     20 C          -0.8122  -21.1723  -46.0859 C.2       10 UNK         0.5000 
     21 O          -1.1994  -22.0953  -46.8010 O.2       10 UNK        -0.5000 
     22 CA         -1.1424  -21.1939  -44.5809 C.3       10 UNK         0.1400 
     23 CB          0.0473  -21.7075  -43.7568 C.3       10 UNK        -0.1800 
     24 N          -1.5681  -19.8831  -44.0850 N.am      10 UNK        -0.5000 
     25 C          -2.6869  -19.2592  -44.4830 C.2       9 UNK         0.5000 
     26 O          -3.5077  -19.7608  -45.2505 O.2       9 UNK        -0.5000 
     27 CA         -2.9041  -17.8187  -43.9856 C.3       9 UNK         0.1400 
     28 CB         -3.5237  -17.8141  -42.5805 C.3       9 UNK        -0.1800 
     29 N          -1.6738  -17.0253  -43.9902 N.am      9 UNK        -0.5000 
     30 C          -0.9730  -16.7125  -45.0902 C.2       8 UNK         0.5000 
     31 O          -1.3189  -17.0202  -46.2297 O.2       8 UNK        -0.5000 
     32 CA          0.3733  -15.9955  -44.8800 C.3       8 UNK         0.1400 
     33 CB          0.1726  -14.4937  -44.6354 C.3       8 UNK        -0.1800 
     34 N           1.1432  -16.5703  -43.7776 N.am      8 UNK        -0.5000 
     35 C           1.6042  -17.8278  -43.7435 C.2       7 UNK         0.5000 
     36 O           1.4804  -18.6247  -44.6719 O.2       7 UNK        -0.5000 
     37 CA          2.2597  -18.2905  -42.4322 C.3       7 UNK         0.1400 
     38 CB          3.7314  -17.8596  -42.3636 C.3       7 UNK        -0.1800 
     39 N           1.5430  -17.7836  -41.2630 N.am      7 UNK        -0.5000 
     40 C           0.3352  -18.2141  -40.8741 C.2       6 UNK         0.5000 
     41 O          -0.2813  -19.1181  -41.4385 O.2       6 UNK        -0.5000 
     42 CA         -0.3032  -17.4847  -39.6770 C.3       6 UNK         0.1400 
     43 CB          0.2178  -18.0602  -38.3517 C.3       6 UNK        -0.1800 
     44 N          -0.0661  -16.0395  -39.7052 N.am      6 UNK        -0.5000 
     45 C          -0.5887  -15.2084  -40.6178 C.2       5 UNK         0.5000 
     46 O          -1.3523  -15.5719  -41.5108 O.2       5 UNK        -0.5000 
     47 CA         -0.1493  -13.7325  -40.5544 C.3       5 UNK         0.1400 
     48 CB         -1.0518  -12.9434  -39.5946 C.3       5 UNK        -0.1800 
     49 N           1.2536  -13.5394  -40.1717 N.am      5 UNK        -0.5000 
     50 C           2.3045  -14.0484  -40.8282 C.2       4 UNK         0.5000 
     51 O           2.1992  -14.8024  -41.7978 O.2       4 UNK        -0.5000 
     52 CA          3.6974  -13.6956  -40.2695 C.3       4 UNK         0.1400 
     53 CB          4.0004  -14.5537  -39.0305 C.3       4 UNK        -0.1800 
     54 N           4.7716  -13.8980  -41.2449 N.am      4 UNK        -0.5000 
     55 C           4.8974  -13.2418  -42.4051 C.2       3 UNK         0.5000 
     56 O           4.1546  -12.3202  -42.7587 O.2       3 UNK        -0.5000 
     57 CA          6.0455  -13.6956  -43.3227 C.3       3 UNK         0.1400 
     58 CB          5.9108  -15.1836  -43.7072 C.3       3 UNK        -0.1800 
     59 N           6.0197  -12.8714  -44.5235 N.am      3 UNK        -0.5000 
     60 C           6.9875  -12.7431  -45.4364 C.2       2 UNK         0.5000 
     61 O           8.0957  -13.2728  -45.3337 O.2       2 UNK        -0.5000 
     62 CA          6.6461  -11.8768  -46.6704 C.3       2 UNK         0.1400 
     63 CB          7.5061  -12.2232  -47.9038 C.3       2 UNK        -0.1800 
     64 N           5.2158  -11.8950  -47.0101 N.am      2 UNK        -0.5000 
     65 C           4.4671  -12.9548  -47.3527 C.2       1 UNK         0.5000 
     66 O           4.9108  -14.0980  -47.4712 O.2       1 UNK        -0.5000 
     67 C          -1.2139  -19.6749  -48.7644 C.2       11 UNK         0.5000 
     68 O          -1.3556  -20.2988  -49.8151 O.2       11 UNK        -0.5000 
     69 N          -2.1597  -18.8928  -48.2257 N.am      12 UNK        -0.5000 
     70 CA         -3.4730  -18.6421  -48.8146 C.3       12 UNK         0.1400 
     71 CB         -4.1606  -17.4965  -48.0591 C.3       12 UNK        -0.1800 
     72 C          -4.3802  -19.8844  -48.8659 C.2       12 UNK         0.5000 
     73 O          -5.1988  -19.9819  -49.7797 O.2       12 UNK        -0.5000 
     74 N          -4.2321  -20.8079  -47.9078 N.am      13 UNK        -0.5000 
     75 CA         -4.8875  -22.1182  -47.9207 C.3       13 UNK         0.1400 
     76 CB         -4.8899  -22.6956  -46.4976 C.3       13 UNK        -0.1800 
     77 C          -4.2084  -23.0974  -48.8979 C.2       13 UNK         0.5000 
     78 O          -4.8893  -23.9253  -49.5071 O.2       13 UNK        -0.5000 
     79 N          -2.8796  -22.9764  -49.0232 N.am      14 UNK        -0.5000 
     80 CA         -1.9762  -23.7695  -49.8557 C.3       14 UNK         0.1400 
     81 CB         -2.2021  -23.4460  -51.3498 C.3       14 UNK        -0.1800 
     82 C          -2.0534  -25.2739  -49.5158 C.2       14 UNK         0.5000 
     83 O          -2.2234  -25.6315  -48.3469 O.2       14 UNK        -0.5000 
     84 N          -1.9431  -26.1385  -50.5316 N.am      15 UNK        -0.5000 
     85 CA         -2.1040  -27.5887  -50.4267 C.3       15 UNK         0.1400 
     86 CB         -1.3890  -28.2532  -51.6168 C.3       15 UNK        -0.1800 
     87 C          -3.5959  -27.9736  -50.3458 C.2       15 UNK         0.5000 
     88 O          -4.1201  -28.5999  -51.2668 O.2       15 UNK        -0.5000 
     89 N          -4.2641  -27.5455  -49.2651 N.am      16 UNK        -0.5000 
     90 CA         -5.6760  -27.7867  -48.9385 C.3       16 UNK         0.1400 
     91 CB         -5.8723  -29.2532  -48.5018 C.3       16 UNK        -0.1800 
     92 C          -6.6415  -27.3638  -50.0683 C.2       16 UNK         0.5000 
     93 O          -7.5500  -28.1157  -50.4256 O.2       16 UNK        -0.5000 
     94 N          -6.3902  -26.1738  -50.6318 N.am      17 UNK        -0.5000 
     95 CA         -7.1010  -25.5383  -51.7458 C.3       17 UNK         0.1400 
     96 CB         -8.5782  -25.2753  -51.3862 C.3       17 UNK        -0.1800 
     97 C          -6.9450  -26.2296  -53.1200 C.2       17 UNK         0.5000 
     98 O          -7.5924  -25.7957  -54.0741 O.2       17 UNK        -0.5000 
     99 N          -6.0933  -27.2613  -53.2312 N.am      18 UNK        -0.5000 
    100 CA        -5.8393  -27.9724  -54.4898 C.3       18 UNK         0.1400 
    101 CB        -5.3814  -29.4067  -54.1836 C.3       18 UNK        -0.1800 
    102 C         -4.8046  -27.2605  -55.3835 C.2       18 UNK         0.5000 
    103 O         -4.8067  -27.4770  -56.5965 O.2       18 UNK        -0.5000 
    104 N         -3.9382  -26.4420  -54.7732 N.am      19 UNK        -0.5000 
    105 CA        -2.9062  -25.6472  -55.4408 C.3       19 UNK         0.1400 
    106 CB        -1.5910  -25.7887  -54.6512 C.3       19 UNK        -0.1800 
    107 C         -3.3629  -24.1816  -55.6007 C.2       19 UNK         0.5000 
    108 O         -4.5643  -23.9026  -55.5694 O.2       19 UNK        -0.5000 
    109 N         -2.4020  -23.2634  -55.7779 N.am      20 UNK        -0.5000 
    110 CA        -2.5924  -21.8221  -55.9828 C.3       20 UNK         0.1400 
    111 CB        -1.3089  -21.2431  -56.6054 C.3       20 UNK        -0.1800 
    112 C         -3.0195  -21.0719  -54.6995 C.2       20 UNK         0.5000 
    113 O         -2.3489  -20.1334  -54.2652 O.2       20 UNK        -0.5000 
    114 N         -4.1310  -21.5180  -54.1111 N.am      21 UNK        -0.5000 
    115 CA        -4.7836  -20.9303  -52.9478 C.3       21 UNK         0.1400 
    116 CB        -5.7512  -21.9766  -52.3771 C.3       21 UNK        -0.1800 
    117 C         -5.5324  -19.6291  -53.2897 C.2       21 UNK         0.5000 
    118 O         -5.8305  -19.3593  -54.4565 O.2       21 UNK        -0.5000 
    119 N         -5.8540  -18.8689  -52.2433 N.am      22 UNK        -0.5000 
    120 CA        -6.6253  -17.6198  -52.2889 C.3       22 UNK         0.1400 
    121 C         -7.5114  -17.3769  -51.0322 C.2       22 UNK         0.5000 
    122 N         -7.4819  -18.2227  -50.0079 N.am      22 UNK        -0.7600 
    123 O         -8.2723  -16.4134  -50.9968 O.2       22 UNK        -0.5000 
    124 C124       -5.7514  -16.3927  -52.6623 C.3       23 UNK        -0.0398 
    125 S125       -4.3495  -16.1064  -51.5239 S.3       23 UNK        -0.2404 
    126 C126       -2.9537  -16.5917  -52.5861 C.3       23 UNK        -0.0205 
    127 H127        0.9065   -9.9282  -44.6903 H         1 UNK         0.0600 
    128 H128        1.2252  -11.5656  -44.1089 H         1 UNK         0.0600 
    129 H129        2.3790  -10.2748  -43.7769 H         1 UNK         0.0600 
    130 H130        1.8006  -12.8826  -45.8106 H         1 UNK         0.3000 
    131 H131        2.8867  -11.8944  -48.3082 H         1 UNK         0.0600 
    132 H132        2.7296  -14.3181  -48.9859 H         1 UNK         0.0800 
    133 H133        2.1986  -14.7290  -47.3804 H         1 UNK         0.0800 
    134 H134       -0.1164  -12.8828  -50.7977 H         1 UNK         0.0800 
    135 H135        1.5328  -13.4349  -50.7633 H         1 UNK         0.0800 
    136 H136       -1.8246  -14.3275  -51.5736 H         1 UNK         0.1150 
    137 H137       -1.1040  -18.5207  -52.0579 H         1 UNK         0.1150 
    138 H138        1.9011  -16.0229  -50.2981 H         1 UNK         0.1150 
    139 H139        0.8148  -19.5488  -51.1382 H         1 UNK         0.0800 
    140 H140        2.1198  -18.6147  -51.8127 H         1 UNK         0.0800 
    141 H141        0.4172  -17.6473  -48.3469 H         1 UNK         0.0800 
    142 H142        1.5341  -18.3386  -47.2315 H         1 UNK         0.0800 
    143 H143        0.6296  -20.6798  -48.3542 H         1 UNK         0.0600 
    144 H144        0.1767  -19.4132  -45.8782 H         1 UNK         0.3000 
    145 H145       -1.9732  -21.8877  -44.4362 H         1 UNK         0.0600 
    146 H146       -0.2029  -21.7651  -42.6973 H         1 UNK         0.0600 
    147 H147        0.3383  -22.7084  -44.0778 H         1 UNK         0.0600 
    148 H148        0.9212  -21.0653  -43.8589 H         1 UNK         0.0600 
    149 H149       -0.9654  -19.4290  -43.4081 H         1 UNK         0.3000 
    150 H150       -3.6094  -17.3375  -44.6657 H         1 UNK         0.0600 
    151 H151       -4.4490  -18.3912  -42.5597 H         1 UNK         0.0600 
    152 H152       -3.7660  -16.8006  -42.2607 H         1 UNK         0.0600 
    153 H153       -2.8500  -18.2461  -41.8405 H         1 UNK         0.0600 
    154 H154       -1.3551  -16.6790  -43.0897 H         1 UNK         0.3000 
    155 H155        0.9617  -16.1176  -45.7911 H         1 UNK         0.0600 
    156 H156        1.1232  -14.0007  -44.4359 H         1 UNK         0.0600 
    157 H157       -0.4812  -14.3080  -43.7837 H         1 UNK         0.0600 
    158 H158       -0.2790  -14.0144  -45.5048 H         1 UNK         0.0600 
    159 H159        1.3435  -15.9613  -42.9878 H         1 UNK         0.3000 
    160 H160        2.2268  -19.3819  -42.4103 H         1 UNK         0.0600 
    161 H161        3.8311  -16.7756  -42.3370 H         1 UNK         0.0600 
    162 H162        4.2857  -18.2200  -43.2311 H         1 UNK         0.0600 
    163 H163        4.2185  -18.2617  -41.4752 H         1 UNK         0.0600 
    164 H164        1.9497  -16.9882  -40.7932 H         1 UNK         0.3000 
    165 H165       -1.3812  -17.6540  -39.7216 H         1 UNK         0.0600 
    166 H166        1.2900  -17.8984  -38.2343 H         1 UNK         0.0600 
    167 H167       -0.2862  -17.6045  -37.4992 H         1 UNK         0.0600 
    168 H168        0.0397  -19.1350  -38.2967 H         1 UNK         0.0600 
    169 H169        0.5539  -15.6604  -39.0051 H         1 UNK         0.3000 
    170 H170       -0.2728  -13.3135  -41.5548 H         1 UNK         0.0600 
    171 H171       -2.1023  -13.0521  -39.8680 H         1 UNK         0.0600 
    172 H172       -0.9433  -13.2868  -38.5650 H         1 UNK         0.0600 
    173 H173       -0.8201  -11.8785  -39.6204 H         1 UNK         0.0600 
    174 H174        1.4198  -12.9442  -39.3730 H         1 UNK         0.3000 
    175 H175        3.6956  -12.6422  -39.9823 H         1 UNK         0.0600 
    176 H176        4.9661  -14.2931  -38.5969 H         1 UNK         0.0600 
    177 H177        3.2500  -14.4066  -38.2528 H         1 UNK         0.0600 
    178 H178        4.0179  -15.6174  -39.2726 H         1 UNK         0.0600 
    179 H179        5.4149  -14.6484  -41.0429 H         1 UNK         0.3000 
    180 H180        6.9887  -13.5311  -42.7982 H         1 UNK         0.0600 
    181 H181        4.9459  -15.3895  -44.1732 H         1 UNK         0.0600 
    182 H182        6.0044  -15.8285  -42.8336 H         1 UNK         0.0600 
    183 H183        6.6878  -15.4902  -44.4072 H         1 UNK         0.0600 
    184 H184        5.1562  -12.3556  -44.6393 H         1 UNK         0.3000 
    185 H185        6.8769  -10.8488  -46.3878 H         1 UNK         0.0600 
    186 H186        7.2467  -11.5936  -48.7549 H         1 UNK         0.0600 
    187 H187        8.5658  -12.0674  -47.6984 H         1 UNK         0.0600 
    188 H188        7.3821  -13.2636  -48.2055 H         1 UNK         0.0600 
    189 H189        4.7230  -11.0139  -46.8908 H         1 UNK         0.3000 
    190 H190       -1.9378  -18.3733  -47.3797 H         1 UNK         0.3000 
    191 H191       -3.3088  -18.3209  -49.8445 H         1 UNK         0.0600 
    192 H192       -3.5533  -16.5913  -48.0815 H         1 UNK         0.0600 
    193 H193       -5.1223  -17.2517  -48.5114 H         1 UNK         0.0600 
    194 H194       -4.3426  -17.7546  -47.0160 H         1 UNK         0.0600 
    195 H195       -3.6169  -20.6050  -47.1277 H         1 UNK         0.3000 
    196 H196       -5.9243  -21.9921  -48.2395 H         1 UNK         0.0600 
    197 H197       -5.3918  -23.6636  -46.4698 H         1 UNK         0.0600 
    198 H198       -5.4135  -22.0354  -45.8059 H         1 UNK         0.0600 
    199 H199       -3.8768  -22.8390  -46.1200 H         1 UNK         0.0600 
    200 H200       -2.4109  -22.3246  -48.4036 H         1 UNK         0.3000 
    201 H201       -0.9690  -23.4442  -49.5922 H         1 UNK         0.0600 
    202 H202       -2.2609  -22.3696  -51.5122 H         1 UNK         0.0600 
    203 H203       -3.1223  -23.8881  -51.7320 H         1 UNK         0.0600 
    204 H204       -1.3728  -23.8067  -51.9575 H         1 UNK         0.0600 
    205 H205       -1.8127  -25.7704  -51.4609 H         1 UNK         0.3000 
    206 H206       -1.6217  -27.9383  -49.5113 H         1 UNK         0.0600 
    207 H207       -0.3360  -27.9735  -51.6538 H         1 UNK         0.0600 
    208 H208       -1.4333  -29.3402  -51.5384 H         1 UNK         0.0600 
    209 H209       -1.8450  -27.9770  -52.5675 H         1 UNK         0.0600 
    210 H210       -3.7481  -26.9676  -48.6089 H         1 UNK         0.3000 
    211 H211       -5.9096  -27.1508  -48.0834 H         1 UNK         0.0600 
    212 H212       -5.6813  -29.9471  -49.3212 H         1 UNK         0.0600 
    213 H213       -6.8919  -29.4264  -48.1555 H         1 UNK         0.0600 
    214 H214       -5.2040  -29.5125  -47.6807 H         1 UNK         0.0600 
    215 H215       -5.6437  -25.6082  -50.2358 H         1 UNK         0.3000 
    216 H216       -6.6293  -24.5659  -51.8604 H         1 UNK         0.0600 
    217 H217       -8.6649  -24.7603  -50.4294 H         1 UNK         0.0600 
    218 H218       -9.1538  -26.1990  -51.3257 H         1 UNK         0.0600 
    219 H219       -9.0570  -24.6437  -52.1353 H         1 UNK         0.0600 
    220 H220       -5.6011  -27.5988  -52.4111 H         1 UNK         0.3000 
    221 H221       -6.7729  -28.0386  -55.0526 H         1 UNK         0.0600 
    222 H222       -4.3937  -29.4265  -53.7226 H         1 UNK         0.0600 
    223 H223       -6.0770  -29.9117  -53.5129 H         1 UNK         0.0600 
    224 H224       -5.3228  -29.9979  -55.0982 H         1 UNK         0.0600 
    225 H225       -4.0587  -26.2888  -53.7840 H         1 UNK         0.3000 
    226 H226       -2.7308  -26.0313  -56.4475 H         1 UNK         0.0600 
    227 H227       -1.2989  -26.8358  -54.5735 H         1 UNK         0.0600 
    228 H228       -0.7639  -25.2739  -55.1404 H         1 UNK         0.0600 
    229 H229       -1.6830  -25.3919  -53.6418 H         1 UNK         0.0600 
    230 H230       -1.4421  -23.5751  -55.7634 H         1 UNK         0.3000 
    231 H231       -3.3977  -21.6861  -56.7077 H         1 UNK         0.0600 
    232 H232       -1.4236  -20.1802  -56.8225 H         1 UNK         0.0600 
    233 H233       -1.0675  -21.7390  -57.5458 H         1 UNK         0.0600 
    234 H234       -0.4532  -21.3523  -55.9380 H         1 UNK         0.0600 
    235 H235       -4.6036  -22.3015  -54.5525 H         1 UNK         0.3000 
    236 H236       -4.0229  -20.7036  -52.1974 H         1 UNK         0.0600 
    237 H237       -6.3051  -21.5958  -51.5191 H         1 UNK         0.0600 
    238 H238       -6.4811  -22.2998  -53.1204 H         1 UNK         0.0600 
    239 H239       -5.2007  -22.8519  -52.0390 H         1 UNK         0.0600 
    240 H240       -5.5813  -19.1875  -51.3164 H         1 UNK         0.3000 
    241 H241       -7.3584  -17.7352  -53.0895 H         1 UNK         0.0600 
    242 H242       -6.8453  -19.0103  -49.9813 H         1 UNK         0.3800 
    243 H243       -8.0835  -18.0477  -49.2191 H         1 UNK         0.3800 
    244 H244       -5.3732  -16.5168  -53.6777 H         1 UNK         0.0800 
    245 H245       -6.3575  -15.4859  -52.6935 H         1 UNK         0.0800 
    246 H246       -3.1010  -17.6217  -52.9157 H         1 UNK         0.0800 
    247 H247       -2.9527  -15.9747  -53.4857 H         1 UNK         0.0800 
@<TRIPOS>BOND
     1    1    2 1    
     2    1  127 1    
     3    1  128 1    
     4    1  129 1    
     5    2    3 2    
     6    2    4 am   BACKBONE|DICT|INTERRES
     7    4    5 1    
     8    4  130 1    
     9    5    6 1    
    10    5   65 1    
    11    5  131 1    
    12    6    7 1    
    13    6  132 1    
    14    6  133 1    
    15    7    8 1    
    16    8    9 1    
    17    8  134 1    
    18    8  135 1    
    19    9   10 ar   
    20    9   14 ar   
    21   10   11 ar   
    22   10  136 1    
    23   11   12 ar   
    24   11  126 1    
    25   12   13 ar   
    26   12  137 1    
    27   13   14 ar   
    28   13   15 1    
    29   14  138 1    
    30   15   16 1    
    31   15  139 1    
    32   15  140 1    
    33   16   17 1    
    34   17   18 1    
    35   17  141 1    
    36   17  142 1    
    37   18   19 1    
    38   18   67 1    
    39   18  143 1    
    40   19   20 am   BACKBONE|DICT|INTERRES
    41   19  144 1    
    42   20   21 2    
    43   20   22 1    
    44   22   23 1    
    45   22   24 1    
    46   22  145 1    
    47   23  146 1    
    48   23  147 1    
    49   23  148 1    
    50   24   25 am   BACKBONE|DICT|INTERRES
    51   24  149 1    
    52   25   26 2    
    53   25   27 1    
    54   27   28 1    
    55   27   29 1    
    56   27  150 1    
    57   28  151 1    
    58   28  152 1    
    59   28  153 1    
    60   29   30 am   BACKBONE|DICT|INTERRES
    61   29  154 1    
    62   30   31 2    
    63   30   32 1    
    64   32   33 1    
    65   32   34 1    
    66   32  155 1    
    67   33  156 1    
    68   33  157 1    
    69   33  158 1    
    70   34   35 am   BACKBONE|DICT|INTERRES
    71   34  159 1    
    72   35   36 2    
    73   35   37 1    
    74   37   38 1    
    75   37   39 1    
    76   37  160 1    
    77   38  161 1    
    78   38  162 1    
    79   38  163 1    
    80   39   40 am   BACKBONE|DICT|INTERRES
    81   39  164 1    
    82   40   41 2    
    83   40   42 1    
    84   42   43 1    
    85   42   44 1    
    86   42  165 1    
    87   43  166 1    
    88   43  167 1    
    89   43  168 1    
    90   44   45 am   BACKBONE|DICT|INTERRES
    91   44  169 1    
    92   45   46 2    
    93   45   47 1    
    94   47   48 1    
    95   47   49 1    
    96   47  170 1    
    97   48  171 1    
    98   48  172 1    
    99   48  173 1    
   100   49   50 am   BACKBONE|DICT|INTERRES
   101   49  174 1    
   102   50   51 2    
   103   50   52 1    
   104   52   53 1    
   105   52   54 1    
   106   52  175 1    
   107   53  176 1    
   108   53  177 1    
   109   53  178 1    
   110   54   55 am   BACKBONE|DICT|INTERRES
   111   54  179 1    
   112   55   56 2    
   113   55   57 1    
   114   57   58 1    
   115   57   59 1    
   116   57  180 1    
   117   58  181 1    
   118   58  182 1    
   119   58  183 1    
   120   59   60 am   BACKBONE|DICT|INTERRES
   121   59  184 1    
   122   60   61 2    
   123   60   62 1    
   124   62   63 1    
   125   62   64 1    
   126   62  185 1    
   127   63  186 1    
   128   63  187 1    
   129   63  188 1    
   130   64   65 am   BACKBONE|DICT|INTERRES
   131   64  189 1    
   132   65   66 2    
   133   67   68 2    
   134   67   69 am   BACKBONE|DICT|INTERRES
   135   69   70 1    
   136   69  190 1    
   137   70   71 1    
   138   70   72 1    
   139   70  191 1    
   140   71  192 1    
   141   71  193 1    
   142   71  194 1    
   143   72   73 2    
   144   72   74 am   BACKBONE|DICT|INTERRES
   145   74   75 1    
   146   74  195 1    
   147   75   76 1    
   148   75   77 1    
   149   75  196 1    
   150   76  197 1    
   151   76  198 1    
   152   76  199 1    
   153   77   78 2    
   154   77   79 am   BACKBONE|DICT|INTERRES
   155   79   80 1    
   156   79  200 1    
   157   80   81 1    
   158   80   82 1    
   159   80  201 1    
   160   81  202 1    
   161   81  203 1    
   162   81  204 1    
   163   82   83 2    
   164   82   84 am   BACKBONE|DICT|INTERRES
   165   84   85 1    
   166   84  205 1    
   167   85   86 1    
   168   85   87 1    
   169   85  206 1    
   170   86  207 1    
   171   86  208 1    
   172   86  209 1    
   173   87   88 2    
   174   87   89 am   BACKBONE|DICT|INTERRES
   175   89   90 1    
   176   89  210 1    
   177   90   91 1    
   178   90   92 1    
   179   90  211 1    
   180   91  212 1    
   181   91  213 1    
   182   91  214 1    
   183   92   93 2    
   184   92   94 am   BACKBONE|DICT|INTERRES
   185   94   95 1    
   186   94  215 1    
   187   95   96 1    
   188   95   97 1    
   189   95  216 1    
   190   96  217 1    
   191   96  218 1    
   192   96  219 1    
   193   97   98 2    
   194   97   99 am   BACKBONE|DICT|INTERRES
   195   99  100 1    
   196   99  220 1    
   197  100  101 1    
   198  100  102 1    
   199  100  221 1    
   200  101  222 1    
   201  101  223 1    
   202  101  224 1    
   203  102  103 2    
   204  102  104 am   BACKBONE|DICT|INTERRES
   205  104  105 1    
   206  104  225 1    
   207  105  106 1    
   208  105  107 1    
   209  105  226 1    
   210  106  227 1    
   211  106  228 1    
   212  106  229 1    
   213  107  108 2    
   214  107  109 am   BACKBONE|DICT|INTERRES
   215  109  110 1    
   216  109  230 1    
   217  110  111 1    
   218  110  112 1    
   219  110  231 1    
   220  111  232 1    
   221  111  233 1    
   222  111  234 1    
   223  112  113 2    
   224  112  114 am   BACKBONE|DICT|INTERRES
   225  114  115 1    
   226  114  235 1    
   227  115  116 1    
   228  115  117 1    
   229  115  236 1    
   230  116  237 1    
   231  116  238 1    
   232  116  239 1    
   233  117  118 2    
   234  117  119 am   BACKBONE|DICT|INTERRES
   235  119  120 1    
   236  119  240 1    
   237  120  121 1    
   238  120  124 1    
   239  120  241 1    
   240  121  122 am   BACKBONE|DICT|INTERRES
   241  121  123 2    
   242  122  242 1    
   243  122  243 1    
   244  124  125 1    
   245  124  244 1    
   246  124  245 1    
   247  125  126 1    
   248  126  246 1    
   249  126  247 1    
@<TRIPOS>SUBSTRUCTURE
     1 UNK         1 GROUP             0       ****    0 ROOT    
