@<TRIPOS>MOLECULE
3R540
247   249    1
SMALL
USER_CHARGES


@<TRIPOS>ATOM
      1 CA         -3.1402  -13.1454  -47.8130 C.3       0 UNK        -0.1800 
      2 C          -1.8712  -12.9642  -48.6328 C.2       0 UNK         0.5000 
      3 O          -1.1593  -11.9775  -48.4507 O.2       0 UNK        -0.5000 
      4 N          -1.5736  -13.9241  -49.5173 N.am      1 UNK        -0.5000 
      5 CA         -0.4057  -13.9612  -50.4118 C.3       1 UNK         0.1400 
      6 C6         -0.4893  -15.2041  -51.3287 C.3       23 UNK        -0.0398 
      7 S7          0.4746  -15.1047  -52.8735 S.3       23 UNK        -0.2404 
      8 C8          1.8574  -16.2562  -52.5479 C.3       23 UNK        -0.0205 
      9 C9          1.4403  -17.6598  -52.1070 C.ar      23 UNK        -0.0193 
     10 C10         0.3100  -18.2946  -52.6362 C.ar      23 UNK        -0.1150 
     11 C11        -0.0746  -19.5613  -52.1877 C.ar      23 UNK        -0.0193 
     12 C12         0.7033  -20.2173  -51.2311 C.ar      23 UNK        -0.1150 
     13 C13         1.8439  -19.6033  -50.7039 C.ar      23 UNK        -0.0193 
     14 C14         2.2043  -18.3271  -51.1448 C.ar      23 UNK        -0.1150 
     15 C15         2.6849  -20.3122  -49.6515 C.3       23 UNK        -0.0205 
     16 S16         2.4114  -19.6434  -47.9771 S.3       23 UNK        -0.2404 
     17 C17         0.6734  -20.1054  -47.6922 C.3       23 UNK        -0.0398 
     18 CA          0.5423  -21.5264  -47.0922 C.3       11 UNK         0.1400 
     19 N           0.6252  -21.5245  -45.6297 N.am      11 UNK        -0.5000 
     20 C           0.6371  -22.6140  -44.8502 C.2       10 UNK         0.5000 
     21 O           0.6317  -23.7654  -45.2845 O.2       10 UNK        -0.5000 
     22 CA          0.5942  -22.3789  -43.3286 C.3       10 UNK         0.1400 
     23 CB          1.9800  -21.9997  -42.7855 C.3       10 UNK        -0.1800 
     24 N          -0.3845  -21.3588  -42.9477 N.am      10 UNK        -0.5000 
     25 C          -1.7090  -21.4834  -43.1193 C.2       9 UNK         0.5000 
     26 O          -2.2482  -22.4948  -43.5714 O.2       9 UNK        -0.5000 
     27 CA         -2.5717  -20.2535  -42.7760 C.3       9 UNK         0.1400 
     28 CB         -2.8029  -20.1483  -41.2614 C.3       9 UNK        -0.1800 
     29 N          -1.9985  -19.0023  -43.2764 N.am      9 UNK        -0.5000 
     30 C          -1.7907  -18.7359  -44.5736 C.2       8 UNK         0.5000 
     31 O          -2.1079  -19.4998  -45.4819 O.2       8 UNK        -0.5000 
     32 CA         -1.0431  -17.4364  -44.9170 C.3       8 UNK         0.1400 
     33 CB         -1.9890  -16.2270  -44.9139 C.3       8 UNK        -0.1800 
     34 N           0.0886  -17.1931  -44.0236 N.am      8 UNK        -0.5000 
     35 C           1.1596  -17.9927  -43.9127 C.2       7 UNK         0.5000 
     36 O           1.3241  -19.0086  -44.5833 O.2       7 UNK        -0.5000 
     37 CA          2.1941  -17.6297  -42.8358 C.3       7 UNK         0.1400 
     38 CB          3.1609  -16.5462  -43.3329 C.3       7 UNK        -0.1800 
     39 N           1.5491  -17.1915  -41.6008 N.am      7 UNK        -0.5000 
     40 C           0.8617  -18.0029  -40.7850 C.2       6 UNK         0.5000 
     41 O           0.7412  -19.2154  -40.9654 O.2       6 UNK        -0.5000 
     42 CA          0.1579  -17.3322  -39.5920 C.3       6 UNK         0.1400 
     43 CB          1.1311  -17.1534  -38.4173 C.3       6 UNK        -0.1800 
     44 N          -0.4222  -16.0345  -39.9458 N.am      6 UNK        -0.5000 
     45 C          -1.4609  -15.8791  -40.7784 C.2       5 UNK         0.5000 
     46 O          -2.0510  -16.8161  -41.3159 O.2       5 UNK        -0.5000 
     47 CA         -1.8854  -14.4330  -41.0930 C.3       5 UNK         0.1400 
     48 CB         -2.8184  -13.8936  -39.9986 C.3       5 UNK        -0.1800 
     49 N          -0.7580  -13.5118  -41.2707 N.am      5 UNK        -0.5000 
     50 C           0.1599  -13.6138  -42.2406 C.2       4 UNK         0.5000 
     51 O           0.2099  -14.5515  -43.0379 O.2       4 UNK        -0.5000 
     52 CA          1.2185  -12.5024  -42.3176 C.3       4 UNK         0.1400 
     53 CB          2.5323  -12.9573  -41.6650 C.3       4 UNK        -0.1800 
     54 N           1.4744  -12.1321  -43.7086 N.am      4 UNK        -0.5000 
     55 C           0.6623  -11.3752  -44.4548 C.2       3 UNK         0.5000 
     56 O          -0.3662  -10.8532  -44.0217 O.2       3 UNK        -0.5000 
     57 CA          1.0548  -11.1537  -45.9282 C.3       3 UNK         0.1400 
     58 CB          2.2676  -10.2117  -46.0581 C.3       3 UNK        -0.1800 
     59 N           1.2379  -12.3886  -46.7010 N.am      3 UNK        -0.5000 
     60 C           2.1928  -13.3254  -46.5920 C.2       2 UNK         0.5000 
     61 O           3.1012  -13.2762  -45.7611 O.2       2 UNK        -0.5000 
     62 CA          2.1252  -14.5319  -47.5548 C.3       2 UNK         0.1400 
     63 CB          2.0747  -15.8496  -46.7731 C.3       2 UNK        -0.1800 
     64 N           0.9683  -14.4953  -48.4499 N.am      2 UNK        -0.5000 
     65 C           0.9429  -13.9142  -49.6562 C.2       1 UNK         0.5000 
     66 O           1.9094  -13.3390  -50.1574 O.2       1 UNK        -0.5000 
     67 C          -0.7400  -22.2065  -47.6014 C.2       11 UNK         0.5000 
     68 O          -0.6567  -23.0244  -48.5156 O.2       11 UNK        -0.5000 
     69 N          -1.8898  -21.8815  -46.9966 N.am      12 UNK        -0.5000 
     70 CA         -3.1863  -22.4715  -47.3244 C.3       12 UNK         0.1400 
     71 CB         -4.2963  -21.7397  -46.5545 C.3       12 UNK        -0.1800 
     72 C          -3.2289  -23.9858  -47.0530 C.2       12 UNK         0.5000 
     73 O          -3.7086  -24.7450  -47.8962 O.2       12 UNK        -0.5000 
     74 N          -2.6760  -24.4026  -45.9048 N.am      13 UNK        -0.5000 
     75 CA         -2.5244  -25.8067  -45.5237 C.3       13 UNK         0.1400 
     76 CB         -2.0399  -25.8949  -44.0687 C.3       13 UNK        -0.1800 
     77 C          -1.5860  -26.5850  -46.4661 C.2       13 UNK         0.5000 
     78 O          -1.8997  -27.7197  -46.8272 O.2       13 UNK        -0.5000 
     79 N          -0.4698  -25.9580  -46.8632 N.am      14 UNK        -0.5000 
     80 CA          0.5078  -26.5128  -47.8000 C.3       14 UNK         0.1400 
     81 CB          1.7858  -25.6600  -47.7741 C.3       14 UNK        -0.1800 
     82 C          -0.0383  -26.6336  -49.2346 C.2       14 UNK         0.5000 
     83 O           0.1725  -27.6625  -49.8782 O.2       14 UNK        -0.5000 
     84 N          -0.7302  -25.5882  -49.7080 N.am      15 UNK        -0.5000 
     85 CA         -1.3377  -25.5280  -51.0385 C.3       15 UNK         0.1400 
     86 CB         -1.7014  -24.0691  -51.3643 C.3       15 UNK        -0.1800 
     87 C          -2.5811  -26.4239  -51.1824 C.2       15 UNK         0.5000 
     88 O          -2.8798  -26.8548  -52.2968 O.2       15 UNK        -0.5000 
     89 N          -3.2902  -26.6571  -50.0662 N.am      16 UNK        -0.5000 
     90 CA         -4.6097  -27.2929  -49.9695 C.3       16 UNK         0.1400 
     91 CB         -4.5474  -28.7808  -50.3725 C.3       16 UNK        -0.1800 
     92 C          -5.6742  -26.4852  -50.7433 C.2       16 UNK         0.5000 
     93 O          -6.4942  -27.0498  -51.4700 O.2       16 UNK        -0.5000 
     94 N          -5.6034  -25.1599  -50.5890 N.am      17 UNK        -0.5000 
     95 CA         -6.3715  -24.1448  -51.2994 C.3       17 UNK         0.1400 
     96 CB         -5.8163  -23.9837  -52.7303 C.3       17 UNK        -0.1800 
     97 C          -6.2666  -22.8335  -50.5047 C.2       17 UNK         0.5000 
     98 O          -5.6416  -22.8102  -49.4431 O.2       17 UNK        -0.5000 
     99 N          -6.8599  -21.7527  -51.0223 N.am      18 UNK        -0.5000 
    100 CA        -6.6884  -20.4073  -50.4746 C.3       18 UNK         0.1400 
    101 CB        -7.7176  -19.4651  -51.1181 C.3       18 UNK        -0.1800 
    102 C         -5.2612  -19.8876  -50.7274 C.2       18 UNK         0.5000 
    103 O         -4.7279  -20.0771  -51.8242 O.2       18 UNK        -0.5000 
    104 N         -4.6877  -19.1871  -49.7411 N.am      19 UNK        -0.5000 
    105 CA        -3.4051  -18.4883  -49.8531 C.3       19 UNK         0.1400 
    106 CB        -2.7891  -18.3160  -48.4563 C.3       19 UNK        -0.1800 
    107 C         -3.5780  -17.1524  -50.6006 C.2       19 UNK         0.5000 
    108 O         -3.3575  -16.0826  -50.0307 O.2       19 UNK        -0.5000 
    109 N         -4.0041  -17.2510  -51.8618 N.am      20 UNK        -0.5000 
    110 CA        -4.3154  -16.1508  -52.7613 C.3       20 UNK         0.1400 
    111 CB        -5.8092  -15.7983  -52.6392 C.3       20 UNK        -0.1800 
    112 C         -3.9169  -16.5956  -54.1738 C.2       20 UNK         0.5000 
    113 O         -4.7530  -17.1101  -54.9181 O.2       20 UNK        -0.5000 
    114 N         -2.6209  -16.4554  -54.4826 N.am      21 UNK        -0.5000 
    115 CA        -1.9237  -16.7944  -55.7329 C.3       21 UNK         0.1400 
    116 CB        -2.5066  -16.0221  -56.9319 C.3       21 UNK        -0.1800 
    117 C         -1.8135  -18.3027  -56.0417 C.2       21 UNK         0.5000 
    118 O         -0.7360  -18.7371  -56.4486 O.2       21 UNK        -0.5000 
    119 N         -2.9040  -19.0541  -55.8305 N.am      22 UNK        -0.5000 
    120 CA        -3.0777  -20.5020  -56.0568 C.3       22 UNK         0.1400 
    121 C         -2.5230  -21.0263  -57.4187 C.2       22 UNK         0.5000 
    122 N         -1.7809  -22.1257  -57.4542 N.am      22 UNK        -0.7600 
    123 O         -2.8220  -20.4625  -58.4693 O.2       22 UNK        -0.5000 
    124 C124       -2.7599  -21.3742  -54.8036 C.3       23 UNK        -0.0398 
    125 S125       -1.0534  -21.2395  -54.1639 S.3       23 UNK        -0.2404 
    126 C126       -1.3526  -20.1975  -52.7076 C.3       23 UNK        -0.0205 
    127 H127       -3.6575  -14.0713  -48.0665 H         1 UNK         0.0600 
    128 H128       -3.8229  -12.3145  -47.9899 H         1 UNK         0.0600 
    129 H129       -2.8990  -13.1713  -46.7503 H         1 UNK         0.0600 
    130 H130       -2.2265  -14.6996  -49.6241 H         1 UNK         0.3000 
    131 H131       -0.4619  -13.0659  -51.0344 H         1 UNK         0.0600 
    132 H132       -1.5160  -15.3233  -51.6655 H         1 UNK         0.0800 
    133 H133       -0.2606  -16.1133  -50.7712 H         1 UNK         0.0800 
    134 H134        2.4586  -16.3429  -53.4536 H         1 UNK         0.0800 
    135 H135        2.5018  -15.8015  -51.7937 H         1 UNK         0.0800 
    136 H136       -0.2852  -17.7964  -53.3860 H         1 UNK         0.1150 
    137 H137        0.4106  -21.1994  -50.8857 H         1 UNK         0.1150 
    138 H138        3.0807  -17.8510  -50.7275 H         1 UNK         0.1150 
    139 H139        2.4797  -21.3838  -49.6522 H         1 UNK         0.0800 
    140 H140        3.7408  -20.2057  -49.9040 H         1 UNK         0.0800 
    141 H141        0.1260  -19.9984  -48.6280 H         1 UNK         0.0800 
    142 H142        0.2258  -19.3673  -47.0290 H         1 UNK         0.0800 
    143 H143        1.3700  -22.1398  -47.4542 H         1 UNK         0.0600 
    144 H144        0.7026  -20.6102  -45.1882 H         1 UNK         0.3000 
    145 H145        0.2946  -23.3178  -42.8582 H         1 UNK         0.0600 
    146 H146        1.9614  -21.8912  -41.7009 H         1 UNK         0.0600 
    147 H147        2.7151  -22.7691  -43.0242 H         1 UNK         0.0600 
    148 H148        2.3392  -21.0614  -43.2077 H         1 UNK         0.0600 
    149 H149       -0.0209  -20.5008  -42.5494 H         1 UNK         0.3000 
    150 H150       -3.5426  -20.3875  -43.2576 H         1 UNK         0.0600 
    151 H151       -3.2492  -21.0633  -40.8700 H         1 UNK         0.0600 
    152 H152       -3.4799  -19.3278  -41.0230 H         1 UNK         0.0600 
    153 H153       -1.8714  -19.9792  -40.7210 H         1 UNK         0.0600 
    154 H154       -1.7587  -18.2974  -42.5857 H         1 UNK         0.3000 
    155 H155       -0.6473  -17.5390  -45.9283 H         1 UNK         0.0600 
    156 H156       -2.4195  -16.0546  -43.9279 H         1 UNK         0.0600 
    157 H157       -2.8141  -16.3757  -45.6114 H         1 UNK         0.0600 
    158 H158       -1.4679  -15.3179  -45.2154 H         1 UNK         0.0600 
    159 H159        0.0611  -16.3334  -43.4801 H         1 UNK         0.3000 
    160 H160        2.7780  -18.5256  -42.6135 H         1 UNK         0.0600 
    161 H161        2.6336  -15.6538  -43.6713 H         1 UNK         0.0600 
    162 H162        3.7520  -16.9165  -44.1707 H         1 UNK         0.0600 
    163 H163        3.8612  -16.2500  -42.5519 H         1 UNK         0.0600 
    164 H164        1.5566  -16.2016  -41.4080 H         1 UNK         0.3000 
    165 H165       -0.6505  -17.9917  -39.2688 H         1 UNK         0.0600 
    166 H166        0.6227  -16.7469  -37.5428 H         1 UNK         0.0600 
    167 H167        1.5667  -18.1094  -38.1234 H         1 UNK         0.0600 
    168 H168        1.9527  -16.4823  -38.6708 H         1 UNK         0.0600 
    169 H169        0.0063  -15.2127  -39.5461 H         1 UNK         0.3000 
    170 H170       -2.4438  -14.4537  -42.0310 H         1 UNK         0.0600 
    171 H171       -3.6768  -14.5520  -39.8581 H         1 UNK         0.0600 
    172 H172       -2.3085  -13.8095  -39.0381 H         1 UNK         0.0600 
    173 H173       -3.2061  -12.9091  -40.2608 H         1 UNK         0.0600 
    174 H174       -0.7252  -12.7181  -40.6470 H         1 UNK         0.3000 
    175 H175        0.8537  -11.6243  -41.7806 H         1 UNK         0.0600 
    176 H176        2.3739  -13.2542  -40.6275 H         1 UNK         0.0600 
    177 H177        2.9715  -13.8063  -42.1879 H         1 UNK         0.0600 
    178 H178        3.2676  -12.1525  -41.6634 H         1 UNK         0.0600 
    179 H179        2.2551  -12.5831  -44.1766 H         1 UNK         0.3000 
    180 H180        0.2099  -10.6473  -46.3976 H         1 UNK         0.0600 
    181 H181        3.1654  -10.6289  -45.6019 H         1 UNK         0.0600 
    182 H182        2.0700   -9.2573  -45.5686 H         1 UNK         0.0600 
    183 H183        2.4903  -10.0001  -47.1039 H         1 UNK         0.0600 
    184 H184        0.5298  -12.5275  -47.4137 H         1 UNK         0.3000 
    185 H185        3.0418  -14.5277  -48.1481 H         1 UNK         0.0600 
    186 H186        2.9942  -16.0008  -46.2091 H         1 UNK         0.0600 
    187 H187        1.2448  -15.8537  -46.0686 H         1 UNK         0.0600 
    188 H188        1.9598  -16.7053  -47.4379 H         1 UNK         0.0600 
    189 H189        0.1197  -14.9216  -48.1078 H         1 UNK         0.3000 
    190 H190       -1.8889  -21.1553  -46.2833 H         1 UNK         0.3000 
    191 H191       -3.3487  -22.3184  -48.3924 H         1 UNK         0.0600 
    192 H192       -4.1473  -21.8005  -45.4763 H         1 UNK         0.0600 
    193 H193       -5.2739  -22.1686  -46.7769 H         1 UNK         0.0600 
    194 H194       -4.3351  -20.6855  -46.8277 H         1 UNK         0.0600 
    195 H195       -2.3254  -23.7104  -45.2506 H         1 UNK         0.3000 
    196 H196       -3.5102  -26.2730  -45.5802 H         1 UNK         0.0600 
    197 H197       -1.9433  -26.9338  -43.7512 H         1 UNK         0.0600 
    198 H198       -2.7423  -25.4105  -43.3901 H         1 UNK         0.0600 
    199 H199       -1.0680  -25.4189  -43.9368 H         1 UNK         0.0600 
    200 H200       -0.2564  -25.0453  -46.4712 H         1 UNK         0.3000 
    201 H201        0.7673  -27.5169  -47.4581 H         1 UNK         0.0600 
    202 H202        2.2242  -25.6382  -46.7763 H         1 UNK         0.0600 
    203 H203        1.5901  -24.6304  -48.0748 H         1 UNK         0.0600 
    204 H204        2.5390  -26.0632  -48.4520 H         1 UNK         0.0600 
    205 H205       -0.8089  -24.7486  -49.1372 H         1 UNK         0.3000 
    206 H206       -0.5988  -25.8654  -51.7682 H         1 UNK         0.0600 
    207 H207       -0.8206  -23.4273  -51.3393 H         1 UNK         0.0600 
    208 H208       -2.1338  -23.9846  -52.3622 H         1 UNK         0.0600 
    209 H209       -2.4286  -23.6678  -50.6567 H         1 UNK         0.0600 
    210 H210       -2.9821  -26.1957  -49.2174 H         1 UNK         0.3000 
    211 H211       -4.8936  -27.2478  -48.9171 H         1 UNK         0.0600 
    212 H212       -4.3320  -28.9089  -51.4334 H         1 UNK         0.0600 
    213 H213       -5.4973  -29.2772  -50.1712 H         1 UNK         0.0600 
    214 H214       -3.7789  -29.3084  -49.8075 H         1 UNK         0.0600 
    215 H215       -4.9647  -24.7778  -49.8977 H         1 UNK         0.3000 
    216 H216       -7.4208  -24.4434  -51.3348 H         1 UNK         0.0600 
    217 H217       -4.7814  -23.6385  -52.7198 H         1 UNK         0.0600 
    218 H218       -6.3976  -23.2631  -53.3060 H         1 UNK         0.0600 
    219 H219       -5.8459  -24.9255  -53.2783 H         1 UNK         0.0600 
    220 H220       -7.3323  -21.8230  -51.9113 H         1 UNK         0.3000 
    221 H221       -6.8726  -20.4409  -49.3985 H         1 UNK         0.0600 
    222 H222       -8.7363  -19.8013  -50.9242 H         1 UNK         0.0600 
    223 H223       -7.5845  -19.4004  -52.1990 H         1 UNK         0.0600 
    224 H224       -7.6270  -18.4548  -50.7168 H         1 UNK         0.0600 
    225 H225       -5.1996  -19.0403  -48.8833 H         1 UNK         0.3000 
    226 H226       -2.7128  -19.0988  -50.4339 H         1 UNK         0.0600 
    227 H227       -2.5923  -19.2879  -48.0078 H         1 UNK         0.0600 
    228 H228       -1.8367  -17.7865  -48.5061 H         1 UNK         0.0600 
    229 H229       -3.4444  -17.7595  -47.7855 H         1 UNK         0.0600 
    230 H230       -4.1865  -18.1822  -52.2253 H         1 UNK         0.3000 
    231 H231       -3.7312  -15.2656  -52.5028 H         1 UNK         0.0600 
    232 H232       -6.4464  -16.6604  -52.8411 H         1 UNK         0.0600 
    233 H233       -6.0833  -15.0117  -53.3431 H         1 UNK         0.0600 
    234 H234       -6.0460  -15.4374  -51.6382 H         1 UNK         0.0600 
    235 H235       -2.0193  -16.0589  -53.7753 H         1 UNK         0.3000 
    236 H236       -0.9018  -16.4375  -55.5923 H         1 UNK         0.0600 
    237 H237       -1.9103  -16.1930  -57.8290 H         1 UNK         0.0600 
    238 H238       -3.5276  -16.3289  -57.1597 H         1 UNK         0.0600 
    239 H239       -2.5115  -14.9484  -56.7449 H         1 UNK         0.0600 
    240 H240       -3.7364  -18.5543  -55.5303 H         1 UNK         0.3000 
    241 H241       -4.1551  -20.6029  -56.1934 H         1 UNK         0.0600 
    242 H242       -1.4471  -22.4654  -58.3426 H         1 UNK         0.3800 
    243 H243       -1.4903  -22.5840  -56.6046 H         1 UNK         0.3800 
    244 H244       -2.9693  -22.4255  -55.0061 H         1 UNK         0.0800 
    245 H245       -3.4554  -21.1104  -54.0060 H         1 UNK         0.0800 
    246 H246       -2.0691  -19.4150  -52.9615 H         1 UNK         0.0800 
    247 H247       -1.8203  -20.8026  -51.9291 H         1 UNK         0.0800 
@<TRIPOS>BOND
     1    1    2 1    
     2    1  127 1    
     3    1  128 1    
     4    1  129 1    
     5    2    3 2    
     6    2    4 am   BACKBONE|DICT|INTERRES
     7    4    5 1    
     8    4  130 1    
     9    5    6 1    
    10    5   65 1    
    11    5  131 1    
    12    6    7 1    
    13    6  132 1    
    14    6  133 1    
    15    7    8 1    
    16    8    9 1    
    17    8  134 1    
    18    8  135 1    
    19    9   10 ar   
    20    9   14 ar   
    21   10   11 ar   
    22   10  136 1    
    23   11   12 ar   
    24   11  126 1    
    25   12   13 ar   
    26   12  137 1    
    27   13   14 ar   
    28   13   15 1    
    29   14  138 1    
    30   15   16 1    
    31   15  139 1    
    32   15  140 1    
    33   16   17 1    
    34   17   18 1    
    35   17  141 1    
    36   17  142 1    
    37   18   19 1    
    38   18   67 1    
    39   18  143 1    
    40   19   20 am   BACKBONE|DICT|INTERRES
    41   19  144 1    
    42   20   21 2    
    43   20   22 1    
    44   22   23 1    
    45   22   24 1    
    46   22  145 1    
    47   23  146 1    
    48   23  147 1    
    49   23  148 1    
    50   24   25 am   BACKBONE|DICT|INTERRES
    51   24  149 1    
    52   25   26 2    
    53   25   27 1    
    54   27   28 1    
    55   27   29 1    
    56   27  150 1    
    57   28  151 1    
    58   28  152 1    
    59   28  153 1    
    60   29   30 am   BACKBONE|DICT|INTERRES
    61   29  154 1    
    62   30   31 2    
    63   30   32 1    
    64   32   33 1    
    65   32   34 1    
    66   32  155 1    
    67   33  156 1    
    68   33  157 1    
    69   33  158 1    
    70   34   35 am   BACKBONE|DICT|INTERRES
    71   34  159 1    
    72   35   36 2    
    73   35   37 1    
    74   37   38 1    
    75   37   39 1    
    76   37  160 1    
    77   38  161 1    
    78   38  162 1    
    79   38  163 1    
    80   39   40 am   BACKBONE|DICT|INTERRES
    81   39  164 1    
    82   40   41 2    
    83   40   42 1    
    84   42   43 1    
    85   42   44 1    
    86   42  165 1    
    87   43  166 1    
    88   43  167 1    
    89   43  168 1    
    90   44   45 am   BACKBONE|DICT|INTERRES
    91   44  169 1    
    92   45   46 2    
    93   45   47 1    
    94   47   48 1    
    95   47   49 1    
    96   47  170 1    
    97   48  171 1    
    98   48  172 1    
    99   48  173 1    
   100   49   50 am   BACKBONE|DICT|INTERRES
   101   49  174 1    
   102   50   51 2    
   103   50   52 1    
   104   52   53 1    
   105   52   54 1    
   106   52  175 1    
   107   53  176 1    
   108   53  177 1    
   109   53  178 1    
   110   54   55 am   BACKBONE|DICT|INTERRES
   111   54  179 1    
   112   55   56 2    
   113   55   57 1    
   114   57   58 1    
   115   57   59 1    
   116   57  180 1    
   117   58  181 1    
   118   58  182 1    
   119   58  183 1    
   120   59   60 am   BACKBONE|DICT|INTERRES
   121   59  184 1    
   122   60   61 2    
   123   60   62 1    
   124   62   63 1    
   125   62   64 1    
   126   62  185 1    
   127   63  186 1    
   128   63  187 1    
   129   63  188 1    
   130   64   65 am   BACKBONE|DICT|INTERRES
   131   64  189 1    
   132   65   66 2    
   133   67   68 2    
   134   67   69 am   BACKBONE|DICT|INTERRES
   135   69   70 1    
   136   69  190 1    
   137   70   71 1    
   138   70   72 1    
   139   70  191 1    
   140   71  192 1    
   141   71  193 1    
   142   71  194 1    
   143   72   73 2    
   144   72   74 am   BACKBONE|DICT|INTERRES
   145   74   75 1    
   146   74  195 1    
   147   75   76 1    
   148   75   77 1    
   149   75  196 1    
   150   76  197 1    
   151   76  198 1    
   152   76  199 1    
   153   77   78 2    
   154   77   79 am   BACKBONE|DICT|INTERRES
   155   79   80 1    
   156   79  200 1    
   157   80   81 1    
   158   80   82 1    
   159   80  201 1    
   160   81  202 1    
   161   81  203 1    
   162   81  204 1    
   163   82   83 2    
   164   82   84 am   BACKBONE|DICT|INTERRES
   165   84   85 1    
   166   84  205 1    
   167   85   86 1    
   168   85   87 1    
   169   85  206 1    
   170   86  207 1    
   171   86  208 1    
   172   86  209 1    
   173   87   88 2    
   174   87   89 am   BACKBONE|DICT|INTERRES
   175   89   90 1    
   176   89  210 1    
   177   90   91 1    
   178   90   92 1    
   179   90  211 1    
   180   91  212 1    
   181   91  213 1    
   182   91  214 1    
   183   92   93 2    
   184   92   94 am   BACKBONE|DICT|INTERRES
   185   94   95 1    
   186   94  215 1    
   187   95   96 1    
   188   95   97 1    
   189   95  216 1    
   190   96  217 1    
   191   96  218 1    
   192   96  219 1    
   193   97   98 2    
   194   97   99 am   BACKBONE|DICT|INTERRES
   195   99  100 1    
   196   99  220 1    
   197  100  101 1    
   198  100  102 1    
   199  100  221 1    
   200  101  222 1    
   201  101  223 1    
   202  101  224 1    
   203  102  103 2    
   204  102  104 am   BACKBONE|DICT|INTERRES
   205  104  105 1    
   206  104  225 1    
   207  105  106 1    
   208  105  107 1    
   209  105  226 1    
   210  106  227 1    
   211  106  228 1    
   212  106  229 1    
   213  107  108 2    
   214  107  109 am   BACKBONE|DICT|INTERRES
   215  109  110 1    
   216  109  230 1    
   217  110  111 1    
   218  110  112 1    
   219  110  231 1    
   220  111  232 1    
   221  111  233 1    
   222  111  234 1    
   223  112  113 2    
   224  112  114 am   BACKBONE|DICT|INTERRES
   225  114  115 1    
   226  114  235 1    
   227  115  116 1    
   228  115  117 1    
   229  115  236 1    
   230  116  237 1    
   231  116  238 1    
   232  116  239 1    
   233  117  118 2    
   234  117  119 am   BACKBONE|DICT|INTERRES
   235  119  120 1    
   236  119  240 1    
   237  120  121 1    
   238  120  124 1    
   239  120  241 1    
   240  121  122 am   BACKBONE|DICT|INTERRES
   241  121  123 2    
   242  122  242 1    
   243  122  243 1    
   244  124  125 1    
   245  124  244 1    
   246  124  245 1    
   247  125  126 1    
   248  126  246 1    
   249  126  247 1    
@<TRIPOS>SUBSTRUCTURE
     1 UNK         1 GROUP             0       ****    0 ROOT    
