@<TRIPOS>MOLECULE
3R540
247   249    1
SMALL
USER_CHARGES


@<TRIPOS>ATOM
      1 CA         -2.3327  -15.3726  -51.7729 C.3       0 UNK        -0.1800 
      2 C          -1.9302  -14.7569  -50.4418 C.2       0 UNK         0.5000 
      3 O          -2.4128  -15.1929  -49.3961 O.2       0 UNK        -0.5000 
      4 N          -1.0651  -13.7358  -50.4731 N.am      1 UNK        -0.5000 
      5 CA         -0.4697  -13.0069  -49.3383 C.3       1 UNK         0.1400 
      6 C6          0.3155  -13.9010  -48.3387 C.3       23 UNK        -0.0398 
      7 S7          1.6088  -14.8985  -49.1529 S.3       23 UNK        -0.2404 
      8 C8          0.9934  -16.5815  -48.8416 C.3       23 UNK        -0.0205 
      9 C9          1.6781  -17.5896  -49.7472 C.ar      23 UNK        -0.0193 
     10 C10         1.1349  -17.8867  -51.0008 C.ar      23 UNK        -0.1150 
     11 C11         1.7532  -18.8167  -51.8414 C.ar      23 UNK        -0.0193 
     12 C12         2.9280  -19.4455  -51.4194 C.ar      23 UNK        -0.1150 
     13 C13         3.4754  -19.1642  -50.1635 C.ar      23 UNK        -0.0193 
     14 C14         2.8487  -18.2308  -49.3331 C.ar      23 UNK        -0.1150 
     15 C15         4.7349  -19.8851  -49.7002 C.3       23 UNK        -0.0205 
     16 S16         4.4075  -21.0591  -48.3434 S.3       23 UNK        -0.2404 
     17 C17         2.9739  -21.9781  -48.9962 C.3       23 UNK        -0.0398 
     18 CA          2.8276  -23.4088  -48.4237 C.3       11 UNK         0.1400 
     19 N           2.7139  -23.4126  -46.9586 N.am      11 UNK        -0.5000 
     20 C           3.0350  -24.4407  -46.1611 C.2       10 UNK         0.5000 
     21 O           3.5579  -25.4787  -46.5673 O.2       10 UNK        -0.5000 
     22 CA          2.6603  -24.3167  -44.6686 C.3       10 UNK         0.1400 
     23 CB          3.8320  -23.7603  -43.8456 C.3       10 UNK        -0.1800 
     24 N           1.4614  -23.5021  -44.4443 N.am      10 UNK        -0.5000 
     25 C           0.2266  -23.8634  -44.8239 C.2       9 UNK         0.5000 
     26 O          -0.0285  -24.9451  -45.3523 O.2       9 UNK        -0.5000 
     27 CA         -0.9055  -22.8345  -44.6478 C.3       9 UNK         0.1400 
     28 CB         -1.5575  -22.9740  -43.2648 C.3       9 UNK        -0.1800 
     29 N          -0.4771  -21.4509  -44.8584 N.am      9 UNK        -0.5000 
     30 C           0.0127  -20.9746  -46.0117 C.2       8 UNK         0.5000 
     31 O           0.1368  -21.6566  -47.0275 O.2       8 UNK        -0.5000 
     32 CA          0.5201  -19.5208  -46.0112 C.3       8 UNK         0.1400 
     33 CB         -0.6436  -18.5239  -46.0585 C.3       8 UNK        -0.1800 
     34 N           1.3483  -19.2282  -44.8451 N.am      8 UNK        -0.5000 
     35 C           2.4923  -19.8550  -44.5416 C.2       7 UNK         0.5000 
     36 O           3.0090  -20.7180  -45.2478 O.2       7 UNK        -0.5000 
     37 CA          3.1266  -19.4996  -43.1886 C.3       7 UNK         0.1400 
     38 CB          3.9440  -18.2028  -43.2881 C.3       7 UNK        -0.1800 
     39 N           2.1083  -19.3688  -42.1456 N.am      7 UNK        -0.5000 
     40 C           1.4478  -20.4038  -41.6075 C.2       6 UNK         0.5000 
     41 O           1.6672  -21.5795  -41.9004 O.2       6 UNK        -0.5000 
     42 CA          0.3384  -20.0673  -40.5932 C.3       6 UNK         0.1400 
     43 CB          0.9315  -19.8606  -39.1915 C.3       6 UNK        -0.1800 
     44 N          -0.4404  -18.8853  -40.9688 N.am      6 UNK        -0.5000 
     45 C          -1.2814  -18.8377  -42.0110 C.2       5 UNK         0.5000 
     46 O          -1.4985  -19.7901  -42.7576 O.2       5 UNK        -0.5000 
     47 CA         -1.9736  -17.4918  -42.2933 C.3       5 UNK         0.1400 
     48 CB         -3.2522  -17.3632  -41.4531 C.3       5 UNK        -0.1800 
     49 N          -1.1393  -16.3053  -42.0811 N.am      5 UNK        -0.5000 
     50 C           0.0734  -16.0851  -42.6089 C.2       4 UNK         0.5000 
     51 O           0.6974  -16.9179  -43.2677 O.2       4 UNK        -0.5000 
     52 CA          0.6585  -14.6796  -42.3642 C.3       4 UNK         0.1400 
     53 CB          2.0494  -14.4845  -43.0040 C.3       4 UNK        -0.1800 
     54 N          -0.2664  -13.6200  -42.7890 N.am      4 UNK        -0.5000 
     55 C          -0.7444  -13.4257  -44.0269 C.2       3 UNK         0.5000 
     56 O          -0.4494  -14.1206  -45.0046 O.2       3 UNK        -0.5000 
     57 CA         -1.7087  -12.2431  -44.2076 C.3       3 UNK         0.1400 
     58 CB         -0.9578  -10.9004  -44.1106 C.3       3 UNK        -0.1800 
     59 N          -2.3210  -12.3856  -45.5207 N.am      3 UNK        -0.5000 
     60 C          -3.3588  -11.7139  -46.0270 C.2       2 UNK         0.5000 
     61 O          -3.9983  -10.8707  -45.3963 O.2       2 UNK        -0.5000 
     62 CA         -3.7505  -12.0624  -47.4819 C.3       2 UNK         0.1400 
     63 CB         -4.3845  -10.8750  -48.2339 C.3       2 UNK        -0.1800 
     64 N          -2.6532  -12.6498  -48.2644 N.am      2 UNK        -0.5000 
     65 C          -1.4708  -12.1041  -48.5834 C.2       1 UNK         0.5000 
     66 O          -1.1456  -10.9513  -48.2984 O.2       1 UNK        -0.5000 
     67 C           1.6269  -24.1063  -49.1078 C.2       11 UNK         0.5000 
     68 O           1.6415  -24.2521  -50.3304 O.2       11 UNK        -0.5000 
     69 N           0.6034  -24.4863  -48.3271 N.am      12 UNK        -0.5000 
     70 CA         -0.7024  -25.0093  -48.7402 C.3       12 UNK         0.1400 
     71 CB         -0.5650  -26.3172  -49.5472 C.3       12 UNK        -0.1800 
     72 C          -1.5859  -23.9603  -49.4477 C.2       12 UNK         0.5000 
     73 O          -2.5152  -24.3308  -50.1648 O.2       12 UNK        -0.5000 
     74 N          -1.3298  -22.6685  -49.2053 N.am      13 UNK        -0.5000 
     75 CA         -2.0821  -21.5251  -49.7248 C.3       13 UNK         0.1400 
     76 CB         -1.1417  -20.3067  -49.7639 C.3       13 UNK        -0.1800 
     77 C          -3.3395  -21.2599  -48.8701 C.2       13 UNK         0.5000 
     78 O          -3.5164  -20.1503  -48.3633 O.2       13 UNK        -0.5000 
     79 N          -4.1596  -22.3043  -48.6748 N.am      14 UNK        -0.5000 
     80 CA         -5.3199  -22.3770  -47.7808 C.3       14 UNK         0.1400 
     81 CB         -6.4890  -21.5362  -48.3402 C.3       14 UNK        -0.1800 
     82 C          -4.9204  -22.0151  -46.3344 C.2       14 UNK         0.5000 
     83 O          -4.2534  -22.8131  -45.6762 O.2       14 UNK        -0.5000 
     84 N          -5.2908  -20.8099  -45.8947 N.am      15 UNK        -0.5000 
     85 CA         -4.7971  -20.1482  -44.6915 C.3       15 UNK         0.1400 
     86 CB         -5.7480  -20.4227  -43.5122 C.3       15 UNK        -0.1800 
     87 C          -4.6219  -18.6533  -45.0146 C.2       15 UNK         0.5000 
     88 O          -5.0690  -17.7979  -44.2503 O.2       15 UNK        -0.5000 
     89 N          -4.0038  -18.3916  -46.1764 N.am      16 UNK        -0.5000 
     90 CA         -3.8594  -17.1196  -46.8879 C.3       16 UNK         0.1400 
     91 CB         -3.3181  -15.9878  -45.9872 C.3       16 UNK        -0.1800 
     92 C          -5.1519  -16.7139  -47.6204 C.2       16 UNK         0.5000 
     93 O          -6.2311  -17.2473  -47.3513 O.2       16 UNK        -0.5000 
     94 N          -4.9892  -15.7724  -48.5578 N.am      17 UNK        -0.5000 
     95 CA         -6.0040  -15.1943  -49.4436 C.3       17 UNK         0.1400 
     96 CB         -7.1133  -14.4810  -48.6411 C.3       17 UNK        -0.1800 
     97 C          -6.5498  -16.1970  -50.4827 C.2       17 UNK         0.5000 
     98 O          -7.7040  -16.0819  -50.8992 O.2       17 UNK        -0.5000 
     99 N          -5.7053  -17.1445  -50.9088 N.am      18 UNK        -0.5000 
    100 CA        -5.9955  -18.1143  -51.9586 C.3       18 UNK         0.1400 
    101 CB        -6.5893  -19.3906  -51.3415 C.3       18 UNK        -0.1800 
    102 C         -4.6973  -18.4331  -52.7086 C.2       18 UNK         0.5000 
    103 O         -3.6523  -18.5815  -52.0732 O.2       18 UNK        -0.5000 
    104 N         -4.7933  -18.5506  -54.0386 N.am      19 UNK        -0.5000 
    105 CA        -3.6937  -18.9733  -54.9118 C.3       19 UNK         0.1400 
    106 CB        -3.8947  -18.3525  -56.3028 C.3       19 UNK        -0.1800 
    107 C         -3.5877  -20.5073  -55.0167 C.2       19 UNK         0.5000 
    108 O         -2.5457  -21.0198  -55.4255 O.2       19 UNK        -0.5000 
    109 N         -4.6603  -21.2195  -54.6511 N.am      20 UNK        -0.5000 
    110 CA        -4.6604  -22.6676  -54.4803 C.3       20 UNK         0.1400 
    111 CB        -6.0629  -23.2101  -54.7938 C.3       20 UNK        -0.1800 
    112 C         -4.2681  -22.9928  -53.0250 C.2       20 UNK         0.5000 
    113 O         -4.6667  -22.2516  -52.1266 O.2       20 UNK        -0.5000 
    114 N         -3.5284  -24.0722  -52.7480 N.am      21 UNK        -0.5000 
    115 CA        -2.9349  -25.0418  -53.6714 C.3       21 UNK         0.1400 
    116 CB        -2.9485  -26.4164  -52.9820 C.3       21 UNK        -0.1800 
    117 C         -1.4958  -24.6618  -54.0839 C.2       21 UNK         0.5000 
    118 O         -0.8686  -25.4247  -54.8197 O.2       21 UNK        -0.5000 
    119 N         -0.9832  -23.5274  -53.5856 N.am      22 UNK        -0.5000 
    120 CA         0.4029  -23.0711  -53.7794 C.3       22 UNK         0.1400 
    121 C          0.8148  -22.7525  -55.2472 C.2       22 UNK         0.5000 
    122 N         -0.0900  -22.2980  -56.1047 N.am      22 UNK        -0.7600 
    123 O          1.9727  -22.9344  -55.6139 O.2       22 UNK        -0.5000 
    124 C124        0.7682  -21.9175  -52.8120 C.3       23 UNK        -0.0398 
    125 S125       -0.1733  -20.3742  -53.0952 S.3       23 UNK        -0.2404 
    126 C126        1.1538  -19.1325  -53.2052 C.3       23 UNK        -0.0205 
    127 H127       -1.8703  -14.8581  -52.6153 H         1 UNK         0.0600 
    128 H128       -3.4143  -15.3276  -51.8978 H         1 UNK         0.0600 
    129 H129       -2.0277  -16.4182  -51.8050 H         1 UNK         0.0600 
    130 H130       -0.7408  -13.4200  -51.3763 H         1 UNK         0.3000 
    131 H131        0.2553  -12.3300  -49.7936 H         1 UNK         0.0600 
    132 H132        0.8080  -13.2825  -47.5860 H         1 UNK         0.0800 
    133 H133       -0.3602  -14.5551  -47.7850 H         1 UNK         0.0800 
    134 H134        1.1679  -16.8340  -47.7954 H         1 UNK         0.0800 
    135 H135       -0.0854  -16.6264  -48.9956 H         1 UNK         0.0800 
    136 H136        0.2262  -17.3975  -51.3215 H         1 UNK         0.1150 
    137 H137        3.4134  -20.1623  -52.0660 H         1 UNK         0.1150 
    138 H138        3.2684  -18.0120  -48.3612 H         1 UNK         0.1150 
    139 H139        5.1975  -20.4238  -50.5285 H         1 UNK         0.0800 
    140 H140        5.4688  -19.1509  -49.3652 H         1 UNK         0.0800 
    141 H141        2.0776  -21.3870  -48.8010 H         1 UNK         0.0800 
    142 H142        3.0759  -22.0255  -50.0819 H         1 UNK         0.0800 
    143 H143        3.7207  -23.9714  -48.7032 H         1 UNK         0.0600 
    144 H144        2.3268  -22.5748  -46.5406 H         1 UNK         0.3000 
    145 H145        2.4477  -25.3232  -44.3019 H         1 UNK         0.0600 
    146 H146        3.5729  -23.6850  -42.7893 H         1 UNK         0.0600 
    147 H147        4.1378  -22.7724  -44.1869 H         1 UNK         0.0600 
    148 H148        4.7024  -24.4130  -43.9219 H         1 UNK         0.0600 
    149 H149        1.5944  -22.6037  -43.9974 H         1 UNK         0.3000 
    150 H150       -1.6596  -23.0590  -45.4037 H         1 UNK         0.0600 
    151 H151       -1.8778  -24.0009  -43.0847 H         1 UNK         0.0600 
    152 H152       -2.4421  -22.3423  -43.1829 H         1 UNK         0.0600 
    153 H153       -0.8698  -22.6967  -42.4656 H         1 UNK         0.0600 
    154 H154       -0.5975  -20.8179  -44.0721 H         1 UNK         0.3000 
    155 H155        1.1355  -19.3777  -46.9019 H         1 UNK         0.0600 
    156 H156       -1.2207  -18.6371  -46.9742 H         1 UNK         0.0600 
    157 H157       -0.2893  -17.4938  -46.0213 H         1 UNK         0.0600 
    158 H158       -1.3260  -18.6669  -45.2222 H         1 UNK         0.0600 
    159 H159        1.0201  -18.4946  -44.2211 H         1 UNK         0.3000 
    160 H160        3.8059  -20.3084  -42.9105 H         1 UNK         0.0600 
    161 H161        3.3301  -17.3592  -43.6034 H         1 UNK         0.0600 
    162 H162        4.7492  -18.3088  -44.0162 H         1 UNK         0.0600 
    163 H163        4.4009  -17.9484  -42.3317 H         1 UNK         0.0600 
    164 H164        1.8110  -18.4301  -41.9195 H         1 UNK         0.3000 
    165 H165       -0.3408  -20.9217  -40.5511 H         1 UNK         0.0600 
    166 H166        0.1472  -19.7030  -38.4510 H         1 UNK         0.0600 
    167 H167        1.5027  -20.7351  -38.8771 H         1 UNK         0.0600 
    168 H168        1.6023  -19.0012  -39.1592 H         1 UNK         0.0600 
    169 H169       -0.3159  -18.0545  -40.4094 H         1 UNK         0.3000 
    170 H170       -2.2618  -17.4940  -43.3449 H         1 UNK         0.0600 
    171 H171       -3.8973  -18.2324  -41.5867 H         1 UNK         0.0600 
    172 H172       -3.0300  -17.2792  -40.3887 H         1 UNK         0.0600 
    173 H173       -3.8306  -16.4875  -41.7486 H         1 UNK         0.0600 
    174 H174       -1.5673  -15.5551  -41.5588 H         1 UNK         0.3000 
    175 H175        0.7779  -14.5770  -41.2847 H         1 UNK         0.0600 
    176 H176        2.0291  -14.6421  -44.0829 H         1 UNK         0.0600 
    177 H177        2.4310  -13.4804  -42.8194 H         1 UNK         0.0600 
    178 H178        2.7705  -15.1868  -42.5852 H         1 UNK         0.0600 
    179 H179       -0.5703  -12.9927  -42.0572 H         1 UNK         0.3000 
    180 H180       -2.4848  -12.2990  -43.4421 H         1 UNK         0.0600 
    181 H181       -1.6354  -10.0541  -44.2216 H         1 UNK         0.0600 
    182 H182       -0.1908  -10.8161  -44.8817 H         1 UNK         0.0600 
    183 H183       -0.4659  -10.7903  -43.1436 H         1 UNK         0.0600 
    184 H184       -1.8660  -13.0926  -46.0849 H         1 UNK         0.3000 
    185 H185       -4.5090  -12.8416  -47.4024 H         1 UNK         0.0600 
    186 H186       -4.6657  -11.1571  -49.2485 H         1 UNK         0.0600 
    187 H187       -5.2897  -10.5313  -47.7322 H         1 UNK         0.0600 
    188 H188       -3.7034  -10.0260  -48.2971 H         1 UNK         0.0600 
    189 H189       -2.7833  -13.6109  -48.5675 H         1 UNK         0.3000 
    190 H190        0.6965  -24.3276  -47.3318 H         1 UNK         0.3000 
    191 H191       -1.2258  -25.2555  -47.8158 H         1 UNK         0.0600 
    192 H192       -1.5343  -26.8019  -49.6688 H         1 UNK         0.0600 
    193 H193        0.0895  -27.0269  -49.0414 H         1 UNK         0.0600 
    194 H194       -0.1647  -26.1406  -50.5458 H         1 UNK         0.0600 
    195 H195       -0.6193  -22.4374  -48.5143 H         1 UNK         0.3000 
    196 H196       -2.4009  -21.7370  -50.7464 H         1 UNK         0.0600 
    197 H197       -1.5928  -19.4833  -50.3189 H         1 UNK         0.0600 
    198 H198       -0.1931  -20.5475  -50.2395 H         1 UNK         0.0600 
    199 H199       -0.9066  -19.9394  -48.7685 H         1 UNK         0.0600 
    200 H200       -3.9049  -23.1704  -49.1353 H         1 UNK         0.3000 
    201 H201       -5.6385  -23.4202  -47.7647 H         1 UNK         0.0600 
    202 H202       -6.2412  -20.4773  -48.4190 H         1 UNK         0.0600 
    203 H203       -7.3726  -21.6240  -47.7069 H         1 UNK         0.0600 
    204 H204       -6.7714  -21.8815  -49.3349 H         1 UNK         0.0600 
    205 H205       -5.8162  -20.2162  -46.5231 H         1 UNK         0.3000 
    206 H206       -3.8059  -20.5312  -44.4379 H         1 UNK         0.0600 
    207 H207       -5.8342  -21.4918  -43.3179 H         1 UNK         0.0600 
    208 H208       -5.3815  -19.9561  -42.5976 H         1 UNK         0.0600 
    209 H209       -6.7485  -20.0343  -43.7056 H         1 UNK         0.0600 
    210 H210       -3.7515  -19.1901  -46.7552 H         1 UNK         0.3000 
    211 H211       -3.1125  -17.3110  -47.6599 H         1 UNK         0.0600 
    212 H212       -4.0639  -15.6369  -45.2740 H         1 UNK         0.0600 
    213 H213       -3.0171  -15.1285  -46.5852 H         1 UNK         0.0600 
    214 H214       -2.4394  -16.3051  -45.4275 H         1 UNK         0.0600 
    215 H215       -4.0327  -15.4884  -48.7628 H         1 UNK         0.3000 
    216 H216       -5.4850  -14.4280  -50.0212 H         1 UNK         0.0600 
    217 H217       -6.6945  -13.7850  -47.9152 H         1 UNK         0.0600 
    218 H218       -7.7436  -15.1886  -48.1021 H         1 UNK         0.0600 
    219 H219       -7.7632  -13.9055  -49.3012 H         1 UNK         0.0600 
    220 H220       -4.7617  -17.1813  -50.5458 H         1 UNK         0.3000 
    221 H221       -6.7127  -17.6886  -52.6639 H         1 UNK         0.0600 
    222 H222       -6.8662  -20.1081  -52.1145 H         1 UNK         0.0600 
    223 H223       -5.8686  -19.8815  -50.6867 H         1 UNK         0.0600 
    224 H224       -7.4841  -19.1748  -50.7576 H         1 UNK         0.0600 
    225 H225       -5.6839  -18.3885  -54.4868 H         1 UNK         0.3000 
    226 H226       -2.7469  -18.6062  -54.5089 H         1 UNK         0.0600 
    227 H227       -3.9189  -17.2640  -56.2485 H         1 UNK         0.0600 
    228 H228       -3.0782  -18.6252  -56.9729 H         1 UNK         0.0600 
    229 H229       -4.8242  -18.6880  -56.7643 H         1 UNK         0.0600 
    230 H230       -5.4527  -20.7269  -54.2691 H         1 UNK         0.3000 
    231 H231       -3.9533  -23.1010  -55.1874 H         1 UNK         0.0600 
    232 H232       -6.0904  -24.2962  -54.6979 H         1 UNK         0.0600 
    233 H233       -6.3611  -22.9656  -55.8135 H         1 UNK         0.0600 
    234 H234       -6.8148  -22.8016  -54.1172 H         1 UNK         0.0600 
    235 H235       -3.2757  -24.2243  -51.7729 H         1 UNK         0.3000 
    236 H236       -3.5353  -25.1355  -54.5764 H         1 UNK         0.0600 
    237 H237       -2.3282  -26.4218  -52.0854 H         1 UNK         0.0600 
    238 H238       -3.9595  -26.7016  -52.6905 H         1 UNK         0.0600 
    239 H239       -2.5724  -27.1955  -53.6462 H         1 UNK         0.0600 
    240 H240       -1.5671  -22.9431  -53.0068 H         1 UNK         0.3000 
    241 H241        1.0276  -23.9168  -53.4840 H         1 UNK         0.0600 
    242 H242        0.1832  -22.1028  -57.0538 H         1 UNK         0.3800 
    243 H243       -1.0163  -22.0225  -55.7851 H         1 UNK         0.3800 
    244 H244        1.8379  -21.7178  -52.8727 H         1 UNK         0.0800 
    245 H245        0.5904  -22.2333  -51.7838 H         1 UNK         0.0800 
    246 H246        1.9234  -19.4748  -53.8986 H         1 UNK         0.0800 
    247 H247        0.7406  -18.2205  -53.6384 H         1 UNK         0.0800 
@<TRIPOS>BOND
     1    1    2 1    
     2    1  127 1    
     3    1  128 1    
     4    1  129 1    
     5    2    3 2    
     6    2    4 am   BACKBONE|DICT|INTERRES
     7    4    5 1    
     8    4  130 1    
     9    5    6 1    
    10    5   65 1    
    11    5  131 1    
    12    6    7 1    
    13    6  132 1    
    14    6  133 1    
    15    7    8 1    
    16    8    9 1    
    17    8  134 1    
    18    8  135 1    
    19    9   10 ar   
    20    9   14 ar   
    21   10   11 ar   
    22   10  136 1    
    23   11   12 ar   
    24   11  126 1    
    25   12   13 ar   
    26   12  137 1    
    27   13   14 ar   
    28   13   15 1    
    29   14  138 1    
    30   15   16 1    
    31   15  139 1    
    32   15  140 1    
    33   16   17 1    
    34   17   18 1    
    35   17  141 1    
    36   17  142 1    
    37   18   19 1    
    38   18   67 1    
    39   18  143 1    
    40   19   20 am   BACKBONE|DICT|INTERRES
    41   19  144 1    
    42   20   21 2    
    43   20   22 1    
    44   22   23 1    
    45   22   24 1    
    46   22  145 1    
    47   23  146 1    
    48   23  147 1    
    49   23  148 1    
    50   24   25 am   BACKBONE|DICT|INTERRES
    51   24  149 1    
    52   25   26 2    
    53   25   27 1    
    54   27   28 1    
    55   27   29 1    
    56   27  150 1    
    57   28  151 1    
    58   28  152 1    
    59   28  153 1    
    60   29   30 am   BACKBONE|DICT|INTERRES
    61   29  154 1    
    62   30   31 2    
    63   30   32 1    
    64   32   33 1    
    65   32   34 1    
    66   32  155 1    
    67   33  156 1    
    68   33  157 1    
    69   33  158 1    
    70   34   35 am   BACKBONE|DICT|INTERRES
    71   34  159 1    
    72   35   36 2    
    73   35   37 1    
    74   37   38 1    
    75   37   39 1    
    76   37  160 1    
    77   38  161 1    
    78   38  162 1    
    79   38  163 1    
    80   39   40 am   BACKBONE|DICT|INTERRES
    81   39  164 1    
    82   40   41 2    
    83   40   42 1    
    84   42   43 1    
    85   42   44 1    
    86   42  165 1    
    87   43  166 1    
    88   43  167 1    
    89   43  168 1    
    90   44   45 am   BACKBONE|DICT|INTERRES
    91   44  169 1    
    92   45   46 2    
    93   45   47 1    
    94   47   48 1    
    95   47   49 1    
    96   47  170 1    
    97   48  171 1    
    98   48  172 1    
    99   48  173 1    
   100   49   50 am   BACKBONE|DICT|INTERRES
   101   49  174 1    
   102   50   51 2    
   103   50   52 1    
   104   52   53 1    
   105   52   54 1    
   106   52  175 1    
   107   53  176 1    
   108   53  177 1    
   109   53  178 1    
   110   54   55 am   BACKBONE|DICT|INTERRES
   111   54  179 1    
   112   55   56 2    
   113   55   57 1    
   114   57   58 1    
   115   57   59 1    
   116   57  180 1    
   117   58  181 1    
   118   58  182 1    
   119   58  183 1    
   120   59   60 am   BACKBONE|DICT|INTERRES
   121   59  184 1    
   122   60   61 2    
   123   60   62 1    
   124   62   63 1    
   125   62   64 1    
   126   62  185 1    
   127   63  186 1    
   128   63  187 1    
   129   63  188 1    
   130   64   65 am   BACKBONE|DICT|INTERRES
   131   64  189 1    
   132   65   66 2    
   133   67   68 2    
   134   67   69 am   BACKBONE|DICT|INTERRES
   135   69   70 1    
   136   69  190 1    
   137   70   71 1    
   138   70   72 1    
   139   70  191 1    
   140   71  192 1    
   141   71  193 1    
   142   71  194 1    
   143   72   73 2    
   144   72   74 am   BACKBONE|DICT|INTERRES
   145   74   75 1    
   146   74  195 1    
   147   75   76 1    
   148   75   77 1    
   149   75  196 1    
   150   76  197 1    
   151   76  198 1    
   152   76  199 1    
   153   77   78 2    
   154   77   79 am   BACKBONE|DICT|INTERRES
   155   79   80 1    
   156   79  200 1    
   157   80   81 1    
   158   80   82 1    
   159   80  201 1    
   160   81  202 1    
   161   81  203 1    
   162   81  204 1    
   163   82   83 2    
   164   82   84 am   BACKBONE|DICT|INTERRES
   165   84   85 1    
   166   84  205 1    
   167   85   86 1    
   168   85   87 1    
   169   85  206 1    
   170   86  207 1    
   171   86  208 1    
   172   86  209 1    
   173   87   88 2    
   174   87   89 am   BACKBONE|DICT|INTERRES
   175   89   90 1    
   176   89  210 1    
   177   90   91 1    
   178   90   92 1    
   179   90  211 1    
   180   91  212 1    
   181   91  213 1    
   182   91  214 1    
   183   92   93 2    
   184   92   94 am   BACKBONE|DICT|INTERRES
   185   94   95 1    
   186   94  215 1    
   187   95   96 1    
   188   95   97 1    
   189   95  216 1    
   190   96  217 1    
   191   96  218 1    
   192   96  219 1    
   193   97   98 2    
   194   97   99 am   BACKBONE|DICT|INTERRES
   195   99  100 1    
   196   99  220 1    
   197  100  101 1    
   198  100  102 1    
   199  100  221 1    
   200  101  222 1    
   201  101  223 1    
   202  101  224 1    
   203  102  103 2    
   204  102  104 am   BACKBONE|DICT|INTERRES
   205  104  105 1    
   206  104  225 1    
   207  105  106 1    
   208  105  107 1    
   209  105  226 1    
   210  106  227 1    
   211  106  228 1    
   212  106  229 1    
   213  107  108 2    
   214  107  109 am   BACKBONE|DICT|INTERRES
   215  109  110 1    
   216  109  230 1    
   217  110  111 1    
   218  110  112 1    
   219  110  231 1    
   220  111  232 1    
   221  111  233 1    
   222  111  234 1    
   223  112  113 2    
   224  112  114 am   BACKBONE|DICT|INTERRES
   225  114  115 1    
   226  114  235 1    
   227  115  116 1    
   228  115  117 1    
   229  115  236 1    
   230  116  237 1    
   231  116  238 1    
   232  116  239 1    
   233  117  118 2    
   234  117  119 am   BACKBONE|DICT|INTERRES
   235  119  120 1    
   236  119  240 1    
   237  120  121 1    
   238  120  124 1    
   239  120  241 1    
   240  121  122 am   BACKBONE|DICT|INTERRES
   241  121  123 2    
   242  122  242 1    
   243  122  243 1    
   244  124  125 1    
   245  124  244 1    
   246  124  245 1    
   247  125  126 1    
   248  126  246 1    
   249  126  247 1    
@<TRIPOS>SUBSTRUCTURE
     1 UNK         1 GROUP             0       ****    0 ROOT    
