@<TRIPOS>MOLECULE
3R540
247   249    1
SMALL
USER_CHARGES


@<TRIPOS>ATOM
      1 CA         -1.9204   -8.9982  -45.6377 C.3       0 UNK        -0.1800 
      2 C          -1.0604  -10.2533  -45.6336 C.2       0 UNK         0.5000 
      3 O           0.1316  -10.1791  -45.3365 O.2       0 UNK        -0.5000 
      4 N          -1.6615  -11.4109  -45.9417 N.am      1 UNK        -0.5000 
      5 CA         -0.9965  -12.7209  -46.0509 C.3       1 UNK         0.1400 
      6 C6         -1.9391  -13.8157  -46.6136 C.3       23 UNK        -0.0398 
      7 S7         -2.7357  -13.3146  -48.1801 S.3       23 UNK        -0.2404 
      8 C8         -4.2206  -14.3685  -48.2109 C.3       23 UNK        -0.0205 
      9 C9         -3.9926  -15.6295  -49.0298 C.ar      23 UNK        -0.0193 
     10 C10        -4.2317  -15.6177  -50.4069 C.ar      23 UNK        -0.1150 
     11 C11        -4.0387  -16.7711  -51.1717 C.ar      23 UNK        -0.0193 
     12 C12        -3.5878  -17.9394  -50.5514 C.ar      23 UNK        -0.1150 
     13 C13        -3.3409  -17.9639  -49.1751 C.ar      23 UNK        -0.0193 
     14 C14        -3.5556  -16.8077  -48.4181 C.ar      23 UNK        -0.1150 
     15 C15        -2.8122  -19.2310  -48.5211 C.3       23 UNK        -0.0205 
     16 S16        -4.0708  -20.5461  -48.4451 S.3       23 UNK        -0.2404 
     17 C17        -4.5520  -20.4473  -46.6893 C.3       23 UNK        -0.0398 
     18 CA         -3.5866  -21.2571  -45.7847 C.3       11 UNK         0.1400 
     19 N          -3.3713  -20.5998  -44.4852 N.am      11 UNK        -0.5000 
     20 C          -2.4513  -20.9706  -43.5838 C.2       10 UNK         0.5000 
     21 O          -1.7184  -21.9486  -43.7282 O.2       10 UNK        -0.5000 
     22 CA         -2.3283  -20.1002  -42.3287 C.3       10 UNK         0.1400 
     23 CB         -1.8506  -20.9029  -41.1055 C.3       10 UNK        -0.1800 
     24 N          -1.3576  -19.0594  -42.6273 N.am      10 UNK        -0.5000 
     25 C          -1.5669  -17.7445  -42.5123 C.2       9 UNK         0.5000 
     26 O          -2.5956  -17.2491  -42.0508 O.2       9 UNK        -0.5000 
     27 CA         -0.4471  -16.8221  -43.0254 C.3       9 UNK         0.1400 
     28 CB          0.6295  -16.6162  -41.9498 C.3       9 UNK        -0.1800 
     29 N           0.1849  -17.3031  -44.2532 N.am      9 UNK        -0.5000 
     30 C          -0.4326  -17.4178  -45.4367 C.2       8 UNK         0.5000 
     31 O          -1.6213  -17.1577  -45.6133 O.2       8 UNK        -0.5000 
     32 CA          0.4169  -17.9203  -46.6148 C.3       8 UNK         0.1400 
     33 CB          1.2836  -16.7915  -47.1909 C.3       8 UNK        -0.1800 
     34 N           1.2726  -19.0268  -46.1951 N.am      8 UNK        -0.5000 
     35 C           0.9183  -20.3171  -46.2523 C.2       7 UNK         0.5000 
     36 O          -0.1242  -20.7125  -46.7710 O.2       7 UNK        -0.5000 
     37 CA          1.8866  -21.3453  -45.6321 C.3       7 UNK         0.1400 
     38 CB          2.7705  -21.9762  -46.7189 C.3       7 UNK        -0.1800 
     39 N           2.7527  -20.7904  -44.5889 N.am      7 UNK        -0.5000 
     40 C           2.3316  -20.3635  -43.3907 C.2       6 UNK         0.5000 
     41 O           1.1591  -20.3999  -43.0238 O.2       6 UNK        -0.5000 
     42 CA          3.3935  -19.7361  -42.4663 C.3       6 UNK         0.1400 
     43 CB          4.0958  -20.8261  -41.6430 C.3       6 UNK        -0.1800 
     44 N           4.4033  -18.9224  -43.1558 N.am      6 UNK        -0.5000 
     45 C           4.1482  -17.8977  -43.9815 C.2       5 UNK         0.5000 
     46 O           3.0126  -17.5769  -44.3360 O.2       5 UNK        -0.5000 
     47 CA          5.3725  -17.1496  -44.5446 C.3       5 UNK         0.1400 
     48 CB          6.0212  -17.9721  -45.6697 C.3       5 UNK        -0.1800 
     49 N           5.0442  -15.8232  -45.0743 N.am      5 UNK        -0.5000 
     50 C           4.5682  -14.7914  -44.3639 C.2       4 UNK         0.5000 
     51 O           4.3973  -14.8306  -43.1425 O.2       4 UNK        -0.5000 
     52 CA          4.2801  -13.4942  -45.1522 C.3       4 UNK         0.1400 
     53 CB          3.5994  -13.7467  -46.5109 C.3       4 UNK        -0.1800 
     54 N           3.4405  -12.5797  -44.3811 N.am      4 UNK        -0.5000 
     55 C           3.8938  -11.6161  -43.5679 C.2       3 UNK         0.5000 
     56 O           5.0900  -11.3630  -43.4136 O.2       3 UNK        -0.5000 
     57 CA          2.8482  -10.7716  -42.8105 C.3       3 UNK         0.1400 
     58 CB          2.7881   -9.3470  -43.3846 C.3       3 UNK        -0.1800 
     59 N           1.5050  -11.3545  -42.8457 N.am      3 UNK        -0.5000 
     60 C           1.0845  -12.3271  -42.0233 C.2       2 UNK         0.5000 
     61 O           1.7715  -12.7894  -41.1123 O.2       2 UNK        -0.5000 
     62 CA         -0.3372  -12.8854  -42.2427 C.3       2 UNK         0.1400 
     63 CB         -1.3170  -12.2720  -41.2313 C.3       2 UNK        -0.1800 
     64 N          -0.8665  -12.6818  -43.5924 N.am      2 UNK        -0.5000 
     65 C          -0.3520  -13.1846  -44.7245 C.2       1 UNK         0.5000 
     66 O           0.6189  -13.9387  -44.7507 O.2       1 UNK        -0.5000 
     67 C          -3.9898  -22.7484  -45.6796 C.2       11 UNK         0.5000 
     68 O          -3.7760  -23.5101  -46.6239 O.2       11 UNK        -0.5000 
     69 N          -4.4975  -23.1608  -44.5091 N.am      12 UNK        -0.5000 
     70 CA         -4.7343  -24.5548  -44.1350 C.3       12 UNK         0.1400 
     71 CB         -5.4431  -24.5943  -42.7733 C.3       12 UNK        -0.1800 
     72 C          -3.4505  -25.4107  -44.0989 C.2       12 UNK         0.5000 
     73 O          -3.5262  -26.6056  -44.3829 O.2       12 UNK        -0.5000 
     74 N          -2.2907  -24.7976  -43.8093 N.am      13 UNK        -0.5000 
     75 CA         -0.9802  -25.4575  -43.8453 C.3       13 UNK         0.1400 
     76 CB          0.0542  -24.6014  -43.0978 C.3       13 UNK        -0.1800 
     77 C          -0.5071  -25.7513  -45.2828 C.2       13 UNK         0.5000 
     78 O           0.2530  -26.6971  -45.4899 O.2       13 UNK        -0.5000 
     79 N          -0.9979  -24.9644  -46.2500 N.am      14 UNK        -0.5000 
     80 CA         -0.8310  -25.1879  -47.6865 C.3       14 UNK         0.1400 
     81 CB         -0.7774  -23.8223  -48.3945 C.3       14 UNK        -0.1800 
     82 C          -1.9644  -26.0540  -48.2744 C.2       14 UNK         0.5000 
     83 O          -1.9910  -26.2578  -49.4877 O.2       14 UNK        -0.5000 
     84 N          -2.9124  -26.4995  -47.4322 N.am      15 UNK        -0.5000 
     85 CA         -4.1402  -27.2314  -47.7720 C.3       15 UNK         0.1400 
     86 CB         -3.7989  -28.6568  -48.2525 C.3       15 UNK        -0.1800 
     87 C          -5.0490  -26.4697  -48.7636 C.2       15 UNK         0.5000 
     88 O          -5.7731  -27.0953  -49.5393 O.2       15 UNK        -0.5000 
     89 N          -4.9574  -25.1304  -48.7429 N.am      16 UNK        -0.5000 
     90 CA         -5.5651  -24.1668  -49.6655 C.3       16 UNK         0.1400 
     91 CB         -7.1023  -24.1854  -49.5482 C.3       16 UNK        -0.1800 
     92 C          -5.0870  -24.2844  -51.1322 C.2       16 UNK         0.5000 
     93 O          -5.6586  -23.6246  -52.0010 O.2       16 UNK        -0.5000 
     94 N          -4.0333  -25.0740  -51.4022 N.am      17 UNK        -0.5000 
     95 CA         -3.4850  -25.3004  -52.7457 C.3       17 UNK         0.1400 
     96 CB         -2.4989  -26.4765  -52.7083 C.3       17 UNK        -0.1800 
     97 C          -2.8123  -24.0508  -53.3427 C.2       17 UNK         0.5000 
     98 O          -2.7355  -23.9210  -54.5649 O.2       17 UNK        -0.5000 
     99 N          -2.3917  -23.1253  -52.4692 N.am      18 UNK        -0.5000 
    100 CA        -1.8509  -21.8075  -52.8025 C.3       18 UNK         0.1400 
    101 CB        -1.4279  -21.1109  -51.5044 C.3       18 UNK        -0.1800 
    102 C         -2.8193  -20.9153  -53.6055 C.2       18 UNK         0.5000 
    103 O         -2.3589  -20.0132  -54.3024 O.2       18 UNK        -0.5000 
    104 N         -4.1277  -21.2105  -53.5643 N.am      19 UNK        -0.5000 
    105 CA        -5.1531  -20.5719  -54.3928 C.3       19 UNK         0.1400 
    106 CB        -6.5352  -21.0986  -53.9818 C.3       19 UNK        -0.1800 
    107 C         -4.9327  -20.7479  -55.9101 C.2       19 UNK         0.5000 
    108 O         -5.3884  -19.9031  -56.6802 O.2       19 UNK        -0.5000 
    109 N         -4.2211  -21.8117  -56.3131 N.am      20 UNK        -0.5000 
    110 CA        -3.8000  -22.0406  -57.6958 C.3       20 UNK         0.1400 
    111 CB        -3.5207  -23.5383  -57.8938 C.3       20 UNK        -0.1800 
    112 C         -2.5641  -21.2059  -58.0900 C.2       20 UNK         0.5000 
    113 O         -2.3638  -20.9608  -59.2803 O.2       20 UNK        -0.5000 
    114 N         -1.7536  -20.7959  -57.1032 N.am      21 UNK        -0.5000 
    115 CA        -0.5717  -19.9544  -57.2971 C.3       21 UNK         0.1400 
    116 CB         0.4631  -20.2563  -56.2010 C.3       21 UNK        -0.1800 
    117 C         -0.9366  -18.4595  -57.3140 C.2       21 UNK         0.5000 
    118 O         -0.3301  -17.7007  -58.0717 O.2       21 UNK        -0.5000 
    119 N         -1.9213  -18.0675  -56.4937 N.am      22 UNK        -0.5000 
    120 CA        -2.5221  -16.7245  -56.4650 C.3       22 UNK         0.1400 
    121 C         -3.1652  -16.3143  -57.8218 C.2       22 UNK         0.5000 
    122 N         -3.0728  -15.0459  -58.1983 N.am      22 UNK        -0.7600 
    123 O         -3.7833  -17.1202  -58.5136 O.2       22 UNK        -0.5000 
    124 C124       -3.5665  -16.5936  -55.3281 C.3       23 UNK        -0.0398 
    125 S125       -2.8284  -16.6981  -53.6645 S.3       23 UNK        -0.2404 
    126 C126       -4.3430  -16.7624  -52.6606 C.3       23 UNK        -0.0205 
    127 H127       -1.9165   -8.5382  -44.6496 H         1 UNK         0.0600 
    128 H128       -2.9538   -9.2156  -45.9088 H         1 UNK         0.0600 
    129 H129       -1.5254   -8.2765  -46.3527 H         1 UNK         0.0600 
    130 H130       -2.6407  -11.4049  -46.1905 H         1 UNK         0.3000 
    131 H131       -0.1770  -12.5965  -46.7621 H         1 UNK         0.0600 
    132 H132       -1.3853  -14.7364  -46.8006 H         1 UNK         0.0800 
    133 H133       -2.7093  -14.0629  -45.8810 H         1 UNK         0.0800 
    134 H134       -5.0416  -13.7966  -48.6460 H         1 UNK         0.0800 
    135 H135       -4.5386  -14.6214  -47.1986 H         1 UNK         0.0800 
    136 H136       -4.5744  -14.7091  -50.8819 H         1 UNK         0.1150 
    137 H137       -3.4308  -18.8307  -51.1421 H         1 UNK         0.1150 
    138 H138       -3.3759  -16.8183  -47.3537 H         1 UNK         0.1150 
    139 H139       -2.4437  -19.0197  -47.5170 H         1 UNK         0.0800 
    140 H140       -1.9457  -19.5879  -49.0768 H         1 UNK         0.0800 
    141 H141       -5.5846  -20.7838  -46.5800 H         1 UNK         0.0800 
    142 H142       -4.5586  -19.3926  -46.4093 H         1 UNK         0.0800 
    143 H143       -2.6042  -21.2611  -46.2591 H         1 UNK         0.0600 
    144 H144       -3.9251  -19.7757  -44.3009 H         1 UNK         0.3000 
    145 H145       -3.3101  -19.6787  -42.1038 H         1 UNK         0.0600 
    146 H146       -1.8011  -20.2716  -40.2183 H         1 UNK         0.0600 
    147 H147       -2.5344  -21.7236  -40.8858 H         1 UNK         0.0600 
    148 H148       -0.8601  -21.3325  -41.2629 H         1 UNK         0.0600 
    149 H149       -0.4700  -19.3942  -42.9962 H         1 UNK         0.3000 
    150 H150       -0.9011  -15.8564  -43.2512 H         1 UNK         0.0600 
    151 H151        1.1141  -17.5554  -41.6857 H         1 UNK         0.0600 
    152 H152        0.1983  -16.2026  -41.0375 H         1 UNK         0.0600 
    153 H153        1.4011  -15.9245  -42.2908 H         1 UNK         0.0600 
    154 H154        1.1853  -17.4818  -44.2103 H         1 UNK         0.3000 
    155 H155       -0.2562  -18.2499  -47.4071 H         1 UNK         0.0600 
    156 H156        2.0050  -16.4296  -46.4600 H         1 UNK         0.0600 
    157 H157        0.6712  -15.9430  -47.4975 H         1 UNK         0.0600 
    158 H158        1.8370  -17.1287  -48.0672 H         1 UNK         0.0600 
    159 H159        2.1174  -18.7713  -45.6974 H         1 UNK         0.3000 
    160 H160        1.2768  -22.1331  -45.1853 H         1 UNK         0.0600 
    161 H161        3.4337  -21.2396  -47.1742 H         1 UNK         0.0600 
    162 H162        2.1677  -22.4089  -47.5172 H         1 UNK         0.0600 
    163 H163        3.3866  -22.7771  -46.3099 H         1 UNK         0.0600 
    164 H164        3.7342  -20.7078  -44.8088 H         1 UNK         0.3000 
    165 H165        2.8709  -19.0777  -41.7712 H         1 UNK         0.0600 
    166 H166        4.7665  -20.3913  -40.9019 H         1 UNK         0.0600 
    167 H167        4.6810  -21.4947  -42.2757 H         1 UNK         0.0600 
    168 H168        3.3703  -21.4364  -41.1031 H         1 UNK         0.0600 
    169 H169        5.3656  -19.1350  -42.9354 H         1 UNK         0.3000 
    170 H170        6.0953  -17.0199  -43.7366 H         1 UNK         0.0600 
    171 H171        6.3293  -18.9563  -45.3147 H         1 UNK         0.0600 
    172 H172        5.3338  -18.1247  -46.5031 H         1 UNK         0.0600 
    173 H173        6.9127  -17.4778  -46.0564 H         1 UNK         0.0600 
    174 H174        5.1393  -15.7121  -46.0724 H         1 UNK         0.3000 
    175 H175        5.2454  -13.0242  -45.3506 H         1 UNK         0.0600 
    176 H176        2.6409  -14.2480  -46.3921 H         1 UNK         0.0600 
    177 H177        3.4139  -12.8075  -47.0325 H         1 UNK         0.0600 
    178 H178        4.2166  -14.3566  -47.1707 H         1 UNK         0.0600 
    179 H179        2.4479  -12.7789  -44.3929 H         1 UNK         0.3000 
    180 H180        3.1769  -10.6991  -41.7716 H         1 UNK         0.0600 
    181 H181        2.5242   -9.3501  -44.4425 H         1 UNK         0.0600 
    182 H182        3.7534   -8.8479  -43.2910 H         1 UNK         0.0600 
    183 H183        2.0549   -8.7373  -42.8565 H         1 UNK         0.0600 
    184 H184        0.8936  -11.0274  -43.5865 H         1 UNK         0.3000 
    185 H185       -0.2918  -13.9576  -42.0585 H         1 UNK         0.0600 
    186 H186       -2.3048  -12.7261  -41.3129 H         1 UNK         0.0600 
    187 H187       -0.9732  -12.4293  -40.2080 H         1 UNK         0.0600 
    188 H188       -1.4264  -11.1969  -41.3793 H         1 UNK         0.0600 
    189 H189       -1.6525  -12.0534  -43.6740 H         1 UNK         0.3000 
    190 H190       -4.6408  -22.4713  -43.7865 H         1 UNK         0.3000 
    191 H191       -5.3999  -24.9917  -44.8826 H         1 UNK         0.0600 
    192 H192       -5.6588  -25.6211  -42.4749 H         1 UNK         0.0600 
    193 H193       -6.3933  -24.0611  -42.8070 H         1 UNK         0.0600 
    194 H194       -4.8325  -24.1456  -41.9886 H         1 UNK         0.0600 
    195 H195       -2.2783  -23.7959  -43.6368 H         1 UNK         0.3000 
    196 H196       -1.0661  -26.4127  -43.3230 H         1 UNK         0.0600 
    197 H197        0.2439  -23.6569  -43.6072 H         1 UNK         0.0600 
    198 H198       -0.2768  -24.3741  -42.0843 H         1 UNK         0.0600 
    199 H199        1.0079  -25.1247  -43.0200 H         1 UNK         0.0600 
    200 H200       -1.6334  -24.2218  -45.9910 H         1 UNK         0.3000 
    201 H201        0.1111  -25.7066  -47.8737 H         1 UNK         0.0600 
    202 H202       -1.7154  -23.2746  -48.2986 H         1 UNK         0.0600 
    203 H203       -0.5742  -23.9386  -49.4597 H         1 UNK         0.0600 
    204 H204        0.0128  -23.1971  -47.9828 H         1 UNK         0.0600 
    205 H205       -2.8077  -26.2812  -46.4503 H         1 UNK         0.3000 
    206 H206       -4.7107  -27.3205  -46.8467 H         1 UNK         0.0600 
    207 H207       -3.1614  -29.1720  -47.5340 H         1 UNK         0.0600 
    208 H208       -4.7012  -29.2575  -48.3720 H         1 UNK         0.0600 
    209 H209       -3.2826  -28.6473  -49.2130 H         1 UNK         0.0600 
    210 H210       -4.3575  -24.7116  -48.0362 H         1 UNK         0.3000 
    211 H211       -5.2269  -23.1878  -49.3256 H         1 UNK         0.0600 
    212 H212       -7.5476  -23.3631  -50.1094 H         1 UNK         0.0600 
    213 H213       -7.4192  -24.0764  -48.5110 H         1 UNK         0.0600 
    214 H214       -7.5283  -25.1112  -49.9354 H         1 UNK         0.0600 
    215 H215       -3.5739  -25.5645  -50.6422 H         1 UNK         0.3000 
    216 H216       -4.3133  -25.5726  -53.4030 H         1 UNK         0.0600 
    217 H217       -1.6123  -26.2402  -52.1192 H         1 UNK         0.0600 
    218 H218       -2.1628  -26.7337  -53.7136 H         1 UNK         0.0600 
    219 H219       -2.9597  -27.3671  -52.2803 H         1 UNK         0.0600 
    220 H220       -2.5039  -23.3301  -51.4876 H         1 UNK         0.3000 
    221 H221       -0.9632  -21.9570  -53.4202 H         1 UNK         0.0600 
    222 H222       -0.6340  -21.6604  -50.9985 H         1 UNK         0.0600 
    223 H223       -2.2702  -21.0317  -50.8190 H         1 UNK         0.0600 
    224 H224       -1.0570  -20.1028  -51.6961 H         1 UNK         0.0600 
    225 H225       -4.4377  -21.9805  -52.9844 H         1 UNK         0.3000 
    226 H226       -5.1221  -19.5020  -54.1887 H         1 UNK         0.0600 
    227 H227       -6.6269  -22.1695  -54.1673 H         1 UNK         0.0600 
    228 H228       -6.7260  -20.9243  -52.9226 H         1 UNK         0.0600 
    229 H229       -7.3268  -20.5992  -54.5418 H         1 UNK         0.0600 
    230 H230       -3.8741  -22.4678  -55.6219 H         1 UNK         0.3000 
    231 H231       -4.6167  -21.7598  -58.3644 H         1 UNK         0.0600 
    232 H232       -2.6857  -23.8772  -57.2797 H         1 UNK         0.0600 
    233 H233       -3.2702  -23.7537  -58.9333 H         1 UNK         0.0600 
    234 H234       -4.3924  -24.1408  -57.6379 H         1 UNK         0.0600 
    235 H235       -2.0197  -20.9784  -56.1447 H         1 UNK         0.3000 
    236 H236       -0.1142  -20.1977  -58.2585 H         1 UNK         0.0600 
    237 H237        0.7278  -21.3137  -56.1885 H         1 UNK         0.0600 
    238 H238        1.3814  -19.6932  -56.3715 H         1 UNK         0.0600 
    239 H239        0.0991  -19.9894  -55.2090 H         1 UNK         0.0600 
    240 H240       -2.3069  -18.7448  -55.8449 H         1 UNK         0.3000 
    241 H241       -1.7104  -16.0230  -56.2626 H         1 UNK         0.0600 
    242 H242       -3.4974  -14.7616  -59.0678 H         1 UNK         0.3800 
    243 H243       -2.5774  -14.3630  -57.6455 H         1 UNK         0.3800 
    244 H244       -4.3342  -17.3627  -55.4308 H         1 UNK         0.0800 
    245 H245       -4.0834  -15.6339  -55.3899 H         1 UNK         0.0800 
    246 H246       -4.9149  -17.6542  -52.9126 H         1 UNK         0.0800 
    247 H247       -4.9770  -15.9108  -52.9126 H         1 UNK         0.0800 
@<TRIPOS>BOND
     1    1    2 1    
     2    1  127 1    
     3    1  128 1    
     4    1  129 1    
     5    2    3 2    
     6    2    4 am   BACKBONE|DICT|INTERRES
     7    4    5 1    
     8    4  130 1    
     9    5    6 1    
    10    5   65 1    
    11    5  131 1    
    12    6    7 1    
    13    6  132 1    
    14    6  133 1    
    15    7    8 1    
    16    8    9 1    
    17    8  134 1    
    18    8  135 1    
    19    9   10 ar   
    20    9   14 ar   
    21   10   11 ar   
    22   10  136 1    
    23   11   12 ar   
    24   11  126 1    
    25   12   13 ar   
    26   12  137 1    
    27   13   14 ar   
    28   13   15 1    
    29   14  138 1    
    30   15   16 1    
    31   15  139 1    
    32   15  140 1    
    33   16   17 1    
    34   17   18 1    
    35   17  141 1    
    36   17  142 1    
    37   18   19 1    
    38   18   67 1    
    39   18  143 1    
    40   19   20 am   BACKBONE|DICT|INTERRES
    41   19  144 1    
    42   20   21 2    
    43   20   22 1    
    44   22   23 1    
    45   22   24 1    
    46   22  145 1    
    47   23  146 1    
    48   23  147 1    
    49   23  148 1    
    50   24   25 am   BACKBONE|DICT|INTERRES
    51   24  149 1    
    52   25   26 2    
    53   25   27 1    
    54   27   28 1    
    55   27   29 1    
    56   27  150 1    
    57   28  151 1    
    58   28  152 1    
    59   28  153 1    
    60   29   30 am   BACKBONE|DICT|INTERRES
    61   29  154 1    
    62   30   31 2    
    63   30   32 1    
    64   32   33 1    
    65   32   34 1    
    66   32  155 1    
    67   33  156 1    
    68   33  157 1    
    69   33  158 1    
    70   34   35 am   BACKBONE|DICT|INTERRES
    71   34  159 1    
    72   35   36 2    
    73   35   37 1    
    74   37   38 1    
    75   37   39 1    
    76   37  160 1    
    77   38  161 1    
    78   38  162 1    
    79   38  163 1    
    80   39   40 am   BACKBONE|DICT|INTERRES
    81   39  164 1    
    82   40   41 2    
    83   40   42 1    
    84   42   43 1    
    85   42   44 1    
    86   42  165 1    
    87   43  166 1    
    88   43  167 1    
    89   43  168 1    
    90   44   45 am   BACKBONE|DICT|INTERRES
    91   44  169 1    
    92   45   46 2    
    93   45   47 1    
    94   47   48 1    
    95   47   49 1    
    96   47  170 1    
    97   48  171 1    
    98   48  172 1    
    99   48  173 1    
   100   49   50 am   BACKBONE|DICT|INTERRES
   101   49  174 1    
   102   50   51 2    
   103   50   52 1    
   104   52   53 1    
   105   52   54 1    
   106   52  175 1    
   107   53  176 1    
   108   53  177 1    
   109   53  178 1    
   110   54   55 am   BACKBONE|DICT|INTERRES
   111   54  179 1    
   112   55   56 2    
   113   55   57 1    
   114   57   58 1    
   115   57   59 1    
   116   57  180 1    
   117   58  181 1    
   118   58  182 1    
   119   58  183 1    
   120   59   60 am   BACKBONE|DICT|INTERRES
   121   59  184 1    
   122   60   61 2    
   123   60   62 1    
   124   62   63 1    
   125   62   64 1    
   126   62  185 1    
   127   63  186 1    
   128   63  187 1    
   129   63  188 1    
   130   64   65 am   BACKBONE|DICT|INTERRES
   131   64  189 1    
   132   65   66 2    
   133   67   68 2    
   134   67   69 am   BACKBONE|DICT|INTERRES
   135   69   70 1    
   136   69  190 1    
   137   70   71 1    
   138   70   72 1    
   139   70  191 1    
   140   71  192 1    
   141   71  193 1    
   142   71  194 1    
   143   72   73 2    
   144   72   74 am   BACKBONE|DICT|INTERRES
   145   74   75 1    
   146   74  195 1    
   147   75   76 1    
   148   75   77 1    
   149   75  196 1    
   150   76  197 1    
   151   76  198 1    
   152   76  199 1    
   153   77   78 2    
   154   77   79 am   BACKBONE|DICT|INTERRES
   155   79   80 1    
   156   79  200 1    
   157   80   81 1    
   158   80   82 1    
   159   80  201 1    
   160   81  202 1    
   161   81  203 1    
   162   81  204 1    
   163   82   83 2    
   164   82   84 am   BACKBONE|DICT|INTERRES
   165   84   85 1    
   166   84  205 1    
   167   85   86 1    
   168   85   87 1    
   169   85  206 1    
   170   86  207 1    
   171   86  208 1    
   172   86  209 1    
   173   87   88 2    
   174   87   89 am   BACKBONE|DICT|INTERRES
   175   89   90 1    
   176   89  210 1    
   177   90   91 1    
   178   90   92 1    
   179   90  211 1    
   180   91  212 1    
   181   91  213 1    
   182   91  214 1    
   183   92   93 2    
   184   92   94 am   BACKBONE|DICT|INTERRES
   185   94   95 1    
   186   94  215 1    
   187   95   96 1    
   188   95   97 1    
   189   95  216 1    
   190   96  217 1    
   191   96  218 1    
   192   96  219 1    
   193   97   98 2    
   194   97   99 am   BACKBONE|DICT|INTERRES
   195   99  100 1    
   196   99  220 1    
   197  100  101 1    
   198  100  102 1    
   199  100  221 1    
   200  101  222 1    
   201  101  223 1    
   202  101  224 1    
   203  102  103 2    
   204  102  104 am   BACKBONE|DICT|INTERRES
   205  104  105 1    
   206  104  225 1    
   207  105  106 1    
   208  105  107 1    
   209  105  226 1    
   210  106  227 1    
   211  106  228 1    
   212  106  229 1    
   213  107  108 2    
   214  107  109 am   BACKBONE|DICT|INTERRES
   215  109  110 1    
   216  109  230 1    
   217  110  111 1    
   218  110  112 1    
   219  110  231 1    
   220  111  232 1    
   221  111  233 1    
   222  111  234 1    
   223  112  113 2    
   224  112  114 am   BACKBONE|DICT|INTERRES
   225  114  115 1    
   226  114  235 1    
   227  115  116 1    
   228  115  117 1    
   229  115  236 1    
   230  116  237 1    
   231  116  238 1    
   232  116  239 1    
   233  117  118 2    
   234  117  119 am   BACKBONE|DICT|INTERRES
   235  119  120 1    
   236  119  240 1    
   237  120  121 1    
   238  120  124 1    
   239  120  241 1    
   240  121  122 am   BACKBONE|DICT|INTERRES
   241  121  123 2    
   242  122  242 1    
   243  122  243 1    
   244  124  125 1    
   245  124  244 1    
   246  124  245 1    
   247  125  126 1    
   248  126  246 1    
   249  126  247 1    
@<TRIPOS>SUBSTRUCTURE
     1 UNK         1 GROUP             0       ****    0 ROOT    
