@<TRIPOS>MOLECULE
3R540
247   249    1
SMALL
USER_CHARGES


@<TRIPOS>ATOM
      1 CA          6.0553   -9.8087  -50.9631 C.3       0 UNK        -0.1800 
      2 C           6.1263  -10.8724  -49.8760 C.2       0 UNK         0.5000 
      3 O           7.2065  -11.1346  -49.3457 O.2       0 UNK        -0.5000 
      4 N           4.9838  -11.4896  -49.5502 N.am      1 UNK        -0.5000 
      5 CA          4.8447  -12.4846  -48.4822 C.3       1 UNK         0.1400 
      6 C6          3.5655  -13.3346  -48.6817 C.3       23 UNK        -0.0398 
      7 S7          3.6708  -14.9370  -47.8179 S.3       23 UNK        -0.2404 
      8 C8          1.9303  -15.4504  -47.7976 C.3       23 UNK        -0.0205 
      9 C9          1.5702  -16.3534  -48.9645 C.ar      23 UNK        -0.0193 
     10 C10         0.6711  -15.9173  -49.9393 C.ar      23 UNK        -0.1150 
     11 C11         0.2852  -16.7655  -50.9804 C.ar      23 UNK        -0.0193 
     12 C12         0.8160  -18.0577  -51.0502 C.ar      23 UNK        -0.1150 
     13 C13         1.7388  -18.4974  -50.0949 C.ar      23 UNK        -0.0193 
     14 C14         2.1052  -17.6415  -49.0513 C.ar      23 UNK        -0.1150 
     15 C15         2.3878  -19.8698  -50.2209 C.3       23 UNK        -0.0205 
     16 S16         2.1196  -20.9211  -48.7585 S.3       23 UNK        -0.2404 
     17 C17         0.4105  -21.4897  -49.0265 C.3       23 UNK        -0.0398 
     18 CA          0.0693  -22.7025  -48.1291 C.3       11 UNK         0.1400 
     19 N           0.0722  -22.3692  -46.7004 N.am      11 UNK        -0.5000 
     20 C          -0.0550  -23.2588  -45.7052 C.2       10 UNK         0.5000 
     21 O          -0.1334  -24.4742  -45.8774 O.2       10 UNK        -0.5000 
     22 CA         -0.1792  -22.6944  -44.2808 C.3       10 UNK         0.1400 
     23 CB          1.1983  -22.3569  -43.6899 C.3       10 UNK        -0.1800 
     24 N          -1.0461  -21.5171  -44.2451 N.am      10 UNK        -0.5000 
     25 C          -2.3753  -21.5594  -44.4165 C.2       9 UNK         0.5000 
     26 O          -3.0100  -22.6031  -44.5682 O.2       9 UNK        -0.5000 
     27 CA         -3.1133  -20.2085  -44.4653 C.3       9 UNK         0.1400 
     28 CB         -3.4459  -19.7215  -43.0474 C.3       9 UNK        -0.1800 
     29 N          -2.3495  -19.1747  -45.1632 N.am      9 UNK        -0.5000 
     30 C          -2.0595  -19.1957  -46.4723 C.2       8 UNK         0.5000 
     31 O          -2.4503  -20.0682  -47.2456 O.2       8 UNK        -0.5000 
     32 CA         -1.1252  -18.0877  -46.9897 C.3       8 UNK         0.1400 
     33 CB         -1.9407  -16.8685  -47.4417 C.3       8 UNK        -0.1800 
     34 N          -0.1173  -17.6819  -46.0033 N.am      8 UNK        -0.5000 
     35 C           0.8279  -18.5033  -45.5152 C.2       7 UNK         0.5000 
     36 O           0.8976  -19.6931  -45.8190 O.2       7 UNK        -0.5000 
     37 CA          1.8546  -17.9405  -44.5106 C.3       7 UNK         0.1400 
     38 CB          3.2773  -17.9702  -45.0920 C.3       7 UNK        -0.1800 
     39 N           1.5506  -16.5889  -44.0373 N.am      7 UNK        -0.5000 
     40 C           0.6002  -16.3042  -43.1379 C.2       6 UNK         0.5000 
     41 O          -0.1270  -17.1546  -42.6228 O.2       6 UNK        -0.5000 
     42 CA          0.4118  -14.8204  -42.7716 C.3       6 UNK         0.1400 
     43 CB          1.2939  -14.4415  -41.5732 C.3       6 UNK        -0.1800 
     44 N           0.6620  -13.8812  -43.8693 N.am      6 UNK        -0.5000 
     45 C          -0.0269  -13.8369  -45.0178 C.2       5 UNK         0.5000 
     46 O          -0.8409  -14.6974  -45.3535 O.2       5 UNK        -0.5000 
     47 CA          0.2345  -12.6109  -45.9192 C.3       5 UNK         0.1400 
     48 CB         -0.7320  -12.5188  -47.1204 C.3       5 UNK        -0.1800 
     49 N           0.2390  -11.3564  -45.1588 N.am      5 UNK        -0.5000 
     50 C          -0.7560  -10.8423  -44.4186 C.2       4 UNK         0.5000 
     51 O          -1.8779  -11.3444  -44.3340 O.2       4 UNK        -0.5000 
     52 CA         -0.4179   -9.5708  -43.6090 C.3       4 UNK         0.1400 
     53 CB         -1.5195   -9.1957  -42.6006 C.3       4 UNK        -0.1800 
     54 N           0.8440   -9.7304  -42.8838 N.am      4 UNK        -0.5000 
     55 C           2.0609   -9.4881  -43.3847 C.2       3 UNK         0.5000 
     56 O           2.2429   -9.0181  -44.5093 O.2       3 UNK        -0.5000 
     57 CA          3.2794   -9.8622  -42.5118 C.3       3 UNK         0.1400 
     58 CB          2.9272  -10.6796  -41.2491 C.3       3 UNK        -0.1800 
     59 N           4.3176  -10.5563  -43.2813 N.am      3 UNK        -0.5000 
     60 C           4.1796  -11.6714  -44.0140 C.2       2 UNK         0.5000 
     61 O           3.1260  -12.3042  -44.1355 O.2       2 UNK        -0.5000 
     62 CA          5.4660  -12.1919  -44.6815 C.3       2 UNK         0.1400 
     63 CB          6.0312  -13.3766  -43.8827 C.3       2 UNK        -0.1800 
     64 N           5.2733  -12.6111  -46.0695 N.am      2 UNK        -0.5000 
     65 C           4.9037  -11.8193  -47.0845 C.2       1 UNK         0.5000 
     66 O           4.6327  -10.6224  -46.9553 O.2       1 UNK        -0.5000 
     67 C          -1.2606  -23.3518  -48.5607 C.2       11 UNK         0.5000 
     68 O          -1.2359  -24.3664  -49.2565 O.2       11 UNK        -0.5000 
     69 N          -2.3894  -22.7916  -48.1020 N.am      12 UNK        -0.5000 
     70 CA         -3.7327  -23.3338  -48.3032 C.3       12 UNK         0.1400 
     71 CB         -4.7759  -22.3623  -47.7315 C.3       12 UNK        -0.1800 
     72 C          -3.8987  -24.7331  -47.6896 C.2       12 UNK         0.5000 
     73 O          -4.3834  -25.6356  -48.3717 O.2       12 UNK        -0.5000 
     74 N          -3.4618  -24.8982  -46.4324 N.am      13 UNK        -0.5000 
     75 CA         -3.4845  -26.1667  -45.7023 C.3       13 UNK         0.1400 
     76 CB         -3.0648  -25.9346  -44.2435 C.3       13 UNK        -0.1800 
     77 C          -2.6136  -27.2531  -46.3585 C.2       13 UNK         0.5000 
     78 O          -3.0827  -28.3784  -46.5319 O.2       13 UNK        -0.5000 
     79 N          -1.3866  -26.8894  -46.7593 N.am      14 UNK        -0.5000 
     80 CA         -0.4432  -27.7592  -47.4695 C.3       14 UNK         0.1400 
     81 CB          0.9056  -27.0387  -47.6139 C.3       14 UNK        -0.1800 
     82 C          -0.9585  -28.2183  -48.8469 C.2       14 UNK         0.5000 
     83 O          -0.6738  -29.3419  -49.2620 O.2       14 UNK        -0.5000 
     84 N          -1.7414  -27.3564  -49.5066 N.am      15 UNK        -0.5000 
     85 CA         -2.4283  -27.6222  -50.7693 C.3       15 UNK         0.1400 
     86 CB         -2.5882  -26.2910  -51.5175 C.3       15 UNK        -0.1800 
     87 C          -3.7831  -28.3474  -50.5954 C.2       15 UNK         0.5000 
     88 O          -4.5130  -28.4852  -51.5771 O.2       15 UNK        -0.5000 
     89 N          -4.0941  -28.8062  -49.3727 N.am      16 UNK        -0.5000 
     90 CA         -5.2928  -29.5509  -48.9738 C.3       16 UNK         0.1400 
     91 CB         -5.3925  -30.8994  -49.7191 C.3       16 UNK        -0.1800 
     92 C          -6.5775  -28.7027  -49.0572 C.2       16 UNK         0.5000 
     93 O          -7.5788  -29.1386  -49.6284 O.2       16 UNK        -0.5000 
     94 N          -6.5126  -27.5059  -48.4585 N.am      17 UNK        -0.5000 
     95 CA         -7.5698  -26.4963  -48.3435 C.3       17 UNK         0.1400 
     96 CB         -8.7987  -27.0429  -47.5859 C.3       17 UNK        -0.1800 
     97 C          -7.9165  -25.8389  -49.6935 C.2       17 UNK         0.5000 
     98 O          -9.0860  -25.5625  -49.9696 O.2       17 UNK        -0.5000 
     99 N          -6.8829  -25.5838  -50.5052 N.am      18 UNK        -0.5000 
    100 CA        -6.9773  -24.8104  -51.7434 C.3       18 UNK         0.1400 
    101 CB        -5.8276  -25.2184  -52.6772 C.3       18 UNK        -0.1800 
    102 C         -6.9288  -23.2970  -51.4560 C.2       18 UNK         0.5000 
    103 O         -6.6818  -22.8819  -50.3227 O.2       18 UNK        -0.5000 
    104 N         -7.1266  -22.4910  -52.5059 N.am      19 UNK        -0.5000 
    105 CA        -7.0968  -21.0259  -52.4498 C.3       19 UNK         0.1400 
    106 CB        -7.8133  -20.4751  -53.6938 C.3       19 UNK        -0.1800 
    107 C         -5.6808  -20.4206  -52.3366 C.2       19 UNK         0.5000 
    108 O         -5.5653  -19.2015  -52.2079 O.2       19 UNK        -0.5000 
    109 N         -4.6288  -21.2475  -52.4524 N.am      20 UNK        -0.5000 
    110 CA        -3.1997  -20.8913  -52.3822 C.3       20 UNK         0.1400 
    111 CB        -2.8393  -20.3753  -50.9725 C.3       20 UNK        -0.1800 
    112 C         -2.7275  -19.9087  -53.4797 C.2       20 UNK         0.5000 
    113 O         -1.6272  -19.3682  -53.3765 O.2       20 UNK        -0.5000 
    114 N         -3.5689  -19.6975  -54.5029 N.am      21 UNK        -0.5000 
    115 CA        -3.4546  -18.7027  -55.5727 C.3       21 UNK         0.1400 
    116 CB        -2.2072  -18.9584  -56.4454 C.3       21 UNK        -0.1800 
    117 C         -3.5550  -17.2413  -55.0764 C.2       21 UNK         0.5000 
    118 O         -3.0707  -16.3396  -55.7634 O.2       21 UNK        -0.5000 
    119 N         -4.1984  -17.0139  -53.9214 N.am      22 UNK        -0.5000 
    120 CA        -4.4048  -15.6719  -53.3477 C.3       22 UNK         0.1400 
    121 C         -5.6443  -15.5153  -52.4213 C.2       22 UNK         0.5000 
    122 N         -6.3307  -16.5710  -52.0062 N.am      22 UNK        -0.7600 
    123 O         -6.0203  -14.3924  -52.0947 O.2       22 UNK        -0.5000 
    124 C124       -3.1185  -15.0675  -52.7222 C.3       23 UNK        -0.0398 
    125 S125       -2.3689  -16.0860  -51.4012 S.3       23 UNK        -0.2404 
    126 C126       -0.6750  -16.2584  -52.0440 C.3       23 UNK        -0.0205 
    127 H127        6.3896   -8.8485  -50.5703 H         1 UNK         0.0600 
    128 H128        5.0414   -9.6852  -51.3446 H         1 UNK         0.0600 
    129 H129        6.7016  -10.0809  -51.7975 H         1 UNK         0.0600 
    130 H130        4.1258  -11.2025  -49.9985 H         1 UNK         0.3000 
    131 H131        5.7064  -13.1517  -48.5633 H         1 UNK         0.0600 
    132 H132        2.6787  -12.7839  -48.3641 H         1 UNK         0.0800 
    133 H133        3.4215  -13.5581  -49.7400 H         1 UNK         0.0800 
    134 H134        1.2852  -14.5759  -47.7839 H         1 UNK         0.0800 
    135 H135        1.7362  -15.9748  -46.8669 H         1 UNK         0.0800 
    136 H136        0.2549  -14.9213  -49.8835 H         1 UNK         0.1150 
    137 H137        0.5288  -18.7099  -51.8632 H         1 UNK         0.1150 
    138 H138        2.8113  -17.9791  -48.3059 H         1 UNK         0.1150 
    139 H139        2.0404  -20.3899  -51.1148 H         1 UNK         0.0800 
    140 H140        3.4616  -19.7291  -50.3510 H         1 UNK         0.0800 
    141 H141        0.3028  -21.7537  -50.0802 H         1 UNK         0.0800 
    142 H142       -0.2728  -20.6604  -48.8420 H         1 UNK         0.0800 
    143 H143        0.8446  -23.4570  -48.2802 H         1 UNK         0.0600 
    144 H144        0.1990  -21.3891  -46.4629 H         1 UNK         0.3000 
    145 H145       -0.6301  -23.4666  -43.6538 H         1 UNK         0.0600 
    146 H146        1.1086  -21.9728  -42.6738 H         1 UNK         0.0600 
    147 H147        1.8272  -23.2469  -43.6464 H         1 UNK         0.0600 
    148 H148        1.7299  -21.6142  -44.2841 H         1 UNK         0.0600 
    149 H149       -0.5889  -20.6183  -44.1989 H         1 UNK         0.3000 
    150 H150       -4.0509  -20.3594  -45.0041 H         1 UNK         0.0600 
    151 H151       -4.0248  -20.4692  -42.5035 H         1 UNK         0.0600 
    152 H152       -4.0400  -18.8078  -43.0740 H         1 UNK         0.0600 
    153 H153       -2.5439  -19.5181  -42.4685 H         1 UNK         0.0600 
    154 H154       -1.9710  -18.4261  -44.6003 H         1 UNK         0.3000 
    155 H155       -0.5946  -18.4781  -47.8602 H         1 UNK         0.0600 
    156 H156       -2.5263  -16.4487  -46.6232 H         1 UNK         0.0600 
    157 H157       -1.2963  -16.0804  -47.8296 H         1 UNK         0.0600 
    158 H158       -2.6345  -17.1395  -48.2386 H         1 UNK         0.0600 
    159 H159       -0.1618  -16.7220  -45.6819 H         1 UNK         0.3000 
    160 H160        1.8431  -18.6124  -43.6496 H         1 UNK         0.0600 
    161 H161        3.3866  -17.3075  -45.9483 H         1 UNK         0.0600 
    162 H162        3.5428  -18.9749  -45.4240 H         1 UNK         0.0600 
    163 H163        4.0133  -17.6733  -44.3448 H         1 UNK         0.0600 
    164 H164        2.1038  -15.8312  -44.4101 H         1 UNK         0.3000 
    165 H165       -0.6314  -14.6985  -42.4728 H         1 UNK         0.0600 
    166 H166        1.0205  -13.4615  -41.1836 H         1 UNK         0.0600 
    167 H167        1.1769  -15.1546  -40.7560 H         1 UNK         0.0600 
    168 H168        2.3509  -14.4174  -41.8420 H         1 UNK         0.0600 
    169 H169        1.3848  -13.1826  -43.7225 H         1 UNK         0.3000 
    170 H170        1.2459  -12.7288  -46.3089 H         1 UNK         0.0600 
    171 H171       -0.6986  -13.4199  -47.7325 H         1 UNK         0.0600 
    172 H172       -1.7661  -12.3915  -46.7998 H         1 UNK         0.0600 
    173 H173       -0.4763  -11.6790  -47.7663 H         1 UNK         0.0600 
    174 H174        1.1280  -10.8713  -45.1306 H         1 UNK         0.3000 
    175 H175       -0.3294   -8.7488  -44.3225 H         1 UNK         0.0600 
    176 H176       -1.6823   -9.9875  -41.8683 H         1 UNK         0.0600 
    177 H177       -1.2635   -8.2852  -42.0586 H         1 UNK         0.0600 
    178 H178       -2.4687   -9.0132  -43.1061 H         1 UNK         0.0600 
    179 H179        0.7789  -10.1465  -41.9661 H         1 UNK         0.3000 
    180 H180        3.7162   -8.9178  -42.1844 H         1 UNK         0.0600 
    181 H181        2.4537  -11.6280  -41.5003 H         1 UNK         0.0600 
    182 H182        2.2553  -10.1294  -40.5894 H         1 UNK         0.0600 
    183 H183        3.8228  -10.9047  -40.6700 H         1 UNK         0.0600 
    184 H184        5.2221  -10.1067  -43.2735 H         1 UNK         0.3000 
    185 H185        6.2102  -11.3928  -44.6829 H         1 UNK         0.0600 
    186 H186        6.2121  -13.0975  -42.8438 H         1 UNK         0.0600 
    187 H187        5.3429  -14.2232  -43.8793 H         1 UNK         0.0600 
    188 H188        6.9807  -13.7166  -44.2966 H         1 UNK         0.0600 
    189 H189        5.4217  -13.5920  -46.2583 H         1 UNK         0.3000 
    190 H190       -2.3310  -21.9160  -47.5879 H         1 UNK         0.3000 
    191 H191       -3.9027  -23.4218  -49.3783 H         1 UNK         0.0600 
    192 H192       -4.6005  -22.1513  -46.6776 H         1 UNK         0.0600 
    193 H193       -5.7826  -22.7725  -47.8168 H         1 UNK         0.0600 
    194 H194       -4.7658  -21.4139  -48.2688 H         1 UNK         0.0600 
    195 H195       -3.1064  -24.0925  -45.9274 H         1 UNK         0.3000 
    196 H196       -4.5153  -26.5269  -45.7022 H         1 UNK         0.0600 
    197 H197       -3.0905  -26.8656  -43.6760 H         1 UNK         0.0600 
    198 H198       -3.7362  -25.2332  -43.7479 H         1 UNK         0.0600 
    199 H199       -2.0533  -25.5342  -44.1731 H         1 UNK         0.0600 
    200 H200       -1.0599  -25.9488  -46.5475 H         1 UNK         0.3000 
    201 H201       -0.2907  -28.6521  -46.8599 H         1 UNK         0.0600 
    202 H202        1.3241  -26.7871  -46.6393 H         1 UNK         0.0600 
    203 H203        0.8068  -26.1143  -48.1842 H         1 UNK         0.0600 
    204 H204        1.6335  -27.6675  -48.1279 H         1 UNK         0.0600 
    205 H205       -1.8856  -26.4350  -49.1088 H         1 UNK         0.3000 
    206 H206       -1.8011  -28.2728  -51.3819 H         1 UNK         0.0600 
    207 H207       -1.6202  -25.8225  -51.6959 H         1 UNK         0.0600 
    208 H208       -3.0583  -26.4362  -52.4905 H         1 UNK         0.0600 
    209 H209       -3.1953  -25.5885  -50.9465 H         1 UNK         0.0600 
    210 H210       -3.4469  -28.6104  -48.6181 H         1 UNK         0.3000 
    211 H211       -5.1587  -29.7827  -47.9163 H         1 UNK         0.0600 
    212 H212       -5.5886  -30.7667  -50.7832 H         1 UNK         0.0600 
    213 H213       -6.2023  -31.5072  -49.3139 H         1 UNK         0.0600 
    214 H214       -4.4728  -31.4753  -49.6160 H         1 UNK         0.0600 
    215 H215       -5.6037  -27.1940  -48.1321 H         1 UNK         0.3000 
    216 H216       -7.1487  -25.6981  -47.7304 H         1 UNK         0.0600 
    217 H217       -9.5054  -26.2426  -47.3635 H         1 UNK         0.0600 
    218 H218       -8.5091  -27.4915  -46.6357 H         1 UNK         0.0600 
    219 H219       -9.3341  -27.7958  -48.1646 H         1 UNK         0.0600 
    220 H220       -5.9536  -25.7983  -50.1694 H         1 UNK         0.3000 
    221 H221       -7.9235  -25.0398  -52.2380 H         1 UNK         0.0600 
    222 H222       -4.8725  -24.8324  -52.3248 H         1 UNK         0.0600 
    223 H223       -5.7477  -26.3023  -52.7626 H         1 UNK         0.0600 
    224 H224       -5.9817  -24.8290  -53.6839 H         1 UNK         0.0600 
    225 H225       -7.3195  -22.8999  -53.4092 H         1 UNK         0.3000 
    226 H226       -7.6527  -20.7018  -51.5675 H         1 UNK         0.0600 
    227 H227       -8.8399  -20.8378  -53.7500 H         1 UNK         0.0600 
    228 H228       -7.8596  -19.3853  -53.6726 H         1 UNK         0.0600 
    229 H229       -7.3040  -20.7640  -54.6139 H         1 UNK         0.0600 
    230 H230       -4.8272  -22.2268  -52.5940 H         1 UNK         0.3000 
    231 H231       -2.6468  -21.8171  -52.5466 H         1 UNK         0.0600 
    232 H232       -1.7614  -20.2581  -50.8594 H         1 UNK         0.0600 
    233 H233       -3.1729  -21.0667  -50.2008 H         1 UNK         0.0600 
    234 H234       -3.2906  -19.4040  -50.7672 H         1 UNK         0.0600 
    235 H235       -4.4393  -20.2082  -54.4828 H         1 UNK         0.3000 
    236 H236       -4.3278  -18.8544  -56.2086 H         1 UNK         0.0600 
    237 H237       -2.1580  -19.9979  -56.7696 H         1 UNK         0.0600 
    238 H238       -2.2259  -18.3410  -57.3442 H         1 UNK         0.0600 
    239 H239       -1.2841  -18.7275  -55.9134 H         1 UNK         0.0600 
    240 H240       -4.5636  -17.7940  -53.3890 H         1 UNK         0.3000 
    241 H241       -4.6623  -15.0271  -54.1905 H         1 UNK         0.0600 
    242 H242       -6.0245  -17.5276  -52.1746 H         1 UNK         0.3800 
    243 H243       -7.1365  -16.4176  -51.4221 H         1 UNK         0.3800 
    244 H244       -2.3853  -14.9064  -53.5129 H         1 UNK         0.0800 
    245 H245       -3.3163  -14.0741  -52.3162 H         1 UNK         0.0800 
    246 H246       -0.3181  -15.2904  -52.3987 H         1 UNK         0.0800 
    247 H247       -0.6848  -16.9204  -52.9109 H         1 UNK         0.0800 
@<TRIPOS>BOND
     1    1    2 1    
     2    1  127 1    
     3    1  128 1    
     4    1  129 1    
     5    2    3 2    
     6    2    4 am   BACKBONE|DICT|INTERRES
     7    4    5 1    
     8    4  130 1    
     9    5    6 1    
    10    5   65 1    
    11    5  131 1    
    12    6    7 1    
    13    6  132 1    
    14    6  133 1    
    15    7    8 1    
    16    8    9 1    
    17    8  134 1    
    18    8  135 1    
    19    9   10 ar   
    20    9   14 ar   
    21   10   11 ar   
    22   10  136 1    
    23   11   12 ar   
    24   11  126 1    
    25   12   13 ar   
    26   12  137 1    
    27   13   14 ar   
    28   13   15 1    
    29   14  138 1    
    30   15   16 1    
    31   15  139 1    
    32   15  140 1    
    33   16   17 1    
    34   17   18 1    
    35   17  141 1    
    36   17  142 1    
    37   18   19 1    
    38   18   67 1    
    39   18  143 1    
    40   19   20 am   BACKBONE|DICT|INTERRES
    41   19  144 1    
    42   20   21 2    
    43   20   22 1    
    44   22   23 1    
    45   22   24 1    
    46   22  145 1    
    47   23  146 1    
    48   23  147 1    
    49   23  148 1    
    50   24   25 am   BACKBONE|DICT|INTERRES
    51   24  149 1    
    52   25   26 2    
    53   25   27 1    
    54   27   28 1    
    55   27   29 1    
    56   27  150 1    
    57   28  151 1    
    58   28  152 1    
    59   28  153 1    
    60   29   30 am   BACKBONE|DICT|INTERRES
    61   29  154 1    
    62   30   31 2    
    63   30   32 1    
    64   32   33 1    
    65   32   34 1    
    66   32  155 1    
    67   33  156 1    
    68   33  157 1    
    69   33  158 1    
    70   34   35 am   BACKBONE|DICT|INTERRES
    71   34  159 1    
    72   35   36 2    
    73   35   37 1    
    74   37   38 1    
    75   37   39 1    
    76   37  160 1    
    77   38  161 1    
    78   38  162 1    
    79   38  163 1    
    80   39   40 am   BACKBONE|DICT|INTERRES
    81   39  164 1    
    82   40   41 2    
    83   40   42 1    
    84   42   43 1    
    85   42   44 1    
    86   42  165 1    
    87   43  166 1    
    88   43  167 1    
    89   43  168 1    
    90   44   45 am   BACKBONE|DICT|INTERRES
    91   44  169 1    
    92   45   46 2    
    93   45   47 1    
    94   47   48 1    
    95   47   49 1    
    96   47  170 1    
    97   48  171 1    
    98   48  172 1    
    99   48  173 1    
   100   49   50 am   BACKBONE|DICT|INTERRES
   101   49  174 1    
   102   50   51 2    
   103   50   52 1    
   104   52   53 1    
   105   52   54 1    
   106   52  175 1    
   107   53  176 1    
   108   53  177 1    
   109   53  178 1    
   110   54   55 am   BACKBONE|DICT|INTERRES
   111   54  179 1    
   112   55   56 2    
   113   55   57 1    
   114   57   58 1    
   115   57   59 1    
   116   57  180 1    
   117   58  181 1    
   118   58  182 1    
   119   58  183 1    
   120   59   60 am   BACKBONE|DICT|INTERRES
   121   59  184 1    
   122   60   61 2    
   123   60   62 1    
   124   62   63 1    
   125   62   64 1    
   126   62  185 1    
   127   63  186 1    
   128   63  187 1    
   129   63  188 1    
   130   64   65 am   BACKBONE|DICT|INTERRES
   131   64  189 1    
   132   65   66 2    
   133   67   68 2    
   134   67   69 am   BACKBONE|DICT|INTERRES
   135   69   70 1    
   136   69  190 1    
   137   70   71 1    
   138   70   72 1    
   139   70  191 1    
   140   71  192 1    
   141   71  193 1    
   142   71  194 1    
   143   72   73 2    
   144   72   74 am   BACKBONE|DICT|INTERRES
   145   74   75 1    
   146   74  195 1    
   147   75   76 1    
   148   75   77 1    
   149   75  196 1    
   150   76  197 1    
   151   76  198 1    
   152   76  199 1    
   153   77   78 2    
   154   77   79 am   BACKBONE|DICT|INTERRES
   155   79   80 1    
   156   79  200 1    
   157   80   81 1    
   158   80   82 1    
   159   80  201 1    
   160   81  202 1    
   161   81  203 1    
   162   81  204 1    
   163   82   83 2    
   164   82   84 am   BACKBONE|DICT|INTERRES
   165   84   85 1    
   166   84  205 1    
   167   85   86 1    
   168   85   87 1    
   169   85  206 1    
   170   86  207 1    
   171   86  208 1    
   172   86  209 1    
   173   87   88 2    
   174   87   89 am   BACKBONE|DICT|INTERRES
   175   89   90 1    
   176   89  210 1    
   177   90   91 1    
   178   90   92 1    
   179   90  211 1    
   180   91  212 1    
   181   91  213 1    
   182   91  214 1    
   183   92   93 2    
   184   92   94 am   BACKBONE|DICT|INTERRES
   185   94   95 1    
   186   94  215 1    
   187   95   96 1    
   188   95   97 1    
   189   95  216 1    
   190   96  217 1    
   191   96  218 1    
   192   96  219 1    
   193   97   98 2    
   194   97   99 am   BACKBONE|DICT|INTERRES
   195   99  100 1    
   196   99  220 1    
   197  100  101 1    
   198  100  102 1    
   199  100  221 1    
   200  101  222 1    
   201  101  223 1    
   202  101  224 1    
   203  102  103 2    
   204  102  104 am   BACKBONE|DICT|INTERRES
   205  104  105 1    
   206  104  225 1    
   207  105  106 1    
   208  105  107 1    
   209  105  226 1    
   210  106  227 1    
   211  106  228 1    
   212  106  229 1    
   213  107  108 2    
   214  107  109 am   BACKBONE|DICT|INTERRES
   215  109  110 1    
   216  109  230 1    
   217  110  111 1    
   218  110  112 1    
   219  110  231 1    
   220  111  232 1    
   221  111  233 1    
   222  111  234 1    
   223  112  113 2    
   224  112  114 am   BACKBONE|DICT|INTERRES
   225  114  115 1    
   226  114  235 1    
   227  115  116 1    
   228  115  117 1    
   229  115  236 1    
   230  116  237 1    
   231  116  238 1    
   232  116  239 1    
   233  117  118 2    
   234  117  119 am   BACKBONE|DICT|INTERRES
   235  119  120 1    
   236  119  240 1    
   237  120  121 1    
   238  120  124 1    
   239  120  241 1    
   240  121  122 am   BACKBONE|DICT|INTERRES
   241  121  123 2    
   242  122  242 1    
   243  122  243 1    
   244  124  125 1    
   245  124  244 1    
   246  124  245 1    
   247  125  126 1    
   248  126  246 1    
   249  126  247 1    
@<TRIPOS>SUBSTRUCTURE
     1 UNK         1 GROUP             0       ****    0 ROOT    
