@<TRIPOS>MOLECULE
3R540
247   249    1
SMALL
USER_CHARGES


@<TRIPOS>ATOM
      1 CA         -2.0515  -12.7217  -42.2595 C.3       0 UNK        -0.1800 
      2 C          -2.4625  -12.4235  -43.6926 C.2       0 UNK         0.5000 
      3 O          -3.2480  -11.5049  -43.9298 O.2       0 UNK        -0.5000 
      4 N          -1.9389  -13.2045  -44.6439 N.am      1 UNK        -0.5000 
      5 CA         -2.1550  -13.0265  -46.0820 C.3       1 UNK         0.1400 
      6 C6         -2.1588  -14.3882  -46.8252 C.3       23 UNK        -0.0398 
      7 S7         -0.5454  -15.2517  -46.8786 S.3       23 UNK        -0.2404 
      8 C8         -0.3984  -15.6715  -48.6450 C.3       23 UNK        -0.0205 
      9 C9         -1.5611  -16.5250  -49.1358 C.ar      23 UNK        -0.0193 
     10 C10        -2.4535  -16.0205  -50.0876 C.ar      23 UNK        -0.1150 
     11 C11        -3.5259  -16.7971  -50.5351 C.ar      23 UNK        -0.0193 
     12 C12        -3.6953  -18.0907  -50.0350 C.ar      23 UNK        -0.1150 
     13 C13        -2.8087  -18.6101  -49.0879 C.ar      23 UNK        -0.0193 
     14 C14        -1.7457  -17.8191  -48.6386 C.ar      23 UNK        -0.1150 
     15 C15        -3.0109  -20.0210  -48.5544 C.3       23 UNK        -0.0205 
     16 S16        -1.6602  -21.1307  -49.0637 S.3       23 UNK        -0.2404 
     17 C17        -0.5790  -21.0822  -47.5943 C.3       23 UNK        -0.0398 
     18 CA         -0.3840  -22.4456  -46.8871 C.3       11 UNK         0.1400 
     19 N           0.4562  -22.2977  -45.6995 N.am      11 UNK        -0.5000 
     20 C           0.9403  -23.3019  -44.9575 C.2       10 UNK         0.5000 
     21 O           0.7581  -24.4929  -45.2097 O.2       10 UNK        -0.5000 
     22 CA          1.7195  -22.9018  -43.6925 C.3       10 UNK         0.1400 
     23 CB          3.1454  -22.4563  -44.0489 C.3       10 UNK        -0.1800 
     24 N           1.0493  -21.8460  -42.9305 N.am      10 UNK        -0.5000 
     25 C          -0.1556  -21.9771  -42.3564 C.2       9 UNK         0.5000 
     26 O          -0.8196  -23.0129  -42.3889 O.2       9 UNK        -0.5000 
     27 CA         -0.7390  -20.7326  -41.6654 C.3       9 UNK         0.1400 
     28 CB         -0.0703  -20.4964  -40.3029 C.3       9 UNK        -0.1800 
     29 N          -0.6312  -19.5247  -42.4824 N.am      9 UNK        -0.5000 
     30 C          -1.2099  -19.3563  -43.6803 C.2       8 UNK         0.5000 
     31 O          -1.9103  -20.2025  -44.2339 O.2       8 UNK        -0.5000 
     32 CA         -0.9141  -18.0333  -44.4045 C.3       8 UNK         0.1400 
     33 CB         -1.7073  -16.8835  -43.7627 C.3       8 UNK        -0.1800 
     34 N           0.5151  -17.7164  -44.4166 N.am      8 UNK        -0.5000 
     35 C           1.4660  -18.4953  -44.9558 C.2       7 UNK         0.5000 
     36 O           1.2404  -19.5496  -45.5473 O.2       7 UNK        -0.5000 
     37 CA          2.9238  -18.0595  -44.7430 C.3       7 UNK         0.1400 
     38 CB          3.3195  -16.9549  -45.7331 C.3       7 UNK        -0.1800 
     39 N           3.1607  -17.6135  -43.3709 N.am      7 UNK        -0.5000 
     40 C           3.1078  -18.4120  -42.2942 C.2       6 UNK         0.5000 
     41 O           2.9033  -19.6246  -42.3464 O.2       6 UNK        -0.5000 
     42 CA          3.2615  -17.7250  -40.9255 C.3       6 UNK         0.1400 
     43 CB          4.7449  -17.5267  -40.5807 C.3       6 UNK        -0.1800 
     44 N           2.5738  -16.4337  -40.8775 N.am      6 UNK        -0.5000 
     45 C           1.2431  -16.2841  -40.9457 C.2       5 UNK         0.5000 
     46 O           0.4522  -17.2259  -40.9891 O.2       5 UNK        -0.5000 
     47 CA          0.7151  -14.8409  -41.0391 C.3       5 UNK         0.1400 
     48 CB          0.5096  -14.2402  -39.6413 C.3       5 UNK        -0.1800 
     49 N           1.5986  -13.9723  -41.8239 N.am      5 UNK        -0.5000 
     50 C           1.7758  -14.0892  -43.1458 C.2       4 UNK         0.5000 
     51 O           1.1391  -14.8781  -43.8485 O.2       4 UNK        -0.5000 
     52 CA          2.8913  -13.2372  -43.7680 C.3       4 UNK         0.1400 
     53 CB          4.2694  -13.8136  -43.3759 C.3       4 UNK        -0.1800 
     54 N           2.7286  -13.2295  -45.2203 N.am      4 UNK        -0.5000 
     55 C           3.4342  -12.4990  -46.0934 C.2       3 UNK         0.5000 
     56 O           4.3161  -11.7016  -45.7725 O.2       3 UNK        -0.5000 
     57 CA          3.0547  -12.6447  -47.5719 C.3       3 UNK         0.1400 
     58 CB          3.1054  -14.1065  -48.0574 C.3       3 UNK        -0.1800 
     59 N           1.7268  -12.0770  -47.7492 N.am      3 UNK        -0.5000 
     60 C           1.1786  -11.6521  -48.8898 C.2       2 UNK         0.5000 
     61 O           1.7367  -11.7420  -49.9848 O.2       2 UNK        -0.5000 
     62 CA         -0.2326  -11.0222  -48.7773 C.3       2 UNK         0.1400 
     63 CB         -0.8646  -10.7389  -50.1523 C.3       2 UNK        -0.1800 
     64 N          -1.1696  -11.8370  -47.9950 N.am      2 UNK        -0.5000 
     65 C          -1.1439  -12.0139  -46.6666 C.2       1 UNK         0.5000 
     66 O          -0.3310  -11.4450  -45.9307 O.2       1 UNK        -0.5000 
     67 C          -1.7156  -23.1538  -46.5581 C.2       11 UNK         0.5000 
     68 O          -2.0995  -24.0710  -47.2850 O.2       11 UNK        -0.5000 
     69 N          -2.3745  -22.7452  -45.4643 N.am      12 UNK        -0.5000 
     70 CA         -3.6161  -23.3425  -44.9732 C.3       12 UNK         0.1400 
     71 CB         -4.2006  -22.4737  -43.8497 C.3       12 UNK        -0.1800 
     72 C          -3.4360  -24.7958  -44.5009 C.2       12 UNK         0.5000 
     73 O          -4.2858  -25.6339  -44.8023 O.2       12 UNK        -0.5000 
     74 N          -2.3274  -25.0758  -43.8002 N.am      13 UNK        -0.5000 
     75 CA         -1.9545  -26.4134  -43.3348 C.3       13 UNK         0.1400 
     76 CB         -0.7628  -26.3114  -42.3707 C.3       13 UNK        -0.1800 
     77 C          -1.6397  -27.3797  -44.4914 C.2       13 UNK         0.5000 
     78 O          -2.0582  -28.5373  -44.4478 O.2       13 UNK        -0.5000 
     79 N          -0.9314  -26.8813  -45.5136 N.am      14 UNK        -0.5000 
     80 CA         -0.6227  -27.6137  -46.7429 C.3       14 UNK         0.1400 
     81 CB          0.5242  -26.8941  -47.4700 C.3       14 UNK        -0.1800 
     82 C          -1.8335  -27.7601  -47.6860 C.2       14 UNK         0.5000 
     83 O          -1.8371  -28.6658  -48.5204 O.2       14 UNK        -0.5000 
     84 N          -2.8096  -26.8484  -47.5571 N.am      15 UNK        -0.5000 
     85 CA         -3.9507  -26.6160  -48.4496 C.3       15 UNK         0.1400 
     86 CB         -4.9282  -27.8089  -48.4274 C.3       15 UNK        -0.1800 
     87 C          -3.4862  -26.2236  -49.8694 C.2       15 UNK         0.5000 
     88 O          -4.0331  -26.7050  -50.8634 O.2       15 UNK        -0.5000 
     89 N          -2.4426  -25.3847  -49.9273 N.am      16 UNK        -0.5000 
     90 CA         -1.7195  -25.0428  -51.1517 C.3       16 UNK         0.1400 
     91 CB         -0.3273  -24.5102  -50.7769 C.3       16 UNK        -0.1800 
     92 C          -2.4628  -24.0362  -52.0466 C.2       16 UNK         0.5000 
     93 O          -2.3490  -24.1231  -53.2694 O.2       16 UNK        -0.5000 
     94 N          -3.1872  -23.0953  -51.4205 N.am      17 UNK        -0.5000 
     95 CA         -3.9099  -21.9747  -52.0430 C.3       17 UNK         0.1400 
     96 CB         -5.1112  -22.4942  -52.8581 C.3       17 UNK        -0.1800 
     97 C          -2.9956  -21.0146  -52.8444 C.2       17 UNK         0.5000 
     98 O          -3.4390  -20.4184  -53.8273 O.2       17 UNK        -0.5000 
     99 N          -1.7372  -20.8980  -52.3892 N.am      18 UNK        -0.5000 
    100 CA        -0.6411  -20.0652  -52.8902 C.3       18 UNK         0.1400 
    101 CB        -0.7896  -18.6243  -52.3654 C.3       18 UNK        -0.1800 
    102 C         -0.4437  -20.1636  -54.4169 C.2       18 UNK         0.5000 
    103 O          0.0479  -21.1888  -54.8923 O.2       18 UNK        -0.5000 
    104 N         -0.8154  -19.1075  -55.1472 N.am      19 UNK        -0.5000 
    105 CA        -0.7916  -19.0259  -56.6017 C.3       19 UNK         0.1400 
    106 CB         0.2692  -18.0009  -57.0323 C.3       19 UNK        -0.1800 
    107 C         -2.1847  -18.6027  -57.0842 C.2       19 UNK         0.5000 
    108 O         -2.8664  -17.8422  -56.3935 O.2       19 UNK        -0.5000 
    109 N         -2.5788  -19.1087  -58.2612 N.am      20 UNK        -0.5000 
    110 CA        -3.8623  -18.8790  -58.9431 C.3       20 UNK         0.1400 
    111 CB        -4.0162  -17.3946  -59.3378 C.3       20 UNK        -0.1800 
    112 C         -5.0988  -19.4150  -58.1837 C.2       20 UNK         0.5000 
    113 O         -6.2242  -19.0539  -58.5320 O.2       20 UNK        -0.5000 
    114 N         -4.8700  -20.2801  -57.1830 N.am      21 UNK        -0.5000 
    115 CA        -5.8560  -20.9118  -56.3009 C.3       21 UNK         0.1400 
    116 CB        -6.6954  -21.9461  -57.0797 C.3       21 UNK        -0.1800 
    117 C         -6.7157  -19.8890  -55.5260 C.2       21 UNK         0.5000 
    118 O         -7.9388  -20.0323  -55.4601 O.2       21 UNK        -0.5000 
    119 N         -6.0623  -18.8563  -54.9790 N.am      22 UNK        -0.5000 
    120 CA        -6.6973  -17.7958  -54.1840 C.3       22 UNK         0.1400 
    121 C         -7.2535  -18.2828  -52.8127 C.2       22 UNK         0.5000 
    122 N         -8.2287  -17.5782  -52.2534 N.am      22 UNK        -0.7600 
    123 O         -6.7968  -19.2656  -52.2330 O.2       22 UNK        -0.5000 
    124 C124       -5.7782  -16.5529  -54.0436 C.3       23 UNK        -0.0398 
    125 S125       -4.1851  -16.8812  -53.2153 S.3       23 UNK        -0.2404 
    126 C126       -4.5177  -16.2438  -51.5448 C.3       23 UNK        -0.0205 
    127 H127       -0.9861  -12.5364  -42.1254 H         1 UNK         0.0600 
    128 H128       -2.2659  -13.7607  -42.0104 H         1 UNK         0.0600 
    129 H129       -2.5964  -12.0878  -41.5597 H         1 UNK         0.0600 
    130 H130       -1.2494  -13.9017  -44.3975 H         1 UNK         0.3000 
    131 H131       -3.1438  -12.5873  -46.2301 H         1 UNK         0.0600 
    132 H132       -2.8767  -15.0596  -46.3523 H         1 UNK         0.0800 
    133 H133       -2.5336  -14.2487  -47.8389 H         1 UNK         0.0800 
    134 H134        0.5331  -16.2171  -48.8005 H         1 UNK         0.0800 
    135 H135       -0.3143  -14.7508  -49.2244 H         1 UNK         0.0800 
    136 H136       -2.3182  -15.0215  -50.4773 H         1 UNK         0.1150 
    137 H137       -4.5214  -18.6911  -50.3909 H         1 UNK         0.1150 
    138 H138       -1.0546  -18.2082  -47.9054 H         1 UNK         0.1150 
    139 H139       -3.1122  -19.9967  -47.4685 H         1 UNK         0.0800 
    140 H140       -3.9482  -20.4352  -48.9276 H         1 UNK         0.0800 
    141 H141       -0.9612  -20.3512  -46.8818 H         1 UNK         0.0800 
    142 H142        0.3900  -20.6980  -47.9153 H         1 UNK         0.0800 
    143 H143        0.1558  -23.0975  -47.5771 H         1 UNK         0.0600 
    144 H144        0.6809  -21.3419  -45.4329 H         1 UNK         0.3000 
    145 H145        1.7884  -23.7837  -43.0524 H         1 UNK         0.0600 
    146 H146        3.7312  -22.2584  -43.1511 H         1 UNK         0.0600 
    147 H147        3.6673  -23.2291  -44.6146 H         1 UNK         0.0600 
    148 H148        3.1447  -21.5483  -44.6531 H         1 UNK         0.0600 
    149 H149        1.5494  -20.9669  -42.8343 H         1 UNK         0.3000 
    150 H150       -1.8010  -20.9187  -41.4930 H         1 UNK         0.0600 
    151 H151       -0.1522  -21.3800  -39.6688 H         1 UNK         0.0600 
    152 H152       -0.5418  -19.6694  -39.7716 H         1 UNK         0.0600 
    153 H153        0.9895  -20.2634  -40.4082 H         1 UNK         0.0600 
    154 H154       -0.0961  -18.7564  -42.0880 H         1 UNK         0.3000 
    155 H155       -1.2370  -18.1332  -45.4424 H         1 UNK         0.0600 
    156 H156       -1.4986  -16.7848  -42.6983 H         1 UNK         0.0600 
    157 H157       -2.7801  -17.0468  -43.8706 H         1 UNK         0.0600 
    158 H158       -1.4756  -15.9303  -44.2306 H         1 UNK         0.0600 
    159 H159        0.7856  -16.8290  -44.0062 H         1 UNK         0.3000 
    160 H160        3.5621  -18.9256  -44.9304 H         1 UNK         0.0600 
    161 H161        2.7129  -16.0609  -45.6009 H         1 UNK         0.0600 
    162 H162        3.1842  -17.2891  -46.7625 H         1 UNK         0.0600 
    163 H163        4.3659  -16.6731  -45.6174 H         1 UNK         0.0600 
    164 H164        3.2982  -16.6256  -43.2310 H         1 UNK         0.3000 
    165 H165        2.8175  -18.3779  -40.1710 H         1 UNK         0.0600 
    166 H166        4.8644  -17.1050  -39.5826 H         1 UNK         0.0600 
    167 H167        5.2788  -18.4779  -40.5965 H         1 UNK         0.0600 
    168 H168        5.2399  -16.8605  -41.2885 H         1 UNK         0.0600 
    169 H169        3.1521  -15.6087  -40.8279 H         1 UNK         0.3000 
    170 H170       -0.2541  -14.8872  -41.5369 H         1 UNK         0.0600 
    171 H171       -0.1595  -14.8617  -39.0448 H         1 UNK         0.0600 
    172 H172        1.4503  -14.1527  -39.0963 H         1 UNK         0.0600 
    173 H173        0.0620  -13.2480  -39.7012 H         1 UNK         0.0600 
    174 H174        2.1468  -13.2986  -41.3081 H         1 UNK         0.3000 
    175 H175        2.7939  -12.2153  -43.3967 H         1 UNK         0.0600 
    176 H176        4.4261  -14.8054  -43.8001 H         1 UNK         0.0600 
    177 H177        5.0841  -13.1766  -43.7187 H         1 UNK         0.0600 
    178 H178        4.3756  -13.8973  -42.2939 H         1 UNK         0.0600 
    179 H179        1.9911  -13.8419  -45.5485 H         1 UNK         0.3000 
    180 H180        3.7683  -12.0598  -48.1560 H         1 UNK         0.0600 
    181 H181        2.3354  -14.7175  -47.5889 H         1 UNK         0.0600 
    182 H182        4.0711  -14.5604  -47.8320 H         1 UNK         0.0600 
    183 H183        2.9623  -14.1682  -49.1361 H         1 UNK         0.0600 
    184 H184        1.1953  -11.9187  -46.8955 H         1 UNK         0.3000 
    185 H185       -0.1082  -10.0642  -48.2685 H         1 UNK         0.0600 
    186 H186       -0.2330  -10.0771  -50.7464 H         1 UNK         0.0600 
    187 H187       -1.0108  -11.6562  -50.7240 H         1 UNK         0.0600 
    188 H188       -1.8331  -10.2493  -50.0485 H         1 UNK         0.0600 
    189 H189       -1.8516  -12.3462  -48.5366 H         1 UNK         0.3000 
    190 H190       -2.0200  -21.9490  -44.9397 H         1 UNK         0.3000 
    191 H191       -4.3297  -23.3500  -45.7998 H         1 UNK         0.0600 
    192 H192       -3.5110  -22.3849  -43.0095 H         1 UNK         0.0600 
    193 H193       -5.1308  -22.8978  -43.4698 H         1 UNK         0.0600 
    194 H194       -4.4236  -21.4680  -44.2063 H         1 UNK         0.0600 
    195 H195       -1.7033  -24.3157  -43.5439 H         1 UNK         0.3000 
    196 H196       -2.8023  -26.8233  -42.7819 H         1 UNK         0.0600 
    197 H197       -0.4704  -27.2961  -42.0039 H         1 UNK         0.0600 
    198 H198       -1.0108  -25.7014  -41.5020 H         1 UNK         0.0600 
    199 H199        0.1087  -25.8672  -42.8526 H         1 UNK         0.0600 
    200 H200       -0.5631  -25.9368  -45.4420 H         1 UNK         0.3000 
    201 H201       -0.2845  -28.6171  -46.4764 H         1 UNK         0.0600 
    202 H202        1.4172  -26.8460  -46.8465 H         1 UNK         0.0600 
    203 H203        0.2495  -25.8730  -47.7381 H         1 UNK         0.0600 
    204 H204        0.7960  -27.4145  -48.3892 H         1 UNK         0.0600 
    205 H205       -2.6619  -26.1206  -46.8690 H         1 UNK         0.3000 
    206 H206       -4.4781  -25.7490  -48.0492 H         1 UNK         0.0600 
    207 H207       -4.4907  -28.7036  -48.8708 H         1 UNK         0.0600 
    208 H208       -5.8357  -27.5784  -48.9863 H         1 UNK         0.0600 
    209 H209       -5.2276  -28.0512  -47.4077 H         1 UNK         0.0600 
    210 H210       -2.0927  -25.0015  -49.0544 H         1 UNK         0.3000 
    211 H211       -1.5813  -25.9568  -51.7336 H         1 UNK         0.0600 
    212 H212       -0.3886  -23.6310  -50.1360 H         1 UNK         0.0600 
    213 H213        0.2381  -24.2300  -51.6667 H         1 UNK         0.0600 
    214 H214        0.2534  -25.2673  -50.2499 H         1 UNK         0.0600 
    215 H215       -3.2015  -23.1180  -50.4104 H         1 UNK         0.3000 
    216 H216       -4.3115  -21.3797  -51.2220 H         1 UNK         0.0600 
    217 H217       -5.7490  -21.6699  -53.1768 H         1 UNK         0.0600 
    218 H218       -5.7299  -23.1655  -52.2627 H         1 UNK         0.0600 
    219 H219       -4.7933  -23.0341  -53.7501 H         1 UNK         0.0600 
    220 H220       -1.5093  -21.4427  -51.5698 H         1 UNK         0.3000 
    221 H221        0.2699  -20.4715  -52.4485 H         1 UNK         0.0600 
    222 H222       -1.7345  -18.1787  -52.6676 H         1 UNK         0.0600 
    223 H223       -0.7521  -18.6054  -51.2768 H         1 UNK         0.0600 
    224 H224        0.0160  -17.9826  -52.7239 H         1 UNK         0.0600 
    225 H225       -1.3148  -18.3552  -54.6904 H         1 UNK         0.3000 
    226 H226       -0.5491  -19.9966  -57.0393 H         1 UNK         0.0600 
    227 H227        1.2617  -18.2960  -56.6915 H         1 UNK         0.0600 
    228 H228        0.3102  -17.9132  -58.1187 H         1 UNK         0.0600 
    229 H229        0.0579  -17.0094  -56.6294 H         1 UNK         0.0600 
    230 H230       -1.9452  -19.7285  -58.7476 H         1 UNK         0.3000 
    231 H231       -3.8140  -19.4562  -59.8674 H         1 UNK         0.0600 
    232 H232       -3.1392  -17.0363  -59.8767 H         1 UNK         0.0600 
    233 H233       -4.1596  -16.7555  -58.4662 H         1 UNK         0.0600 
    234 H234       -4.8771  -17.2498  -59.9913 H         1 UNK         0.0600 
    235 H235       -3.9055  -20.4833  -56.9642 H         1 UNK         0.3000 
    236 H236       -5.2818  -21.4581  -55.5540 H         1 UNK         0.0600 
    237 H237       -7.3287  -21.4724  -57.8304 H         1 UNK         0.0600 
    238 H238       -6.0575  -22.6697  -57.5871 H         1 UNK         0.0600 
    239 H239       -7.3469  -22.5055  -56.4073 H         1 UNK         0.0600 
    240 H240       -5.0511  -18.8327  -55.0249 H         1 UNK         0.3000 
    241 H241       -7.5659  -17.4718  -54.7609 H         1 UNK         0.0600 
    242 H242       -8.5935  -17.8764  -51.3622 H         1 UNK         0.3800 
    243 H243       -8.6284  -16.7693  -52.7034 H         1 UNK         0.3800 
    244 H244       -6.2995  -15.7430  -53.5308 H         1 UNK         0.0800 
    245 H245       -5.5511  -16.1647  -55.0374 H         1 UNK         0.0800 
    246 H246       -5.5266  -16.5167  -51.2339 H         1 UNK         0.0800 
    247 H247       -4.4852  -15.1534  -51.5622 H         1 UNK         0.0800 
@<TRIPOS>BOND
     1    1    2 1    
     2    1  127 1    
     3    1  128 1    
     4    1  129 1    
     5    2    3 2    
     6    2    4 am   BACKBONE|DICT|INTERRES
     7    4    5 1    
     8    4  130 1    
     9    5    6 1    
    10    5   65 1    
    11    5  131 1    
    12    6    7 1    
    13    6  132 1    
    14    6  133 1    
    15    7    8 1    
    16    8    9 1    
    17    8  134 1    
    18    8  135 1    
    19    9   10 ar   
    20    9   14 ar   
    21   10   11 ar   
    22   10  136 1    
    23   11   12 ar   
    24   11  126 1    
    25   12   13 ar   
    26   12  137 1    
    27   13   14 ar   
    28   13   15 1    
    29   14  138 1    
    30   15   16 1    
    31   15  139 1    
    32   15  140 1    
    33   16   17 1    
    34   17   18 1    
    35   17  141 1    
    36   17  142 1    
    37   18   19 1    
    38   18   67 1    
    39   18  143 1    
    40   19   20 am   BACKBONE|DICT|INTERRES
    41   19  144 1    
    42   20   21 2    
    43   20   22 1    
    44   22   23 1    
    45   22   24 1    
    46   22  145 1    
    47   23  146 1    
    48   23  147 1    
    49   23  148 1    
    50   24   25 am   BACKBONE|DICT|INTERRES
    51   24  149 1    
    52   25   26 2    
    53   25   27 1    
    54   27   28 1    
    55   27   29 1    
    56   27  150 1    
    57   28  151 1    
    58   28  152 1    
    59   28  153 1    
    60   29   30 am   BACKBONE|DICT|INTERRES
    61   29  154 1    
    62   30   31 2    
    63   30   32 1    
    64   32   33 1    
    65   32   34 1    
    66   32  155 1    
    67   33  156 1    
    68   33  157 1    
    69   33  158 1    
    70   34   35 am   BACKBONE|DICT|INTERRES
    71   34  159 1    
    72   35   36 2    
    73   35   37 1    
    74   37   38 1    
    75   37   39 1    
    76   37  160 1    
    77   38  161 1    
    78   38  162 1    
    79   38  163 1    
    80   39   40 am   BACKBONE|DICT|INTERRES
    81   39  164 1    
    82   40   41 2    
    83   40   42 1    
    84   42   43 1    
    85   42   44 1    
    86   42  165 1    
    87   43  166 1    
    88   43  167 1    
    89   43  168 1    
    90   44   45 am   BACKBONE|DICT|INTERRES
    91   44  169 1    
    92   45   46 2    
    93   45   47 1    
    94   47   48 1    
    95   47   49 1    
    96   47  170 1    
    97   48  171 1    
    98   48  172 1    
    99   48  173 1    
   100   49   50 am   BACKBONE|DICT|INTERRES
   101   49  174 1    
   102   50   51 2    
   103   50   52 1    
   104   52   53 1    
   105   52   54 1    
   106   52  175 1    
   107   53  176 1    
   108   53  177 1    
   109   53  178 1    
   110   54   55 am   BACKBONE|DICT|INTERRES
   111   54  179 1    
   112   55   56 2    
   113   55   57 1    
   114   57   58 1    
   115   57   59 1    
   116   57  180 1    
   117   58  181 1    
   118   58  182 1    
   119   58  183 1    
   120   59   60 am   BACKBONE|DICT|INTERRES
   121   59  184 1    
   122   60   61 2    
   123   60   62 1    
   124   62   63 1    
   125   62   64 1    
   126   62  185 1    
   127   63  186 1    
   128   63  187 1    
   129   63  188 1    
   130   64   65 am   BACKBONE|DICT|INTERRES
   131   64  189 1    
   132   65   66 2    
   133   67   68 2    
   134   67   69 am   BACKBONE|DICT|INTERRES
   135   69   70 1    
   136   69  190 1    
   137   70   71 1    
   138   70   72 1    
   139   70  191 1    
   140   71  192 1    
   141   71  193 1    
   142   71  194 1    
   143   72   73 2    
   144   72   74 am   BACKBONE|DICT|INTERRES
   145   74   75 1    
   146   74  195 1    
   147   75   76 1    
   148   75   77 1    
   149   75  196 1    
   150   76  197 1    
   151   76  198 1    
   152   76  199 1    
   153   77   78 2    
   154   77   79 am   BACKBONE|DICT|INTERRES
   155   79   80 1    
   156   79  200 1    
   157   80   81 1    
   158   80   82 1    
   159   80  201 1    
   160   81  202 1    
   161   81  203 1    
   162   81  204 1    
   163   82   83 2    
   164   82   84 am   BACKBONE|DICT|INTERRES
   165   84   85 1    
   166   84  205 1    
   167   85   86 1    
   168   85   87 1    
   169   85  206 1    
   170   86  207 1    
   171   86  208 1    
   172   86  209 1    
   173   87   88 2    
   174   87   89 am   BACKBONE|DICT|INTERRES
   175   89   90 1    
   176   89  210 1    
   177   90   91 1    
   178   90   92 1    
   179   90  211 1    
   180   91  212 1    
   181   91  213 1    
   182   91  214 1    
   183   92   93 2    
   184   92   94 am   BACKBONE|DICT|INTERRES
   185   94   95 1    
   186   94  215 1    
   187   95   96 1    
   188   95   97 1    
   189   95  216 1    
   190   96  217 1    
   191   96  218 1    
   192   96  219 1    
   193   97   98 2    
   194   97   99 am   BACKBONE|DICT|INTERRES
   195   99  100 1    
   196   99  220 1    
   197  100  101 1    
   198  100  102 1    
   199  100  221 1    
   200  101  222 1    
   201  101  223 1    
   202  101  224 1    
   203  102  103 2    
   204  102  104 am   BACKBONE|DICT|INTERRES
   205  104  105 1    
   206  104  225 1    
   207  105  106 1    
   208  105  107 1    
   209  105  226 1    
   210  106  227 1    
   211  106  228 1    
   212  106  229 1    
   213  107  108 2    
   214  107  109 am   BACKBONE|DICT|INTERRES
   215  109  110 1    
   216  109  230 1    
   217  110  111 1    
   218  110  112 1    
   219  110  231 1    
   220  111  232 1    
   221  111  233 1    
   222  111  234 1    
   223  112  113 2    
   224  112  114 am   BACKBONE|DICT|INTERRES
   225  114  115 1    
   226  114  235 1    
   227  115  116 1    
   228  115  117 1    
   229  115  236 1    
   230  116  237 1    
   231  116  238 1    
   232  116  239 1    
   233  117  118 2    
   234  117  119 am   BACKBONE|DICT|INTERRES
   235  119  120 1    
   236  119  240 1    
   237  120  121 1    
   238  120  124 1    
   239  120  241 1    
   240  121  122 am   BACKBONE|DICT|INTERRES
   241  121  123 2    
   242  122  242 1    
   243  122  243 1    
   244  124  125 1    
   245  124  244 1    
   246  124  245 1    
   247  125  126 1    
   248  126  246 1    
   249  126  247 1    
@<TRIPOS>SUBSTRUCTURE
     1 UNK         1 GROUP             0       ****    0 ROOT    
