@<TRIPOS>MOLECULE
3R540
247   249    1
SMALL
USER_CHARGES


@<TRIPOS>ATOM
      1 CA         -3.1628   -8.4830  -45.2787 C.3       0 UNK        -0.1800 
      2 C          -2.4320   -8.9502  -46.5298 C.2       0 UNK         0.5000 
      3 O          -2.1645   -8.1434  -47.4212 O.2       0 UNK        -0.5000 
      4 N          -2.1195  -10.2493  -46.6021 N.am      1 UNK        -0.5000 
      5 CA         -1.3750  -10.8799  -47.6985 C.3       1 UNK         0.1400 
      6 C6         -1.4454  -12.4291  -47.6430 C.3       23 UNK        -0.0398 
      7 S7         -3.1325  -13.0985  -47.4373 S.3       23 UNK        -0.2404 
      8 C8         -2.7863  -14.7469  -46.7352 C.3       23 UNK        -0.0205 
      9 C9         -2.8064  -15.8387  -47.7964 C.ar      23 UNK        -0.0193 
     10 C10        -1.8142  -15.8927  -48.7795 C.ar      23 UNK        -0.1150 
     11 C11        -1.8256  -16.8986  -49.7501 C.ar      23 UNK        -0.0193 
     12 C12        -2.8487  -17.8487  -49.7382 C.ar      23 UNK        -0.1150 
     13 C13        -3.8284  -17.8308  -48.7411 C.ar      23 UNK        -0.0193 
     14 C14        -3.8069  -16.8154  -47.7800 C.ar      23 UNK        -0.1150 
     15 C15        -4.8945  -18.9193  -48.6780 C.3       23 UNK        -0.0205 
     16 S16        -4.2174  -20.6113  -48.8002 S.3       23 UNK        -0.2404 
     17 C17        -2.8997  -20.5893  -47.5376 C.3       23 UNK        -0.0398 
     18 CA         -2.1015  -21.9148  -47.4925 C.3       11 UNK         0.1400 
     19 N          -0.7082  -21.7038  -47.0884 N.am      11 UNK        -0.5000 
     20 C           0.2464  -22.6450  -47.1025 C.2       10 UNK         0.5000 
     21 O           0.0695  -23.7913  -47.5111 O.2       10 UNK        -0.5000 
     22 CA          1.6117  -22.2620  -46.5034 C.3       10 UNK         0.1400 
     23 CB          2.4635  -21.4862  -47.5198 C.3       10 UNK        -0.1800 
     24 N           1.4774  -21.4873  -45.2692 N.am      10 UNK        -0.5000 
     25 C           0.9138  -21.9456  -44.1420 C.2       9 UNK         0.5000 
     26 O           0.5189  -23.1023  -43.9982 O.2       9 UNK        -0.5000 
     27 CA          0.6951  -20.9275  -43.0088 C.3       9 UNK         0.1400 
     28 CB          1.9757  -20.7216  -42.1861 C.3       9 UNK        -0.1800 
     29 N           0.2145  -19.6415  -43.5147 N.am      9 UNK        -0.5000 
     30 C          -0.9909  -19.4515  -44.0716 C.2       8 UNK         0.5000 
     31 O          -1.8476  -20.3302  -44.1623 O.2       8 UNK        -0.5000 
     32 CA         -1.2689  -18.0617  -44.6718 C.3       8 UNK         0.1400 
     33 CB         -1.8760  -17.1271  -43.6161 C.3       8 UNK        -0.1800 
     34 N          -0.0660  -17.4577  -45.2511 N.am      8 UNK        -0.5000 
     35 C           0.5207  -17.9258  -46.3631 C.2       7 UNK         0.5000 
     36 O           0.0959  -18.8977  -46.9858 O.2       7 UNK        -0.5000 
     37 CA          1.8252  -17.2504  -46.8227 C.3       7 UNK         0.1400 
     38 CB          1.5503  -15.9466  -47.5826 C.3       7 UNK        -0.1800 
     39 N           2.7580  -16.9822  -45.7303 N.am      7 UNK        -0.5000 
     40 C           3.3740  -17.9264  -45.0073 C.2       6 UNK         0.5000 
     41 O           3.1364  -19.1285  -45.1145 O.2       6 UNK        -0.5000 
     42 CA          4.4297  -17.4500  -43.9982 C.3       6 UNK         0.1400 
     43 CB          5.7473  -17.1155  -44.7149 C.3       6 UNK        -0.1800 
     44 N           3.9623  -16.2702  -43.2762 N.am      6 UNK        -0.5000 
     45 C           3.3812  -16.2996  -42.0702 C.2       5 UNK         0.5000 
     46 O           3.2526  -17.3215  -41.3952 O.2       5 UNK        -0.5000 
     47 CA          2.8313  -14.9641  -41.5282 C.3       5 UNK         0.1400 
     48 CB          3.8888  -14.2574  -40.6669 C.3       5 UNK        -0.1800 
     49 N           2.3705  -14.0429  -42.5708 N.am      5 UNK        -0.5000 
     50 C           1.3793  -14.3028  -43.4339 C.2       4 UNK         0.5000 
     51 O           0.7451  -15.3560  -43.4541 O.2       4 UNK        -0.5000 
     52 CA          1.0665  -13.2285  -44.4883 C.3       4 UNK         0.1400 
     53 CB          0.0761  -12.2062  -43.9099 C.3       4 UNK        -0.1800 
     54 N           2.2253  -12.5279  -45.0585 N.am      4 UNK        -0.5000 
     55 C           3.3511  -13.0876  -45.5324 C.2       3 UNK         0.5000 
     56 O           3.6115  -14.2888  -45.4378 O.2       3 UNK        -0.5000 
     57 CA          4.3407  -12.1361  -46.2403 C.3       3 UNK         0.1400 
     58 CB          5.4970  -12.8837  -46.9377 C.3       3 UNK        -0.1800 
     59 N           3.6719  -11.2191  -47.1732 N.am      3 UNK        -0.5000 
     60 C           2.9289  -11.5555  -48.2383 C.2       2 UNK         0.5000 
     61 O           2.7450  -12.7112  -48.6244 O.2       2 UNK        -0.5000 
     62 CA          2.2212  -10.4000  -48.9724 C.3       2 UNK         0.1400 
     63 CB          2.6072  -10.3622  -50.4597 C.3       2 UNK        -0.1800 
     64 N           0.7701  -10.5456  -48.8512 N.am      2 UNK        -0.5000 
     65 C           0.1055  -10.4366  -47.6937 C.2       1 UNK         0.5000 
     66 O           0.6385  -10.0680  -46.6425 O.2       1 UNK        -0.5000 
     67 C          -2.8025  -22.9716  -46.6132 C.2       11 UNK         0.5000 
     68 O          -3.4552  -23.8695  -47.1444 O.2       11 UNK        -0.5000 
     69 N          -2.6177  -22.8806  -45.2882 N.am      12 UNK        -0.5000 
     70 CA         -3.1246  -23.8471  -44.3134 C.3       12 UNK         0.1400 
     71 CB         -2.8847  -23.3258  -42.8888 C.3       12 UNK        -0.1800 
     72 C          -2.5208  -25.2512  -44.5004 C.2       12 UNK         0.5000 
     73 O          -3.2648  -26.2320  -44.4950 O.2       12 UNK        -0.5000 
     74 N          -1.1994  -25.3221  -44.7180 N.am      13 UNK        -0.5000 
     75 CA         -0.4641  -26.5573  -45.0078 C.3       13 UNK         0.1400 
     76 CB          1.0442  -26.2675  -45.0084 C.3       13 UNK        -0.1800 
     77 C          -0.8920  -27.2241  -46.3305 C.2       13 UNK         0.5000 
     78 O          -0.9366  -28.4523  -46.4060 O.2       13 UNK        -0.5000 
     79 N          -1.2379  -26.4051  -47.3324 N.am      14 UNK        -0.5000 
     80 CA         -1.7889  -26.8268  -48.6219 C.3       14 UNK         0.1400 
     81 CB         -1.5802  -25.6939  -49.6413 C.3       14 UNK        -0.1800 
     82 C          -3.2781  -27.2314  -48.5597 C.2       14 UNK         0.5000 
     83 O          -3.8093  -27.6880  -49.5724 O.2       14 UNK        -0.5000 
     84 N          -3.9260  -27.0507  -47.3971 N.am      15 UNK        -0.5000 
     85 CA         -5.3513  -27.2646  -47.1267 C.3       15 UNK         0.1400 
     86 CB         -5.7280  -28.7554  -47.2559 C.3       15 UNK        -0.1800 
     87 C          -6.2389  -26.3299  -47.9725 C.2       15 UNK         0.5000 
     88 O          -7.1919  -26.7768  -48.6140 O.2       15 UNK        -0.5000 
     89 N          -5.8671  -25.0429  -47.9863 N.am      16 UNK        -0.5000 
     90 CA         -6.4337  -23.9108  -48.7252 C.3       16 UNK         0.1400 
     91 CB         -7.9316  -23.7089  -48.4295 C.3       16 UNK        -0.1800 
     92 C          -6.1590  -23.9545  -50.2374 C.2       16 UNK         0.5000 
     93 O          -5.8361  -22.9150  -50.8101 O.2       16 UNK        -0.5000 
     94 N          -6.2984  -25.1364  -50.8554 N.am      17 UNK        -0.5000 
     95 CA         -6.0398  -25.4475  -52.2679 C.3       17 UNK         0.1400 
     96 CB         -4.5230  -25.4341  -52.5435 C.3       17 UNK        -0.1800 
     97 C          -6.8300  -24.5574  -53.2532 C.2       17 UNK         0.5000 
     98 O          -6.3076  -24.1870  -54.3060 O.2       17 UNK        -0.5000 
     99 N          -8.0716  -24.2158  -52.8719 N.am      18 UNK        -0.5000 
    100 CA        -8.9795  -23.2820  -53.5512 C.3       18 UNK         0.1400 
    101 CB        -9.4436  -23.8524  -54.9085 C.3       18 UNK        -0.1800 
    102 C         -8.3952  -21.8541  -53.6543 C.2       18 UNK         0.5000 
    103 O         -8.5572  -21.1949  -54.6822 O.2       18 UNK        -0.5000 
    104 N         -7.7308  -21.4238  -52.5704 N.am      19 UNK        -0.5000 
    105 CA        -6.9486  -20.1980  -52.4007 C.3       19 UNK         0.1400 
    106 CB        -7.7742  -18.9259  -52.6861 C.3       19 UNK        -0.1800 
    107 C         -5.6426  -20.2752  -53.2104 C.2       19 UNK         0.5000 
    108 O         -5.5874  -19.8128  -54.3522 O.2       19 UNK        -0.5000 
    109 N         -4.6292  -20.8990  -52.5942 N.am      20 UNK        -0.5000 
    110 CA        -3.2729  -21.0982  -53.1099 C.3       20 UNK         0.1400 
    111 CB        -2.4181  -21.7356  -52.0003 C.3       20 UNK        -0.1800 
    112 C         -2.5949  -19.8038  -53.6057 C.2       20 UNK         0.5000 
    113 O         -2.8343  -18.7273  -53.0563 O.2       20 UNK        -0.5000 
    114 N         -1.7358  -19.9404  -54.6231 N.am      21 UNK        -0.5000 
    115 CA        -0.9870  -18.8294  -55.2166 C.3       21 UNK         0.1400 
    116 CB        -0.5374  -19.2334  -56.6296 C.3       21 UNK        -0.1800 
    117 C          0.2265  -18.3896  -54.3737 C.2       21 UNK         0.5000 
    118 O          0.6736  -17.2513  -54.5170 O.2       21 UNK        -0.5000 
    119 N          0.7444  -19.2987  -53.5344 N.am      22 UNK        -0.5000 
    120 CA         1.9394  -19.1270  -52.6839 C.3       22 UNK         0.1400 
    121 C          3.2839  -18.9978  -53.4682 C.2       22 UNK         0.5000 
    122 N          3.3485  -19.3749  -54.7396 N.am      22 UNK        -0.7600 
    123 O          4.2977  -18.5826  -52.9130 O.2       22 UNK        -0.5000 
    124 C124        1.7750  -18.0225  -51.6008 C.3       23 UNK        -0.0398 
    125 S125        0.4047  -18.3633  -50.4466 S.3       23 UNK        -0.2404 
    126 C126       -0.7237  -16.9779  -50.7957 C.3       23 UNK        -0.0205 
    127 H127       -3.3377   -9.3027  -44.5813 H         1 UNK         0.0600 
    128 H128       -4.1278   -8.0523  -45.5461 H         1 UNK         0.0600 
    129 H129       -2.5774   -7.7199  -44.7658 H         1 UNK         0.0600 
    130 H130       -2.3738  -10.8623  -45.8419 H         1 UNK         0.3000 
    131 H131       -1.8261  -10.5501  -48.6368 H         1 UNK         0.0600 
    132 H132       -1.0223  -12.8535  -48.5544 H         1 UNK         0.0800 
    133 H133       -0.8312  -12.7979  -46.8231 H         1 UNK         0.0800 
    134 H134       -1.8264  -14.7609  -46.2178 H         1 UNK         0.0800 
    135 H135       -3.5373  -14.9521  -45.9709 H         1 UNK         0.0800 
    136 H136       -1.0307  -15.1511  -48.7867 H         1 UNK         0.1150 
    137 H137       -2.8541  -18.6336  -50.4806 H         1 UNK         0.1150 
    138 H138       -4.5653  -16.7915  -47.0102 H         1 UNK         0.1150 
    139 H139       -5.4642  -18.8452  -47.7505 H         1 UNK         0.0800 
    140 H140       -5.6044  -18.7630  -49.4907 H         1 UNK         0.0800 
    141 H141       -3.3207  -20.3267  -46.5654 H         1 UNK         0.0800 
    142 H142       -2.2236  -19.7756  -47.7975 H         1 UNK         0.0800 
    143 H143       -2.0550  -22.3195  -48.5062 H         1 UNK         0.0600 
    144 H144       -0.4535  -20.7623  -46.8033 H         1 UNK         0.3000 
    145 H145        2.1383  -23.1863  -46.2580 H         1 UNK         0.0600 
    146 H146        2.6118  -22.0703  -48.4288 H         1 UNK         0.0600 
    147 H147        1.9955  -20.5455  -47.8093 H         1 UNK         0.0600 
    148 H148        3.4492  -21.2573  -47.1144 H         1 UNK         0.0600 
    149 H149        1.8363  -20.5368  -45.2868 H         1 UNK         0.3000 
    150 H150       -0.0695  -21.3323  -42.3425 H         1 UNK         0.0600 
    151 H151        1.8048  -20.0368  -41.3552 H         1 UNK         0.0600 
    152 H152        2.7886  -20.3171  -42.7883 H         1 UNK         0.0600 
    153 H153        2.3211  -21.6659  -41.7637 H         1 UNK         0.0600 
    154 H154        0.8702  -18.8742  -43.5116 H         1 UNK         0.3000 
    155 H155       -2.0028  -18.1837  -45.4718 H         1 UNK         0.0600 
    156 H156       -1.2193  -17.0129  -42.7531 H         1 UNK         0.0600 
    157 H157       -2.8267  -17.5191  -43.2528 H         1 UNK         0.0600 
    158 H158       -2.0675  -16.1357  -44.0259 H         1 UNK         0.0600 
    159 H159        0.3491  -16.6840  -44.7382 H         1 UNK         0.3000 
    160 H160        2.3233  -17.9351  -47.5125 H         1 UNK         0.0600 
    161 H161        1.0268  -16.1514  -48.5140 H         1 UNK         0.0600 
    162 H162        2.4771  -15.4368  -47.8467 H         1 UNK         0.0600 
    163 H163        0.9409  -15.2554  -47.0024 H         1 UNK         0.0600 
    164 H164        3.0269  -16.0105  -45.5944 H         1 UNK         0.3000 
    165 H165        4.6246  -18.2691  -43.3026 H         1 UNK         0.0600 
    166 H166        6.5189  -16.8253  -44.0017 H         1 UNK         0.0600 
    167 H167        6.1216  -17.9791  -45.2661 H         1 UNK         0.0600 
    168 H168        5.6263  -16.2979  -45.4269 H         1 UNK         0.0600 
    169 H169        3.9727  -15.3962  -43.7906 H         1 UNK         0.3000 
    170 H170        1.9744  -15.1990  -40.8935 H         1 UNK         0.0600 
    171 H171        3.4837  -13.3581  -40.2025 H         1 UNK         0.0600 
    172 H172        4.2366  -14.9079  -39.8632 H         1 UNK         0.0600 
    173 H173        4.7601  -13.9693  -41.2564 H         1 UNK         0.0600 
    174 H174        2.8492  -13.1572  -42.6415 H         1 UNK         0.3000 
    175 H175        0.5756  -13.7428  -45.3131 H         1 UNK         0.0600 
    176 H176        0.5310  -11.6115  -43.1169 H         1 UNK         0.0600 
    177 H177       -0.7989  -12.7028  -43.4877 H         1 UNK         0.0600 
    178 H178       -0.2851  -11.5208  -44.6737 H         1 UNK         0.0600 
    179 H179        2.0983  -11.5366  -45.2133 H         1 UNK         0.3000 
    180 H180        4.7776  -11.5160  -45.4565 H         1 UNK         0.0600 
    181 H181        6.1873  -12.1873  -47.4134 H         1 UNK         0.0600 
    182 H182        5.1343  -13.5718  -47.7019 H         1 UNK         0.0600 
    183 H183        6.0717  -13.4700  -46.2195 H         1 UNK         0.0600 
    184 H184        3.7280  -10.2401  -46.9280 H         1 UNK         0.3000 
    185 H185        2.5148   -9.4496  -48.5213 H         1 UNK         0.0600 
    186 H186        2.3133  -11.2759  -50.9781 H         1 UNK         0.0600 
    187 H187        2.1354   -9.5213  -50.9684 H         1 UNK         0.0600 
    188 H188        3.6857  -10.2503  -50.5784 H         1 UNK         0.0600 
    189 H189        0.2862  -10.8778  -49.6727 H         1 UNK         0.3000 
    190 H190       -2.1097  -22.0830  -44.9157 H         1 UNK         0.3000 
    191 H191       -4.2032  -23.9295  -44.4632 H         1 UNK         0.0600 
    192 H192       -1.8232  -23.2012  -42.6760 H         1 UNK         0.0600 
    193 H193       -3.2889  -24.0164  -42.1477 H         1 UNK         0.0600 
    194 H194       -3.3707  -22.3622  -42.7353 H         1 UNK         0.0600 
    195 H195       -0.6487  -24.4691  -44.6611 H         1 UNK         0.3000 
    196 H196       -0.6734  -27.2629  -44.2012 H         1 UNK         0.0600 
    197 H197        1.6172  -27.1779  -45.1884 H         1 UNK         0.0600 
    198 H198        1.3684  -25.8629  -44.0495 H         1 UNK         0.0600 
    199 H199        1.3154  -25.5499  -45.7828 H         1 UNK         0.0600 
    200 H200       -1.0998  -25.4066  -47.2101 H         1 UNK         0.3000 
    201 H201       -1.2304  -27.6992  -48.9666 H         1 UNK         0.0600 
    202 H202       -0.5290  -25.4139  -49.7115 H         1 UNK         0.0600 
    203 H203       -2.1475  -24.8017  -49.3741 H         1 UNK         0.0600 
    204 H204       -1.8980  -25.9987  -50.6384 H         1 UNK         0.0600 
    205 H205       -3.3996  -26.6623  -46.6240 H         1 UNK         0.3000 
    206 H206       -5.5110  -26.9770  -46.0866 H         1 UNK         0.0600 
    207 H207       -6.7554  -28.9253  -46.9321 H         1 UNK         0.0600 
    208 H208       -5.6486  -29.1107  -48.2835 H         1 UNK         0.0600 
    209 H209       -5.0847  -29.3786  -46.6347 H         1 UNK         0.0600 
    210 H210       -5.0012  -24.8052  -47.5050 H         1 UNK         0.3000 
    211 H211       -5.9113  -23.0338  -48.3420 H         1 UNK         0.0600 
    212 H212       -8.5424  -24.5234  -48.8190 H         1 UNK         0.0600 
    213 H213       -8.2934  -22.7866  -48.8856 H         1 UNK         0.0600 
    214 H214       -8.1143  -23.6341  -47.3576 H         1 UNK         0.0600 
    215 H215       -6.5989  -25.9156  -50.2769 H         1 UNK         0.3000 
    216 H216       -6.3950  -26.4664  -52.4268 H         1 UNK         0.0600 
    217 H217       -4.3021  -25.7904  -53.5501 H         1 UNK         0.0600 
    218 H218       -3.9931  -26.0840  -51.8483 H         1 UNK         0.0600 
    219 H219       -4.1076  -24.4312  -52.4519 H         1 UNK         0.0600 
    220 H220       -8.4011  -24.5816  -51.9897 H         1 UNK         0.3000 
    221 H221       -9.8622  -23.1990  -52.9155 H         1 UNK         0.0600 
    222 H222       -8.6267  -23.9060  -55.6285 H         1 UNK         0.0600 
    223 H223       -9.8567  -24.8545  -54.7945 H         1 UNK         0.0600 
    224 H224      -10.2238  -23.2292  -55.3471 H         1 UNK         0.0600 
    225 H225       -7.5854  -22.0997  -51.8316 H         1 UNK         0.3000 
    226 H226       -6.6746  -20.1631  -51.3448 H         1 UNK         0.0600 
    227 H227       -8.6875  -18.9072  -52.0916 H         1 UNK         0.0600 
    228 H228       -7.2008  -18.0340  -52.4311 H         1 UNK         0.0600 
    229 H229       -8.0543  -18.8371  -53.7356 H         1 UNK         0.0600 
    230 H230       -4.8209  -21.3247  -51.6937 H         1 UNK         0.3000 
    231 H231       -3.3496  -21.7982  -53.9440 H         1 UNK         0.0600 
    232 H232       -2.2628  -21.0456  -51.1696 H         1 UNK         0.0600 
    233 H233       -2.8837  -22.6348  -51.5979 H         1 UNK         0.0600 
    234 H234       -1.4345  -22.0190  -52.3760 H         1 UNK         0.0600 
    235 H235       -1.5897  -20.8532  -55.0300 H         1 UNK         0.3000 
    236 H236       -1.6521  -17.9677  -55.3077 H         1 UNK         0.0600 
    237 H237        0.1190  -20.1042  -56.6116 H         1 UNK         0.0600 
    238 H238       -1.3929  -19.4704  -57.2624 H         1 UNK         0.0600 
    239 H239        0.0071  -18.4215  -57.1139 H         1 UNK         0.0600 
    240 H240        0.3020  -20.2039  -53.4877 H         1 UNK         0.3000 
    241 H241        2.0424  -20.0727  -52.1508 H         1 UNK         0.0600 
    242 H242        4.2234  -19.2989  -55.2347 H         1 UNK         0.3800 
    243 H243        2.5348  -19.7334  -55.2121 H         1 UNK         0.3800 
    244 H244        2.6761  -17.9487  -50.9901 H         1 UNK         0.0800 
    245 H245        1.6497  -17.0426  -52.0621 H         1 UNK         0.0800 
    246 H246       -0.1594  -16.0446  -50.8203 H         1 UNK         0.0800 
    247 H247       -1.1600  -17.1032  -51.7869 H         1 UNK         0.0800 
@<TRIPOS>BOND
     1    1    2 1    
     2    1  127 1    
     3    1  128 1    
     4    1  129 1    
     5    2    3 2    
     6    2    4 am   BACKBONE|DICT|INTERRES
     7    4    5 1    
     8    4  130 1    
     9    5    6 1    
    10    5   65 1    
    11    5  131 1    
    12    6    7 1    
    13    6  132 1    
    14    6  133 1    
    15    7    8 1    
    16    8    9 1    
    17    8  134 1    
    18    8  135 1    
    19    9   10 ar   
    20    9   14 ar   
    21   10   11 ar   
    22   10  136 1    
    23   11   12 ar   
    24   11  126 1    
    25   12   13 ar   
    26   12  137 1    
    27   13   14 ar   
    28   13   15 1    
    29   14  138 1    
    30   15   16 1    
    31   15  139 1    
    32   15  140 1    
    33   16   17 1    
    34   17   18 1    
    35   17  141 1    
    36   17  142 1    
    37   18   19 1    
    38   18   67 1    
    39   18  143 1    
    40   19   20 am   BACKBONE|DICT|INTERRES
    41   19  144 1    
    42   20   21 2    
    43   20   22 1    
    44   22   23 1    
    45   22   24 1    
    46   22  145 1    
    47   23  146 1    
    48   23  147 1    
    49   23  148 1    
    50   24   25 am   BACKBONE|DICT|INTERRES
    51   24  149 1    
    52   25   26 2    
    53   25   27 1    
    54   27   28 1    
    55   27   29 1    
    56   27  150 1    
    57   28  151 1    
    58   28  152 1    
    59   28  153 1    
    60   29   30 am   BACKBONE|DICT|INTERRES
    61   29  154 1    
    62   30   31 2    
    63   30   32 1    
    64   32   33 1    
    65   32   34 1    
    66   32  155 1    
    67   33  156 1    
    68   33  157 1    
    69   33  158 1    
    70   34   35 am   BACKBONE|DICT|INTERRES
    71   34  159 1    
    72   35   36 2    
    73   35   37 1    
    74   37   38 1    
    75   37   39 1    
    76   37  160 1    
    77   38  161 1    
    78   38  162 1    
    79   38  163 1    
    80   39   40 am   BACKBONE|DICT|INTERRES
    81   39  164 1    
    82   40   41 2    
    83   40   42 1    
    84   42   43 1    
    85   42   44 1    
    86   42  165 1    
    87   43  166 1    
    88   43  167 1    
    89   43  168 1    
    90   44   45 am   BACKBONE|DICT|INTERRES
    91   44  169 1    
    92   45   46 2    
    93   45   47 1    
    94   47   48 1    
    95   47   49 1    
    96   47  170 1    
    97   48  171 1    
    98   48  172 1    
    99   48  173 1    
   100   49   50 am   BACKBONE|DICT|INTERRES
   101   49  174 1    
   102   50   51 2    
   103   50   52 1    
   104   52   53 1    
   105   52   54 1    
   106   52  175 1    
   107   53  176 1    
   108   53  177 1    
   109   53  178 1    
   110   54   55 am   BACKBONE|DICT|INTERRES
   111   54  179 1    
   112   55   56 2    
   113   55   57 1    
   114   57   58 1    
   115   57   59 1    
   116   57  180 1    
   117   58  181 1    
   118   58  182 1    
   119   58  183 1    
   120   59   60 am   BACKBONE|DICT|INTERRES
   121   59  184 1    
   122   60   61 2    
   123   60   62 1    
   124   62   63 1    
   125   62   64 1    
   126   62  185 1    
   127   63  186 1    
   128   63  187 1    
   129   63  188 1    
   130   64   65 am   BACKBONE|DICT|INTERRES
   131   64  189 1    
   132   65   66 2    
   133   67   68 2    
   134   67   69 am   BACKBONE|DICT|INTERRES
   135   69   70 1    
   136   69  190 1    
   137   70   71 1    
   138   70   72 1    
   139   70  191 1    
   140   71  192 1    
   141   71  193 1    
   142   71  194 1    
   143   72   73 2    
   144   72   74 am   BACKBONE|DICT|INTERRES
   145   74   75 1    
   146   74  195 1    
   147   75   76 1    
   148   75   77 1    
   149   75  196 1    
   150   76  197 1    
   151   76  198 1    
   152   76  199 1    
   153   77   78 2    
   154   77   79 am   BACKBONE|DICT|INTERRES
   155   79   80 1    
   156   79  200 1    
   157   80   81 1    
   158   80   82 1    
   159   80  201 1    
   160   81  202 1    
   161   81  203 1    
   162   81  204 1    
   163   82   83 2    
   164   82   84 am   BACKBONE|DICT|INTERRES
   165   84   85 1    
   166   84  205 1    
   167   85   86 1    
   168   85   87 1    
   169   85  206 1    
   170   86  207 1    
   171   86  208 1    
   172   86  209 1    
   173   87   88 2    
   174   87   89 am   BACKBONE|DICT|INTERRES
   175   89   90 1    
   176   89  210 1    
   177   90   91 1    
   178   90   92 1    
   179   90  211 1    
   180   91  212 1    
   181   91  213 1    
   182   91  214 1    
   183   92   93 2    
   184   92   94 am   BACKBONE|DICT|INTERRES
   185   94   95 1    
   186   94  215 1    
   187   95   96 1    
   188   95   97 1    
   189   95  216 1    
   190   96  217 1    
   191   96  218 1    
   192   96  219 1    
   193   97   98 2    
   194   97   99 am   BACKBONE|DICT|INTERRES
   195   99  100 1    
   196   99  220 1    
   197  100  101 1    
   198  100  102 1    
   199  100  221 1    
   200  101  222 1    
   201  101  223 1    
   202  101  224 1    
   203  102  103 2    
   204  102  104 am   BACKBONE|DICT|INTERRES
   205  104  105 1    
   206  104  225 1    
   207  105  106 1    
   208  105  107 1    
   209  105  226 1    
   210  106  227 1    
   211  106  228 1    
   212  106  229 1    
   213  107  108 2    
   214  107  109 am   BACKBONE|DICT|INTERRES
   215  109  110 1    
   216  109  230 1    
   217  110  111 1    
   218  110  112 1    
   219  110  231 1    
   220  111  232 1    
   221  111  233 1    
   222  111  234 1    
   223  112  113 2    
   224  112  114 am   BACKBONE|DICT|INTERRES
   225  114  115 1    
   226  114  235 1    
   227  115  116 1    
   228  115  117 1    
   229  115  236 1    
   230  116  237 1    
   231  116  238 1    
   232  116  239 1    
   233  117  118 2    
   234  117  119 am   BACKBONE|DICT|INTERRES
   235  119  120 1    
   236  119  240 1    
   237  120  121 1    
   238  120  124 1    
   239  120  241 1    
   240  121  122 am   BACKBONE|DICT|INTERRES
   241  121  123 2    
   242  122  242 1    
   243  122  243 1    
   244  124  125 1    
   245  124  244 1    
   246  124  245 1    
   247  125  126 1    
   248  126  246 1    
   249  126  247 1    
@<TRIPOS>SUBSTRUCTURE
     1 UNK         1 GROUP             0       ****    0 ROOT    
