@<TRIPOS>MOLECULE
3R540
247   249    1
SMALL
USER_CHARGES


@<TRIPOS>ATOM
      1 CA          5.2341  -17.1498  -45.0932 C.3       0 UNK        -0.1800 
      2 C           4.8518  -15.9730  -45.9800 C.2       0 UNK         0.5000 
      3 O           5.7179  -15.4001  -46.6399 O.2       0 UNK        -0.5000 
      4 N           3.5579  -15.6269  -46.0026 N.am      1 UNK        -0.5000 
      5 CA          2.9639  -14.5517  -46.8050 C.3       1 UNK         0.1400 
      6 C6          3.1940  -14.7335  -48.3347 C.3       23 UNK        -0.0398 
      7 S7          1.7992  -14.0952  -49.3233 S.3       23 UNK        -0.2404 
      8 C8          0.7014  -15.5454  -49.3295 C.3       23 UNK        -0.0205 
      9 C9          0.8458  -16.3822  -50.5915 C.ar      23 UNK        -0.0193 
     10 C10        -0.0755  -16.2323  -51.6330 C.ar      23 UNK        -0.1150 
     11 C11         0.0251  -17.0100  -52.7896 C.ar      23 UNK        -0.0193 
     12 C12         1.0672  -17.9319  -52.9057 C.ar      23 UNK        -0.1150 
     13 C13         1.9828  -18.1083  -51.8647 C.ar      23 UNK        -0.0193 
     14 C14         1.8713  -17.3271  -50.7107 C.ar      23 UNK        -0.1150 
     15 C15         3.0756  -19.1619  -51.9932 C.3       23 UNK        -0.0205 
     16 S16         2.8420  -20.5949  -50.8834 S.3       23 UNK        -0.2404 
     17 C17         1.0712  -21.0221  -51.0832 C.3       23 UNK        -0.0398 
     18 CA          0.3103  -21.1331  -49.7353 C.3       11 UNK         0.1400 
     19 N           0.6783  -20.0885  -48.7682 N.am      11 UNK        -0.5000 
     20 C           0.3260  -20.0967  -47.4768 C.2       10 UNK         0.5000 
     21 O          -0.3981  -20.9585  -46.9746 O.2       10 UNK        -0.5000 
     22 CA          0.7872  -18.8984  -46.6302 C.3       10 UNK         0.1400 
     23 CB         -0.3176  -17.8309  -46.6208 C.3       10 UNK        -0.1800 
     24 N           1.0806  -19.2649  -45.2467 N.am      10 UNK        -0.5000 
     25 C           1.9899  -20.1616  -44.8393 C.2       9 UNK         0.5000 
     26 O           2.7596  -20.7461  -45.6030 O.2       9 UNK        -0.5000 
     27 CA          2.0741  -20.4454  -43.3242 C.3       9 UNK         0.1400 
     28 CB          3.4625  -20.0840  -42.7735 C.3       9 UNK        -0.1800 
     29 N           1.0635  -19.7231  -42.5483 N.am      9 UNK        -0.5000 
     30 C          -0.1908  -20.1414  -42.3308 C.2       8 UNK         0.5000 
     31 O          -0.6311  -21.2195  -42.7281 O.2       8 UNK        -0.5000 
     32 CA         -1.1121  -19.1849  -41.5515 C.3       8 UNK         0.1400 
     33 CB         -1.1445  -19.5589  -40.0618 C.3       8 UNK        -0.1800 
     34 N          -0.6935  -17.7877  -41.6914 N.am      8 UNK        -0.5000 
     35 C          -1.0283  -17.0048  -42.7279 C.2       7 UNK         0.5000 
     36 O          -1.7706  -17.3684  -43.6380 O.2       7 UNK        -0.5000 
     37 CA         -0.4246  -15.5879  -42.7738 C.3       7 UNK         0.1400 
     38 CB         -1.3748  -14.5881  -42.0975 C.3       7 UNK        -0.1800 
     39 N           0.8930  -15.5087  -42.1433 N.am      7 UNK        -0.5000 
     40 C           2.0044  -16.0869  -42.6212 C.2       6 UNK         0.5000 
     41 O           2.0496  -16.6682  -43.7057 O.2       6 UNK        -0.5000 
     42 CA          3.2786  -16.0350  -41.7494 C.3       6 UNK         0.1400 
     43 CB          4.1980  -14.9068  -42.2307 C.3       6 UNK        -0.1800 
     44 N           3.0394  -15.8222  -40.3240 N.am      6 UNK        -0.5000 
     45 C           2.2298  -16.5169  -39.5146 C.2       5 UNK         0.5000 
     46 O           1.6605  -17.5573  -39.8448 O.2       5 UNK        -0.5000 
     47 CA          1.9480  -15.8823  -38.1344 C.3       5 UNK         0.1400 
     48 CB          2.7747  -16.5799  -37.0445 C.3       5 UNK        -0.1800 
     49 N           2.2075  -14.4330  -38.0833 N.am      5 UNK        -0.5000 
     50 C           1.6170  -13.5077  -38.8578 C.2       4 UNK         0.5000 
     51 O           0.7307  -13.7906  -39.6664 O.2       4 UNK        -0.5000 
     52 CA          2.1428  -12.0563  -38.7480 C.3       4 UNK         0.1400 
     53 CB          3.6434  -11.9886  -38.4001 C.3       4 UNK        -0.1800 
     54 N           1.9303  -11.3069  -39.9890 N.am      4 UNK        -0.5000 
     55 C           0.7837  -10.7179  -40.3518 C.2       3 UNK         0.5000 
     56 O          -0.2179  -10.6807  -39.6346 O.2       3 UNK        -0.5000 
     57 CA          0.7417  -10.0235  -41.7311 C.3       3 UNK         0.1400 
     58 CB          0.6939   -8.4963  -41.5593 C.3       3 UNK        -0.1800 
     59 N           1.8444  -10.3523  -42.6446 N.am      3 UNK        -0.5000 
     60 C           2.0133  -11.5334  -43.2516 C.2       2 UNK         0.5000 
     61 O           1.3290  -12.5284  -43.0092 O.2       2 UNK        -0.5000 
     62 CA          3.1134  -11.6129  -44.3232 C.3       2 UNK         0.1400 
     63 CB          4.5260  -11.4251  -43.7387 C.3       2 UNK        -0.1800 
     64 N           3.0044  -12.9035  -44.9995 N.am      2 UNK        -0.5000 
     65 C           3.3511  -13.1542  -46.2665 C.2       1 UNK         0.5000 
     66 O           3.9368  -12.3390  -46.9818 O.2       1 UNK        -0.5000 
     67 C          -1.2160  -21.1833  -49.9692 C.2       11 UNK         0.5000 
     68 O          -1.7617  -22.2554  -50.2273 O.2       11 UNK        -0.5000 
     69 N          -1.8736  -20.0217  -49.8313 N.am      12 UNK        -0.5000 
     70 CA         -3.3249  -19.8605  -49.8588 C.3       12 UNK         0.1400 
     71 CB         -3.6632  -18.3623  -49.8966 C.3       12 UNK        -0.1800 
     72 C          -4.0148  -20.5302  -48.6574 C.2       12 UNK         0.5000 
     73 O          -5.0364  -21.1913  -48.8376 O.2       12 UNK        -0.5000 
     74 N          -3.4294  -20.3648  -47.4619 N.am      13 UNK        -0.5000 
     75 CA         -3.9069  -20.9535  -46.2082 C.3       13 UNK         0.1400 
     76 CB         -3.2418  -20.2428  -45.0192 C.3       13 UNK        -0.1800 
     77 C          -3.6590  -22.4706  -46.1513 C.2       13 UNK         0.5000 
     78 O          -4.5072  -23.2095  -45.6508 O.2       13 UNK        -0.5000 
     79 N          -2.5222  -22.9083  -46.7097 N.am      14 UNK        -0.5000 
     80 CA         -2.1719  -24.3150  -46.9133 C.3       14 UNK         0.1400 
     81 CB         -0.6792  -24.4045  -47.2658 C.3       14 UNK        -0.1800 
     82 C          -3.0207  -25.0051  -48.0027 C.2       14 UNK         0.5000 
     83 O          -3.0552  -26.2353  -48.0428 O.2       14 UNK        -0.5000 
     84 N          -3.6754  -24.2045  -48.8582 N.am      15 UNK        -0.5000 
     85 CA         -4.4934  -24.5884  -50.0098 C.3       15 UNK         0.1400 
     86 CB         -5.7681  -25.3305  -49.5599 C.3       15 UNK        -0.1800 
     87 C          -3.6725  -25.3582  -51.0616 C.2       15 UNK         0.5000 
     88 O          -4.0676  -26.4425  -51.4947 O.2       15 UNK        -0.5000 
     89 N          -2.5303  -24.7755  -51.4497 N.am      16 UNK        -0.5000 
     90 CA         -1.5757  -25.3197  -52.4184 C.3       16 UNK         0.1400 
     91 CB         -0.3804  -24.3625  -52.5253 C.3       16 UNK        -0.1800 
     92 C          -2.1696  -25.5983  -53.8145 C.2       16 UNK         0.5000 
     93 O          -1.7346  -26.5428  -54.4743 O.2       16 UNK        -0.5000 
     94 N          -3.1622  -24.7978  -54.2229 N.am      17 UNK        -0.5000 
     95 CA         -3.9330  -24.9661  -55.4563 C.3       17 UNK         0.1400 
     96 CB         -3.9070  -23.6492  -56.2501 C.3       17 UNK        -0.1800 
     97 C          -5.3727  -25.4383  -55.1641 C.2       17 UNK         0.5000 
     98 O          -6.2610  -25.2284  -55.9925 O.2       17 UNK        -0.5000 
     99 N          -5.5882  -26.0660  -53.9970 N.am      18 UNK        -0.5000 
    100 CA        -6.8536  -26.6169  -53.5060 C.3       18 UNK         0.1400 
    101 CB        -7.2382  -27.8768  -54.3144 C.3       18 UNK        -0.1800 
    102 C         -7.9549  -25.5389  -53.4443 C.2       18 UNK         0.5000 
    103 O         -7.7888  -24.5519  -52.7258 O.2       18 UNK        -0.5000 
    104 N         -9.0363  -25.7187  -54.2147 N.am      19 UNK        -0.5000 
    105 CA       -10.1736  -24.8006  -54.3178 C.3       19 UNK         0.1400 
    106 CB       -11.2664  -25.4597  -55.1732 C.3       19 UNK        -0.1800 
    107 C         -9.8179  -23.4077  -54.8777 C.2       19 UNK         0.5000 
    108 O        -10.5444  -22.4509  -54.6072 O.2       19 UNK        -0.5000 
    109 N         -8.7067  -23.3058  -55.6212 N.am      20 UNK        -0.5000 
    110 CA        -8.1651  -22.0455  -56.1338 C.3       20 UNK         0.1400 
    111 CB        -7.4488  -22.3142  -57.4673 C.3       20 UNK        -0.1800 
    112 C         -7.2296  -21.3401  -55.1286 C.2       20 UNK         0.5000 
    113 O         -6.6706  -20.2969  -55.4732 O.2       20 UNK        -0.5000 
    114 N         -7.0596  -21.9113  -53.9242 N.am      21 UNK        -0.5000 
    115 CA        -6.2083  -21.4698  -52.8157 C.3       21 UNK         0.1400 
    116 CB        -6.6499  -20.0966  -52.2683 C.3       21 UNK        -0.1800 
    117 C         -4.7183  -21.5223  -53.1884 C.2       21 UNK         0.5000 
    118 O         -4.0448  -22.4892  -52.8373 O.2       21 UNK        -0.5000 
    119 N         -4.2476  -20.5135  -53.9240 N.am      22 UNK        -0.5000 
    120 CA        -2.9035  -20.4283  -54.5092 C.3       22 UNK         0.1400 
    121 C         -2.9102  -20.0719  -56.0252 C.2       22 UNK         0.5000 
    122 N         -4.0588  -19.9516  -56.6832 N.am      22 UNK        -0.7600 
    123 O         -1.8498  -19.9267  -56.6268 O.2       22 UNK        -0.5000 
    124 C124       -1.9674  -19.5190  -53.6738 C.3       23 UNK        -0.0398 
    125 S125       -2.5268  -17.7810  -53.5529 S.3       23 UNK        -0.2404 
    126 C126       -0.9954  -16.8613  -53.9091 C.3       23 UNK        -0.0205 
    127 H127        5.8572  -17.8515  -45.6477 H         1 UNK         0.0600 
    128 H128        4.3545  -17.6894  -44.7444 H         1 UNK         0.0600 
    129 H129        5.7961  -16.8053  -44.2254 H         1 UNK         0.0600 
    130 H130        2.9175  -16.1139  -45.3810 H         1 UNK         0.3000 
    131 H131        1.8929  -14.6494  -46.6195 H         1 UNK         0.0600 
    132 H132        4.1186  -14.2584  -48.6663 H         1 UNK         0.0800 
    133 H133        3.3226  -15.7886  -48.5724 H         1 UNK         0.0800 
    134 H134        0.9121  -16.1581  -48.4556 H         1 UNK         0.0800 
    135 H135       -0.3295  -15.2048  -49.2200 H         1 UNK         0.0800 
    136 H136       -0.8803  -15.5163  -51.5415 H         1 UNK         0.1150 
    137 H137        1.1528  -18.5318  -53.8007 H         1 UNK         0.1150 
    138 H138        2.5803  -17.4649  -49.9078 H         1 UNK         0.1150 
    139 H139        3.1369  -19.5260  -53.0200 H         1 UNK         0.0800 
    140 H140        4.0418  -18.7036  -51.7782 H         1 UNK         0.0800 
    141 H141        1.0228  -21.9742  -51.6115 H         1 UNK         0.0800 
    142 H142        0.5829  -20.3076  -51.7430 H         1 UNK         0.0800 
    143 H143        0.5948  -22.0858  -49.2848 H         1 UNK         0.0600 
    144 H144        1.2870  -19.3642  -49.1201 H         1 UNK         0.3000 
    145 H145        1.6933  -18.4775  -47.0705 H         1 UNK         0.0600 
    146 H146        0.0213  -16.9140  -46.1374 H         1 UNK         0.0600 
    147 H147       -1.2029  -18.1804  -46.0896 H         1 UNK         0.0600 
    148 H148       -0.6403  -17.5766  -47.6302 H         1 UNK         0.0600 
    149 H149        0.5072  -18.8299  -44.5402 H         1 UNK         0.3000 
    150 H150        1.9275  -21.5190  -43.1889 H         1 UNK         0.0600 
    151 H151        4.2448  -20.6558  -43.2743 H         1 UNK         0.0600 
    152 H152        3.5345  -20.3009  -41.7075 H         1 UNK         0.0600 
    153 H153        3.6867  -19.0288  -42.9175 H         1 UNK         0.0600 
    154 H154        1.3372  -18.8255  -42.1757 H         1 UNK         0.3000 
    155 H155       -2.1233  -19.2993  -41.9485 H         1 UNK         0.0600 
    156 H156       -1.5139  -20.5760  -39.9248 H         1 UNK         0.0600 
    157 H157       -1.8041  -18.8954  -39.5024 H         1 UNK         0.0600 
    158 H158       -0.1539  -19.5082  -39.6090 H         1 UNK         0.0600 
    159 H159       -0.0464  -17.4384  -40.9931 H         1 UNK         0.3000 
    160 H160       -0.3165  -15.3030  -43.8224 H         1 UNK         0.0600 
    161 H161       -1.5198  -14.8231  -41.0424 H         1 UNK         0.0600 
    162 H162       -2.3553  -14.5958  -42.5750 H         1 UNK         0.0600 
    163 H163       -0.9907  -13.5702  -42.1609 H         1 UNK         0.0600 
    164 H164        0.9398  -14.9852  -41.2744 H         1 UNK         0.3000 
    165 H165        3.7997  -16.9857  -41.8628 H         1 UNK         0.0600 
    166 H166        5.1704  -14.9500  -41.7398 H         1 UNK         0.0600 
    167 H167        4.3745  -14.9560  -43.3033 H         1 UNK         0.0600 
    168 H168        3.7553  -13.9346  -42.0161 H         1 UNK         0.0600 
    169 H169        3.4542  -14.9894  -39.9350 H         1 UNK         0.3000 
    170 H170        0.8893  -16.0383  -37.9176 H         1 UNK         0.0600 
    171 H171        3.8450  -16.4356  -37.1970 H         1 UNK         0.0600 
    172 H172        2.5215  -16.2018  -36.0539 H         1 UNK         0.0600 
    173 H173        2.5857  -17.6543  -37.0383 H         1 UNK         0.0600 
    174 H174        2.9255  -14.1331  -37.4396 H         1 UNK         0.3000 
    175 H175        1.5871  -11.5728  -37.9422 H         1 UNK         0.0600 
    176 H176        4.2515  -12.5351  -39.1224 H         1 UNK         0.0600 
    177 H177        3.9948  -10.9565  -38.3865 H         1 UNK         0.0600 
    178 H178        3.8469  -12.3996  -37.4108 H         1 UNK         0.0600 
    179 H179        2.6884  -11.3050  -40.6538 H         1 UNK         0.3000 
    180 H180       -0.1886  -10.3371  -42.2097 H         1 UNK         0.0600 
    181 H181        0.5614   -7.9942  -42.5179 H         1 UNK         0.0600 
    182 H182        1.6081   -8.1153  -41.1025 H         1 UNK         0.0600 
    183 H183       -0.1399   -8.1975  -40.9224 H         1 UNK         0.0600 
    184 H184        2.4582   -9.5882  -42.8885 H         1 UNK         0.3000 
    185 H185        2.9175  -10.8168  -45.0447 H         1 UNK         0.0600 
    186 H186        5.2844  -11.4860  -44.5193 H         1 UNK         0.0600 
    187 H187        4.6313  -10.4473  -43.2678 H         1 UNK         0.0600 
    188 H188        4.7660  -12.1754  -42.9880 H         1 UNK         0.0600 
    189 H189        2.4687  -13.5865  -44.4784 H         1 UNK         0.3000 
    190 H190       -1.3326  -19.1920  -49.6402 H         1 UNK         0.3000 
    191 H191       -3.6982  -20.3269  -50.7707 H         1 UNK         0.0600 
    192 H192       -3.3217  -17.8469  -48.9980 H         1 UNK         0.0600 
    193 H193       -4.7396  -18.2059  -49.9748 H         1 UNK         0.0600 
    194 H194       -3.2017  -17.8718  -50.7518 H         1 UNK         0.0600 
    195 H195       -2.5602  -19.8556  -47.4128 H         1 UNK         0.3000 
    196 H196       -4.9845  -20.7890  -46.1416 H         1 UNK         0.0600 
    197 H197       -3.4654  -19.1760  -45.0213 H         1 UNK         0.0600 
    198 H198       -2.1576  -20.3574  -45.0308 H         1 UNK         0.0600 
    199 H199       -3.6002  -20.6473  -44.0719 H         1 UNK         0.0600 
    200 H200       -1.8375  -22.2199  -47.0114 H         1 UNK         0.3000 
    201 H201       -2.3374  -24.8477  -45.9748 H         1 UNK         0.0600 
    202 H202       -0.0620  -23.9235  -46.5064 H         1 UNK         0.0600 
    203 H203       -0.4666  -23.9285  -48.2230 H         1 UNK         0.0600 
    204 H204       -0.3567  -25.4438  -47.3388 H         1 UNK         0.0600 
    205 H205       -3.5379  -23.2094  -48.7478 H         1 UNK         0.3000 
    206 H206       -4.8079  -23.6576  -50.4833 H         1 UNK         0.0600 
    207 H207       -5.5418  -26.3019  -49.1196 H         1 UNK         0.0600 
    208 H208       -6.3215  -24.7481  -48.8233 H         1 UNK         0.0600 
    209 H209       -6.4356  -25.5012  -50.4046 H         1 UNK         0.0600 
    210 H210       -2.2983  -23.8682  -51.0508 H         1 UNK         0.3000 
    211 H211       -1.2178  -26.2715  -52.0213 H         1 UNK         0.0600 
    212 H212       -0.6916  -23.3737  -52.8654 H         1 UNK         0.0600 
    213 H213        0.3628  -24.7368  -53.2305 H         1 UNK         0.0600 
    214 H214        0.1147  -24.2481  -51.5609 H         1 UNK         0.0600 
    215 H215       -3.4541  -24.0356  -53.6120 H         1 UNK         0.3000 
    216 H216       -3.4782  -25.7351  -56.0831 H         1 UNK         0.0600 
    217 H217       -4.3212  -23.7889  -57.2488 H         1 UNK         0.0600 
    218 H218       -2.8887  -23.2812  -56.3747 H         1 UNK         0.0600 
    219 H219       -4.4904  -22.8710  -55.7604 H         1 UNK         0.0600 
    220 H220       -4.8099  -26.1614  -53.3530 H         1 UNK         0.3000 
    221 H221       -6.6771  -26.9294  -52.4761 H         1 UNK         0.0600 
    222 H222       -7.4112  -27.6574  -55.3685 H         1 UNK         0.0600 
    223 H223       -6.4463  -28.6242  -54.2627 H         1 UNK         0.0600 
    224 H224       -8.1400  -28.3427  -53.9151 H         1 UNK         0.0600 
    225 H225       -9.0735  -26.5434  -54.7960 H         1 UNK         0.3000 
    226 H226      -10.5701  -24.6522  -53.3112 H         1 UNK         0.0600 
    227 H227      -11.5925  -26.4048  -54.7386 H         1 UNK         0.0600 
    228 H228      -12.1457  -24.8182  -55.2476 H         1 UNK         0.0600 
    229 H229      -10.9177  -25.6575  -56.1876 H         1 UNK         0.0600 
    230 H230       -8.1416  -24.1330  -55.7800 H         1 UNK         0.3000 
    231 H231       -8.9869  -21.3560  -56.3371 H         1 UNK         0.0600 
    232 H232       -7.0901  -21.3871  -57.9160 H         1 UNK         0.0600 
    233 H233       -8.1200  -22.7822  -58.1874 H         1 UNK         0.0600 
    234 H234       -6.5882  -22.9685  -57.3391 H         1 UNK         0.0600 
    235 H235       -7.5330  -22.7917  -53.7518 H         1 UNK         0.3000 
    236 H236       -6.3548  -22.1969  -52.0153 H         1 UNK         0.0600 
    237 H237       -6.5600  -19.2985  -53.0051 H         1 UNK         0.0600 
    238 H238       -7.6890  -20.1265  -51.9404 H         1 UNK         0.0600 
    239 H239       -6.0496  -19.8130  -51.4042 H         1 UNK         0.0600 
    240 H240       -4.8938  -19.7896  -54.2096 H         1 UNK         0.3000 
    241 H241       -2.4638  -21.4271  -54.4880 H         1 UNK         0.0600 
    242 H242       -4.0346  -19.7264  -57.6647 H         1 UNK         0.3800 
    243 H243       -4.9567  -20.0802  -56.2262 H         1 UNK         0.3800 
    244 H244       -0.9588  -19.5583  -54.0845 H         1 UNK         0.0800 
    245 H245       -1.8866  -19.9150  -52.6626 H         1 UNK         0.0800 
    246 H246       -0.5805  -17.1962  -54.8612 H         1 UNK         0.0800 
    247 H247       -1.2403  -15.8061  -54.0386 H         1 UNK         0.0800 
@<TRIPOS>BOND
     1    1    2 1    
     2    1  127 1    
     3    1  128 1    
     4    1  129 1    
     5    2    3 2    
     6    2    4 am   BACKBONE|DICT|INTERRES
     7    4    5 1    
     8    4  130 1    
     9    5    6 1    
    10    5   65 1    
    11    5  131 1    
    12    6    7 1    
    13    6  132 1    
    14    6  133 1    
    15    7    8 1    
    16    8    9 1    
    17    8  134 1    
    18    8  135 1    
    19    9   10 ar   
    20    9   14 ar   
    21   10   11 ar   
    22   10  136 1    
    23   11   12 ar   
    24   11  126 1    
    25   12   13 ar   
    26   12  137 1    
    27   13   14 ar   
    28   13   15 1    
    29   14  138 1    
    30   15   16 1    
    31   15  139 1    
    32   15  140 1    
    33   16   17 1    
    34   17   18 1    
    35   17  141 1    
    36   17  142 1    
    37   18   19 1    
    38   18   67 1    
    39   18  143 1    
    40   19   20 am   BACKBONE|DICT|INTERRES
    41   19  144 1    
    42   20   21 2    
    43   20   22 1    
    44   22   23 1    
    45   22   24 1    
    46   22  145 1    
    47   23  146 1    
    48   23  147 1    
    49   23  148 1    
    50   24   25 am   BACKBONE|DICT|INTERRES
    51   24  149 1    
    52   25   26 2    
    53   25   27 1    
    54   27   28 1    
    55   27   29 1    
    56   27  150 1    
    57   28  151 1    
    58   28  152 1    
    59   28  153 1    
    60   29   30 am   BACKBONE|DICT|INTERRES
    61   29  154 1    
    62   30   31 2    
    63   30   32 1    
    64   32   33 1    
    65   32   34 1    
    66   32  155 1    
    67   33  156 1    
    68   33  157 1    
    69   33  158 1    
    70   34   35 am   BACKBONE|DICT|INTERRES
    71   34  159 1    
    72   35   36 2    
    73   35   37 1    
    74   37   38 1    
    75   37   39 1    
    76   37  160 1    
    77   38  161 1    
    78   38  162 1    
    79   38  163 1    
    80   39   40 am   BACKBONE|DICT|INTERRES
    81   39  164 1    
    82   40   41 2    
    83   40   42 1    
    84   42   43 1    
    85   42   44 1    
    86   42  165 1    
    87   43  166 1    
    88   43  167 1    
    89   43  168 1    
    90   44   45 am   BACKBONE|DICT|INTERRES
    91   44  169 1    
    92   45   46 2    
    93   45   47 1    
    94   47   48 1    
    95   47   49 1    
    96   47  170 1    
    97   48  171 1    
    98   48  172 1    
    99   48  173 1    
   100   49   50 am   BACKBONE|DICT|INTERRES
   101   49  174 1    
   102   50   51 2    
   103   50   52 1    
   104   52   53 1    
   105   52   54 1    
   106   52  175 1    
   107   53  176 1    
   108   53  177 1    
   109   53  178 1    
   110   54   55 am   BACKBONE|DICT|INTERRES
   111   54  179 1    
   112   55   56 2    
   113   55   57 1    
   114   57   58 1    
   115   57   59 1    
   116   57  180 1    
   117   58  181 1    
   118   58  182 1    
   119   58  183 1    
   120   59   60 am   BACKBONE|DICT|INTERRES
   121   59  184 1    
   122   60   61 2    
   123   60   62 1    
   124   62   63 1    
   125   62   64 1    
   126   62  185 1    
   127   63  186 1    
   128   63  187 1    
   129   63  188 1    
   130   64   65 am   BACKBONE|DICT|INTERRES
   131   64  189 1    
   132   65   66 2    
   133   67   68 2    
   134   67   69 am   BACKBONE|DICT|INTERRES
   135   69   70 1    
   136   69  190 1    
   137   70   71 1    
   138   70   72 1    
   139   70  191 1    
   140   71  192 1    
   141   71  193 1    
   142   71  194 1    
   143   72   73 2    
   144   72   74 am   BACKBONE|DICT|INTERRES
   145   74   75 1    
   146   74  195 1    
   147   75   76 1    
   148   75   77 1    
   149   75  196 1    
   150   76  197 1    
   151   76  198 1    
   152   76  199 1    
   153   77   78 2    
   154   77   79 am   BACKBONE|DICT|INTERRES
   155   79   80 1    
   156   79  200 1    
   157   80   81 1    
   158   80   82 1    
   159   80  201 1    
   160   81  202 1    
   161   81  203 1    
   162   81  204 1    
   163   82   83 2    
   164   82   84 am   BACKBONE|DICT|INTERRES
   165   84   85 1    
   166   84  205 1    
   167   85   86 1    
   168   85   87 1    
   169   85  206 1    
   170   86  207 1    
   171   86  208 1    
   172   86  209 1    
   173   87   88 2    
   174   87   89 am   BACKBONE|DICT|INTERRES
   175   89   90 1    
   176   89  210 1    
   177   90   91 1    
   178   90   92 1    
   179   90  211 1    
   180   91  212 1    
   181   91  213 1    
   182   91  214 1    
   183   92   93 2    
   184   92   94 am   BACKBONE|DICT|INTERRES
   185   94   95 1    
   186   94  215 1    
   187   95   96 1    
   188   95   97 1    
   189   95  216 1    
   190   96  217 1    
   191   96  218 1    
   192   96  219 1    
   193   97   98 2    
   194   97   99 am   BACKBONE|DICT|INTERRES
   195   99  100 1    
   196   99  220 1    
   197  100  101 1    
   198  100  102 1    
   199  100  221 1    
   200  101  222 1    
   201  101  223 1    
   202  101  224 1    
   203  102  103 2    
   204  102  104 am   BACKBONE|DICT|INTERRES
   205  104  105 1    
   206  104  225 1    
   207  105  106 1    
   208  105  107 1    
   209  105  226 1    
   210  106  227 1    
   211  106  228 1    
   212  106  229 1    
   213  107  108 2    
   214  107  109 am   BACKBONE|DICT|INTERRES
   215  109  110 1    
   216  109  230 1    
   217  110  111 1    
   218  110  112 1    
   219  110  231 1    
   220  111  232 1    
   221  111  233 1    
   222  111  234 1    
   223  112  113 2    
   224  112  114 am   BACKBONE|DICT|INTERRES
   225  114  115 1    
   226  114  235 1    
   227  115  116 1    
   228  115  117 1    
   229  115  236 1    
   230  116  237 1    
   231  116  238 1    
   232  116  239 1    
   233  117  118 2    
   234  117  119 am   BACKBONE|DICT|INTERRES
   235  119  120 1    
   236  119  240 1    
   237  120  121 1    
   238  120  124 1    
   239  120  241 1    
   240  121  122 am   BACKBONE|DICT|INTERRES
   241  121  123 2    
   242  122  242 1    
   243  122  243 1    
   244  124  125 1    
   245  124  244 1    
   246  124  245 1    
   247  125  126 1    
   248  126  246 1    
   249  126  247 1    
@<TRIPOS>SUBSTRUCTURE
     1 UNK         1 GROUP             0       ****    0 ROOT    
