@<TRIPOS>MOLECULE
3R540
247   249    1
SMALL
USER_CHARGES


@<TRIPOS>ATOM
      1 CA         -4.6918  -16.3008  -41.9873 C.3       0 UNK        -0.1800 
      2 C          -4.3402  -15.1852  -42.9611 C.2       0 UNK         0.5000 
      3 O          -4.7582  -14.0431  -42.7660 O.2       0 UNK        -0.5000 
      4 N          -3.5662  -15.5048  -44.0046 N.am      1 UNK        -0.5000 
      5 CA         -3.0702  -14.5690  -45.0159 C.3       1 UNK         0.1400 
      6 C6         -2.8001  -15.2950  -46.3566 C.3       23 UNK        -0.0398 
      7 S7         -2.5047  -14.1323  -47.7333 S.3       23 UNK        -0.2404 
      8 C8         -0.9425  -14.7774  -48.4069 C.3       23 UNK        -0.0205 
      9 C9         -1.1823  -15.9875  -49.2974 C.ar      23 UNK        -0.0193 
     10 C10        -1.6711  -15.8037  -50.5942 C.ar      23 UNK        -0.1150 
     11 C11        -1.9098  -16.8994  -51.4273 C.ar      23 UNK        -0.0193 
     12 C12        -1.6421  -18.1876  -50.9580 C.ar      23 UNK        -0.1150 
     13 C13        -1.1419  -18.3869  -49.6671 C.ar      23 UNK        -0.0193 
     14 C14        -0.9176  -17.2823  -48.8377 C.ar      23 UNK        -0.1150 
     15 C15        -0.8168  -19.7952  -49.1907 C.3       23 UNK        -0.0205 
     16 S16        -2.3132  -20.8062  -48.9517 S.3       23 UNK        -0.2404 
     17 C17        -2.8392  -20.3052  -47.2776 C.3       23 UNK        -0.0398 
     18 CA         -2.4781  -21.3670  -46.2071 C.3       11 UNK         0.1400 
     19 N          -2.2743  -20.7486  -44.8902 N.am      11 UNK        -0.5000 
     20 C          -1.7890  -21.3510  -43.7958 C.2       10 UNK         0.5000 
     21 O          -1.5335  -22.5549  -43.7499 O.2       10 UNK        -0.5000 
     22 CA         -1.5675  -20.4573  -42.5540 C.3       10 UNK         0.1400 
     23 CB         -0.9430  -21.2275  -41.3770 C.3       10 UNK        -0.1800 
     24 N          -0.7199  -19.3038  -42.8532 N.am      10 UNK        -0.5000 
     25 C          -1.0828  -18.2173  -43.5467 C.2       9 UNK         0.5000 
     26 O          -2.2252  -18.0179  -43.9644 O.2       9 UNK        -0.5000 
     27 CA          0.0332  -17.2173  -43.8818 C.3       9 UNK         0.1400 
     28 CB          0.2328  -16.2429  -42.7128 C.3       9 UNK        -0.1800 
     29 N           1.3048  -17.8655  -44.2025 N.am      9 UNK        -0.5000 
     30 C           1.5107  -18.7412  -45.1970 C.2       8 UNK         0.5000 
     31 O           0.6371  -19.0919  -45.9879 O.2       8 UNK        -0.5000 
     32 CA          2.9211  -19.3422  -45.3184 C.3       8 UNK         0.1400 
     33 CB          3.8033  -18.4814  -46.2342 C.3       8 UNK        -0.1800 
     34 N           3.5689  -19.4640  -44.0130 N.am      8 UNK        -0.5000 
     35 C           3.5419  -20.5591  -43.2436 C.2       7 UNK         0.5000 
     36 O           3.0012  -21.6146  -43.5740 O.2       7 UNK        -0.5000 
     37 CA          4.2372  -20.4651  -41.8702 C.3       7 UNK         0.1400 
     38 CB          5.6955  -20.9370  -41.9746 C.3       7 UNK        -0.1800 
     39 N           4.2131  -19.1212  -41.2877 N.am      7 UNK        -0.5000 
     40 C           3.1096  -18.5099  -40.8370 C.2       6 UNK         0.5000 
     41 O           1.9861  -19.0143  -40.8700 O.2       6 UNK        -0.5000 
     42 CA          3.2851  -17.0788  -40.2859 C.3       6 UNK         0.1400 
     43 CB          3.7273  -17.1278  -38.8154 C.3       6 UNK        -0.1800 
     44 N           4.1978  -16.1984  -41.0323 N.am      6 UNK        -0.5000 
     45 C           4.2147  -16.0091  -42.3589 C.2       5 UNK         0.5000 
     46 O           3.5970  -16.7114  -43.1591 O.2       5 UNK        -0.5000 
     47 CA          5.0836  -14.8556  -42.8949 C.3       5 UNK         0.1400 
     48 CB          6.5237  -15.3376  -43.1252 C.3       5 UNK        -0.1800 
     49 N           4.5503  -14.3356  -44.1582 N.am      5 UNK        -0.5000 
     50 C           3.3749  -13.7042  -44.2859 C.2       4 UNK         0.5000 
     51 O           2.6823  -13.3551  -43.3263 O.2       4 UNK        -0.5000 
     52 CA          2.8942  -13.4554  -45.7283 C.3       4 UNK         0.1400 
     53 CB          2.4761  -14.7755  -46.3960 C.3       4 UNK        -0.1800 
     54 N           1.7447  -12.5550  -45.7417 N.am      4 UNK        -0.5000 
     55 C           1.8020  -11.2339  -45.9569 C.2       3 UNK         0.5000 
     56 O           2.8321  -10.6352  -46.2699 O.2       3 UNK        -0.5000 
     57 CA          0.4891  -10.4387  -45.7889 C.3       3 UNK         0.1400 
     58 CB         -0.2219  -10.2863  -47.1425 C.3       3 UNK        -0.1800 
     59 N          -0.4321  -11.0646  -44.8410 N.am      3 UNK        -0.5000 
     60 C          -0.2153  -11.1809  -43.5243 C.2       2 UNK         0.5000 
     61 O           0.6888  -10.5864  -42.9356 O.2       2 UNK        -0.5000 
     62 CA         -1.1461  -12.1205  -42.7248 C.3       2 UNK         0.1400 
     63 CB         -1.9154  -11.3397  -41.6468 C.3       2 UNK        -0.1800 
     64 N          -2.1154  -12.8932  -43.5120 N.am      2 UNK        -0.5000 
     65 C          -1.8492  -13.8030  -44.4586 C.2       1 UNK         0.5000 
     66 O          -0.7127  -14.0510  -44.8636 O.2       1 UNK        -0.5000 
     67 C          -3.4879  -22.5396  -46.1842 C.2       11 UNK         0.5000 
     68 O          -3.4171  -23.4297  -47.0332 O.2       11 UNK        -0.5000 
     69 N          -4.3666  -22.5659  -45.1712 N.am      12 UNK        -0.5000 
     70 CA         -5.2803  -23.6671  -44.8628 C.3       12 UNK         0.1400 
     71 CB         -6.1656  -23.2634  -43.6751 C.3       12 UNK        -0.1800 
     72 C          -4.5709  -25.0076  -44.5752 C.2       12 UNK         0.5000 
     73 O          -5.1608  -26.0581  -44.8267 O.2       12 UNK        -0.5000 
     74 N          -3.3087  -24.9666  -44.1173 N.am      13 UNK        -0.5000 
     75 CA         -2.4566  -26.1480  -43.9375 C.3       13 UNK         0.1400 
     76 CB         -1.2103  -25.7604  -43.1277 C.3       13 UNK        -0.1800 
     77 C          -2.0497  -26.8084  -45.2720 C.2       13 UNK         0.5000 
     78 O          -1.7565  -28.0039  -45.2909 O.2       13 UNK        -0.5000 
     79 N          -2.0739  -26.0301  -46.3624 N.am      14 UNK        -0.5000 
     80 CA         -1.8828  -26.4786  -47.7418 C.3       14 UNK         0.1400 
     81 CB         -0.9482  -25.4829  -48.4529 C.3       14 UNK        -0.1800 
     82 C          -3.2325  -26.6037  -48.4806 C.2       14 UNK         0.5000 
     83 O          -3.2467  -26.6469  -49.7113 O.2       14 UNK        -0.5000 
     84 N          -4.3487  -26.6061  -47.7313 N.am      15 UNK        -0.5000 
     85 CA         -5.7426  -26.6471  -48.1939 C.3       15 UNK         0.1400 
     86 CB         -6.0519  -28.0115  -48.8441 C.3       15 UNK        -0.1800 
     87 C          -6.1338  -25.4600  -49.1027 C.2       15 UNK         0.5000 
     88 O          -7.0834  -25.5736  -49.8791 O.2       15 UNK        -0.5000 
     89 N          -5.3780  -24.3543  -49.0073 N.am      16 UNK        -0.5000 
     90 CA         -5.4266  -23.1601  -49.8544 C.3       16 UNK         0.1400 
     91 CB         -6.7409  -22.3837  -49.6369 C.3       16 UNK        -0.1800 
     92 C          -5.1320  -23.4362  -51.3468 C.2       16 UNK         0.5000 
     93 O          -5.4991  -22.6232  -52.1953 O.2       16 UNK        -0.5000 
     94 N          -4.4544  -24.5548  -51.6573 N.am      17 UNK        -0.5000 
     95 CA         -4.1568  -25.0033  -53.0239 C.3       17 UNK         0.1400 
     96 CB         -3.5327  -26.4051  -52.9728 C.3       17 UNK        -0.1800 
     97 C          -3.2514  -24.0389  -53.8139 C.2       17 UNK         0.5000 
     98 O          -3.3427  -23.9776  -55.0408 O.2       17 UNK        -0.5000 
     99 N          -2.4305  -23.2653  -53.0912 N.am      18 UNK        -0.5000 
    100 CA        -1.5717  -22.2074  -53.6218 C.3       18 UNK         0.1400 
    101 CB        -0.6517  -21.7114  -52.5014 C.3       18 UNK        -0.1800 
    102 C         -2.3394  -21.0294  -54.2548 C.2       18 UNK         0.5000 
    103 O         -1.7441  -20.2855  -55.0324 O.2       18 UNK        -0.5000 
    104 N         -3.6469  -20.8962  -53.9792 N.am      19 UNK        -0.5000 
    105 CA        -4.5277  -19.9048  -54.6052 C.3       19 UNK         0.1400 
    106 CB        -5.9115  -19.9544  -53.9428 C.3       19 UNK        -0.1800 
    107 C         -4.6504  -20.0541  -56.1360 C.2       19 UNK         0.5000 
    108 O         -4.9628  -19.0732  -56.8098 O.2       19 UNK        -0.5000 
    109 N         -4.3716  -21.2567  -56.6608 N.am      20 UNK        -0.5000 
    110 CA        -4.2669  -21.5286  -58.0941 C.3       20 UNK         0.1400 
    111 CB        -4.3796  -23.0437  -58.3217 C.3       20 UNK        -0.1800 
    112 C         -2.9632  -20.9863  -58.7174 C.2       20 UNK         0.5000 
    113 O         -2.9397  -20.7263  -59.9211 O.2       20 UNK        -0.5000 
    114 N         -1.9056  -20.8358  -57.9062 N.am      21 UNK        -0.5000 
    115 CA        -0.6117  -20.2913  -58.3201 C.3       21 UNK         0.1400 
    116 CB         0.5094  -20.9522  -57.5018 C.3       21 UNK        -0.1800 
    117 C         -0.5662  -18.7599  -58.1747 C.2       21 UNK         0.5000 
    118 O          0.0764  -18.0989  -58.9921 O.2       21 UNK        -0.5000 
    119 N         -1.2473  -18.2246  -57.1516 N.am      22 UNK        -0.5000 
    120 CA        -1.4400  -16.7836  -56.9195 C.3       22 UNK         0.1400 
    121 C         -2.1672  -16.0652  -58.0935 C.2       22 UNK         0.5000 
    122 N         -1.8030  -14.8240  -58.3870 N.am      22 UNK        -0.7600 
    123 O         -3.0844  -16.6014  -58.7110 O.2       22 UNK        -0.5000 
    124 C124       -2.1926  -16.5134  -55.5919 C.3       23 UNK        -0.0398 
    125 S125       -1.2429  -17.0112  -54.1175 S.3       23 UNK        -0.2404 
    126 C126       -2.4805  -16.6941  -52.8217 C.3       23 UNK        -0.0205 
    127 H127       -5.7740  -16.3880  -41.8914 H         1 UNK         0.0600 
    128 H128       -4.2768  -16.0832  -41.0032 H         1 UNK         0.0600 
    129 H129       -4.3019  -17.2644  -42.3157 H         1 UNK         0.0600 
    130 H130       -3.2096  -16.4556  -44.0745 H         1 UNK         0.3000 
    131 H131       -3.8532  -13.8315  -45.2066 H         1 UNK         0.0600 
    132 H132       -1.9725  -15.9978  -46.2597 H         1 UNK         0.0800 
    133 H133       -3.6672  -15.8981  -46.6292 H         1 UNK         0.0800 
    134 H134       -0.2604  -15.0189  -47.5911 H         1 UNK         0.0800 
    135 H135       -0.4566  -13.9914  -48.9868 H         1 UNK         0.0800 
    136 H136       -1.8787  -14.8033  -50.9477 H         1 UNK         0.1150 
    137 H137       -1.8228  -19.0358  -51.6026 H         1 UNK         0.1150 
    138 H138       -0.5305  -17.4305  -47.8391 H         1 UNK         0.1150 
    139 H139       -0.2390  -19.7758  -48.2679 H         1 UNK         0.0800 
    140 H140       -0.1721  -20.2749  -49.9267 H         1 UNK         0.0800 
    141 H141       -3.9102  -20.0954  -47.2862 H         1 UNK         0.0800 
    142 H142       -2.3578  -19.3540  -47.0444 H         1 UNK         0.0800 
    143 H143       -1.5116  -21.8003  -46.4741 H         1 UNK         0.0600 
    144 H144       -2.4418  -19.7493  -44.8258 H         1 UNK         0.3000 
    145 H145       -2.5477  -20.0962  -42.2364 H         1 UNK         0.0600 
    146 H146       -0.8340  -20.5878  -40.5009 H         1 UNK         0.0600 
    147 H147       -1.5660  -22.0740  -41.0850 H         1 UNK         0.0600 
    148 H148        0.0446  -21.6156  -41.6309 H         1 UNK         0.0600 
    149 H149        0.2460  -19.3732  -42.5597 H         1 UNK         0.3000 
    150 H150       -0.2742  -16.6534  -44.7624 H         1 UNK         0.0600 
    151 H151       -0.6955  -15.7253  -42.4698 H         1 UNK         0.0600 
    152 H152        0.9747  -15.4823  -42.9548 H         1 UNK         0.0600 
    153 H153        0.5584  -16.7616  -41.8126 H         1 UNK         0.0600 
    154 H154        2.1112  -17.5656  -43.6592 H         1 UNK         0.3000 
    155 H155        2.8199  -20.3270  -45.7793 H         1 UNK         0.0600 
    156 H156        4.0341  -17.5194  -45.7777 H         1 UNK         0.0600 
    157 H157        3.3130  -18.2888  -47.1895 H         1 UNK         0.0600 
    158 H158        4.7483  -18.9811  -46.4474 H         1 UNK         0.0600 
    159 H159        3.9639  -18.6113  -43.6319 H         1 UNK         0.3000 
    160 H160        3.7101  -21.1375  -41.1898 H         1 UNK         0.0600 
    161 H161        6.2826  -20.2881  -42.6258 H         1 UNK         0.0600 
    162 H162        5.7510  -21.9475  -42.3816 H         1 UNK         0.0600 
    163 H163        6.1756  -20.9555  -40.9961 H         1 UNK         0.0600 
    164 H164        5.0915  -18.6263  -41.2396 H         1 UNK         0.3000 
    165 H165        2.3040  -16.6036  -40.3158 H         1 UNK         0.0600 
    166 H166        3.7152  -16.1350  -38.3652 H         1 UNK         0.0600 
    167 H167        4.7352  -17.5316  -38.7121 H         1 UNK         0.0600 
    168 H168        3.0593  -17.7570  -38.2254 H         1 UNK         0.0600 
    169 H169        4.7724  -15.5933  -40.4637 H         1 UNK         0.3000 
    170 H170        5.0894  -14.0465  -42.1617 H         1 UNK         0.0600 
    171 H171        6.9672  -15.7058  -42.1991 H         1 UNK         0.0600 
    172 H172        6.5650  -16.1487  -43.8537 H         1 UNK         0.0600 
    173 H173        7.1577  -14.5281  -43.4875 H         1 UNK         0.0600 
    174 H174        5.0451  -14.6119  -44.9931 H         1 UNK         0.3000 
    175 H175        3.7197  -13.0236  -46.2978 H         1 UNK         0.0600 
    176 H176        1.6961  -15.2860  -45.8294 H         1 UNK         0.0600 
    177 H177        2.1041  -14.6039  -47.4057 H         1 UNK         0.0600 
    178 H178        3.3223  -15.4552  -46.4816 H         1 UNK         0.0600 
    179 H179        0.8703  -12.9615  -45.4221 H         1 UNK         0.3000 
    180 H180        0.7441   -9.4443  -45.4169 H         1 UNK         0.0600 
    181 H181       -0.5155  -11.2534  -47.5536 H         1 UNK         0.0600 
    182 H182        0.4281   -9.8025  -47.8727 H         1 UNK         0.0600 
    183 H183       -1.1190   -9.6737  -47.0507 H         1 UNK         0.0600 
    184 H184       -1.1968  -11.5905  -45.2366 H         1 UNK         0.3000 
    185 H185       -0.4959  -12.8405  -42.2236 H         1 UNK         0.0600 
    186 H186       -2.4987  -12.0096  -41.0146 H         1 UNK         0.0600 
    187 H187       -1.2347  -10.7925  -40.9933 H         1 UNK         0.0600 
    188 H188       -2.5994  -10.6151  -42.0901 H         1 UNK         0.0600 
    189 H189       -3.0834  -12.8080  -43.2231 H         1 UNK         0.3000 
    190 H190       -4.3507  -21.7992  -44.5153 H         1 UNK         0.3000 
    191 H191       -5.9207  -23.8179  -45.7345 H         1 UNK         0.0600 
    192 H192       -6.8799  -24.0519  -43.4339 H         1 UNK         0.0600 
    193 H193       -6.7403  -22.3643  -43.8984 H         1 UNK         0.0600 
    194 H194       -5.5736  -23.0713  -42.7793 H         1 UNK         0.0600 
    195 H195       -2.8653  -24.0677  -43.9541 H         1 UNK         0.3000 
    196 H196       -3.0195  -26.8858  -43.3618 H         1 UNK         0.0600 
    197 H197       -0.5763  -25.0619  -43.6750 H         1 UNK         0.0600 
    198 H198       -1.4817  -25.2955  -42.1797 H         1 UNK         0.0600 
    199 H199       -0.6060  -26.6391  -42.8989 H         1 UNK         0.0600 
    200 H200       -2.3635  -25.0641  -46.2622 H         1 UNK         0.3000 
    201 H201       -1.4111  -27.4629  -47.7602 H         1 UNK         0.0600 
    202 H202       -1.3961  -24.4912  -48.5286 H         1 UNK         0.0600 
    203 H203       -0.7150  -25.8153  -49.4652 H         1 UNK         0.0600 
    204 H204       -0.0020  -25.3826  -47.9210 H         1 UNK         0.0600 
    205 H205       -4.2412  -26.5481  -46.7263 H         1 UNK         0.3000 
    206 H206       -6.3629  -26.5584  -47.3012 H         1 UNK         0.0600 
    207 H207       -5.7718  -28.8341  -48.1860 H         1 UNK         0.0600 
    208 H208       -7.1172  -28.1150  -49.0531 H         1 UNK         0.0600 
    209 H209       -5.5202  -28.1401  -49.7874 H         1 UNK         0.0600 
    210 H210       -4.6292  -24.3477  -48.3212 H         1 UNK         0.3000 
    211 H211       -4.6143  -22.5223  -49.5085 H         1 UNK         0.0600 
    212 H212       -6.7132  -21.4179  -50.1427 H         1 UNK         0.0600 
    213 H213       -6.9114  -22.1884  -48.5781 H         1 UNK         0.0600 
    214 H214       -7.6026  -22.9290  -50.0223 H         1 UNK         0.0600 
    215 H215       -4.1668  -25.1776  -50.9097 H         1 UNK         0.3000 
    216 H216       -5.1047  -25.0717  -53.5614 H         1 UNK         0.0600 
    217 H217       -2.5831  -26.4020  -52.4361 H         1 UNK         0.0600 
    218 H218       -3.3424  -26.7864  -53.9769 H         1 UNK         0.0600 
    219 H219       -4.1953  -27.1140  -52.4755 H         1 UNK         0.0600 
    220 H220       -2.4346  -23.3843  -52.0890 H         1 UNK         0.3000 
    221 H221       -0.9501  -22.6419  -54.4074 H         1 UNK         0.0600 
    222 H222       -0.0004  -22.5076  -52.1406 H         1 UNK         0.0600 
    223 H223       -1.2358  -21.3475  -51.6589 H         1 UNK         0.0600 
    224 H224       -0.0132  -20.8949  -52.8420 H         1 UNK         0.0600 
    225 H225       -4.0904  -21.5526  -53.3458 H         1 UNK         0.3000 
    226 H226       -4.0979  -18.9219  -54.4161 H         1 UNK         0.0600 
    227 H227       -6.4028  -20.9131  -54.1133 H         1 UNK         0.0600 
    228 H228       -5.8406  -19.7995  -52.8659 H         1 UNK         0.0600 
    229 H229       -6.5638  -19.1764  -54.3412 H         1 UNK         0.0600 
    230 H230       -4.1321  -22.0176  -56.0373 H         1 UNK         0.3000 
    231 H231       -5.1039  -21.0452  -58.6024 H         1 UNK         0.0600 
    232 H232       -3.5650  -23.5845  -57.8381 H         1 UNK         0.0600 
    233 H233       -4.3465  -23.2827  -59.3854 H         1 UNK         0.0600 
    234 H234       -5.3194  -23.4332  -57.9301 H         1 UNK         0.0600 
    235 H235       -2.0183  -21.0053  -56.9144 H         1 UNK         0.3000 
    236 H236       -0.4381  -20.5316  -59.3713 H         1 UNK         0.0600 
    237 H237        0.4898  -22.0367  -57.6098 H         1 UNK         0.0600 
    238 H238        1.4882  -20.6094  -57.8395 H         1 UNK         0.0600 
    239 H239        0.4327  -20.7192  -56.4397 H         1 UNK         0.0600 
    240 H240       -1.6796  -18.8493  -56.4810 H         1 UNK         0.3000 
    241 H241       -0.4431  -16.3459  -56.8377 H         1 UNK         0.0600 
    242 H242       -2.2747  -14.3399  -59.1354 H         1 UNK         0.3800 
    243 H243       -1.0579  -14.3583  -57.8916 H         1 UNK         0.3800 
    244 H244       -3.1559  -17.0256  -55.5922 H         1 UNK         0.0800 
    245 H245       -2.4125  -15.4491  -55.4873 H         1 UNK         0.0800 
    246 H246       -3.3354  -17.3558  -52.9562 H         1 UNK         0.0800 
    247 H247       -2.8600  -15.6768  -52.9301 H         1 UNK         0.0800 
@<TRIPOS>BOND
     1    1    2 1    
     2    1  127 1    
     3    1  128 1    
     4    1  129 1    
     5    2    3 2    
     6    2    4 am   BACKBONE|DICT|INTERRES
     7    4    5 1    
     8    4  130 1    
     9    5    6 1    
    10    5   65 1    
    11    5  131 1    
    12    6    7 1    
    13    6  132 1    
    14    6  133 1    
    15    7    8 1    
    16    8    9 1    
    17    8  134 1    
    18    8  135 1    
    19    9   10 ar   
    20    9   14 ar   
    21   10   11 ar   
    22   10  136 1    
    23   11   12 ar   
    24   11  126 1    
    25   12   13 ar   
    26   12  137 1    
    27   13   14 ar   
    28   13   15 1    
    29   14  138 1    
    30   15   16 1    
    31   15  139 1    
    32   15  140 1    
    33   16   17 1    
    34   17   18 1    
    35   17  141 1    
    36   17  142 1    
    37   18   19 1    
    38   18   67 1    
    39   18  143 1    
    40   19   20 am   BACKBONE|DICT|INTERRES
    41   19  144 1    
    42   20   21 2    
    43   20   22 1    
    44   22   23 1    
    45   22   24 1    
    46   22  145 1    
    47   23  146 1    
    48   23  147 1    
    49   23  148 1    
    50   24   25 am   BACKBONE|DICT|INTERRES
    51   24  149 1    
    52   25   26 2    
    53   25   27 1    
    54   27   28 1    
    55   27   29 1    
    56   27  150 1    
    57   28  151 1    
    58   28  152 1    
    59   28  153 1    
    60   29   30 am   BACKBONE|DICT|INTERRES
    61   29  154 1    
    62   30   31 2    
    63   30   32 1    
    64   32   33 1    
    65   32   34 1    
    66   32  155 1    
    67   33  156 1    
    68   33  157 1    
    69   33  158 1    
    70   34   35 am   BACKBONE|DICT|INTERRES
    71   34  159 1    
    72   35   36 2    
    73   35   37 1    
    74   37   38 1    
    75   37   39 1    
    76   37  160 1    
    77   38  161 1    
    78   38  162 1    
    79   38  163 1    
    80   39   40 am   BACKBONE|DICT|INTERRES
    81   39  164 1    
    82   40   41 2    
    83   40   42 1    
    84   42   43 1    
    85   42   44 1    
    86   42  165 1    
    87   43  166 1    
    88   43  167 1    
    89   43  168 1    
    90   44   45 am   BACKBONE|DICT|INTERRES
    91   44  169 1    
    92   45   46 2    
    93   45   47 1    
    94   47   48 1    
    95   47   49 1    
    96   47  170 1    
    97   48  171 1    
    98   48  172 1    
    99   48  173 1    
   100   49   50 am   BACKBONE|DICT|INTERRES
   101   49  174 1    
   102   50   51 2    
   103   50   52 1    
   104   52   53 1    
   105   52   54 1    
   106   52  175 1    
   107   53  176 1    
   108   53  177 1    
   109   53  178 1    
   110   54   55 am   BACKBONE|DICT|INTERRES
   111   54  179 1    
   112   55   56 2    
   113   55   57 1    
   114   57   58 1    
   115   57   59 1    
   116   57  180 1    
   117   58  181 1    
   118   58  182 1    
   119   58  183 1    
   120   59   60 am   BACKBONE|DICT|INTERRES
   121   59  184 1    
   122   60   61 2    
   123   60   62 1    
   124   62   63 1    
   125   62   64 1    
   126   62  185 1    
   127   63  186 1    
   128   63  187 1    
   129   63  188 1    
   130   64   65 am   BACKBONE|DICT|INTERRES
   131   64  189 1    
   132   65   66 2    
   133   67   68 2    
   134   67   69 am   BACKBONE|DICT|INTERRES
   135   69   70 1    
   136   69  190 1    
   137   70   71 1    
   138   70   72 1    
   139   70  191 1    
   140   71  192 1    
   141   71  193 1    
   142   71  194 1    
   143   72   73 2    
   144   72   74 am   BACKBONE|DICT|INTERRES
   145   74   75 1    
   146   74  195 1    
   147   75   76 1    
   148   75   77 1    
   149   75  196 1    
   150   76  197 1    
   151   76  198 1    
   152   76  199 1    
   153   77   78 2    
   154   77   79 am   BACKBONE|DICT|INTERRES
   155   79   80 1    
   156   79  200 1    
   157   80   81 1    
   158   80   82 1    
   159   80  201 1    
   160   81  202 1    
   161   81  203 1    
   162   81  204 1    
   163   82   83 2    
   164   82   84 am   BACKBONE|DICT|INTERRES
   165   84   85 1    
   166   84  205 1    
   167   85   86 1    
   168   85   87 1    
   169   85  206 1    
   170   86  207 1    
   171   86  208 1    
   172   86  209 1    
   173   87   88 2    
   174   87   89 am   BACKBONE|DICT|INTERRES
   175   89   90 1    
   176   89  210 1    
   177   90   91 1    
   178   90   92 1    
   179   90  211 1    
   180   91  212 1    
   181   91  213 1    
   182   91  214 1    
   183   92   93 2    
   184   92   94 am   BACKBONE|DICT|INTERRES
   185   94   95 1    
   186   94  215 1    
   187   95   96 1    
   188   95   97 1    
   189   95  216 1    
   190   96  217 1    
   191   96  218 1    
   192   96  219 1    
   193   97   98 2    
   194   97   99 am   BACKBONE|DICT|INTERRES
   195   99  100 1    
   196   99  220 1    
   197  100  101 1    
   198  100  102 1    
   199  100  221 1    
   200  101  222 1    
   201  101  223 1    
   202  101  224 1    
   203  102  103 2    
   204  102  104 am   BACKBONE|DICT|INTERRES
   205  104  105 1    
   206  104  225 1    
   207  105  106 1    
   208  105  107 1    
   209  105  226 1    
   210  106  227 1    
   211  106  228 1    
   212  106  229 1    
   213  107  108 2    
   214  107  109 am   BACKBONE|DICT|INTERRES
   215  109  110 1    
   216  109  230 1    
   217  110  111 1    
   218  110  112 1    
   219  110  231 1    
   220  111  232 1    
   221  111  233 1    
   222  111  234 1    
   223  112  113 2    
   224  112  114 am   BACKBONE|DICT|INTERRES
   225  114  115 1    
   226  114  235 1    
   227  115  116 1    
   228  115  117 1    
   229  115  236 1    
   230  116  237 1    
   231  116  238 1    
   232  116  239 1    
   233  117  118 2    
   234  117  119 am   BACKBONE|DICT|INTERRES
   235  119  120 1    
   236  119  240 1    
   237  120  121 1    
   238  120  124 1    
   239  120  241 1    
   240  121  122 am   BACKBONE|DICT|INTERRES
   241  121  123 2    
   242  122  242 1    
   243  122  243 1    
   244  124  125 1    
   245  124  244 1    
   246  124  245 1    
   247  125  126 1    
   248  126  246 1    
   249  126  247 1    
@<TRIPOS>SUBSTRUCTURE
     1 UNK         1 GROUP             0       ****    0 ROOT    
