@<TRIPOS>MOLECULE
3R540
247   249    1
SMALL
USER_CHARGES


@<TRIPOS>ATOM
      1 CA          0.7264  -11.2050  -49.8317 C.3       0 UNK        -0.1800 
      2 C           2.1227  -11.2992  -49.2324 C.2       0 UNK         0.5000 
      3 O           3.0937  -10.8902  -49.8688 O.2       0 UNK        -0.5000 
      4 N           2.2248  -11.8381  -48.0155 N.am      1 UNK        -0.5000 
      5 CA          3.4614  -12.0618  -47.2717 C.3       1 UNK         0.1400 
      6 C6          4.3701  -13.1580  -47.8978 C.3       23 UNK        -0.0398 
      7 S7          3.5677  -14.7945  -48.0443 S.3       23 UNK        -0.2404 
      8 C8          3.4799  -14.9968  -49.8491 C.3       23 UNK        -0.0205 
      9 C9          2.5520  -16.1425  -50.2154 C.ar      23 UNK        -0.0193 
     10 C10         1.3133  -15.8842  -50.8088 C.ar      23 UNK        -0.1150 
     11 C11         0.4388  -16.9327  -51.1041 C.ar      23 UNK        -0.0193 
     12 C12         0.8057  -18.2454  -50.7964 C.ar      23 UNK        -0.1150 
     13 C13         2.0435  -18.5167  -50.2070 C.ar      23 UNK        -0.0193 
     14 C14         2.9201  -17.4618  -49.9361 C.ar      23 UNK        -0.1150 
     15 C15         2.4100  -19.9460  -49.8291 C.3       23 UNK        -0.0205 
     16 S16         2.7574  -20.1444  -48.0474 S.3       23 UNK        -0.2404 
     17 C17         1.2829  -19.4048  -47.2645 C.3       23 UNK        -0.0398 
     18 CA          0.2469  -20.4483  -46.7938 C.3       11 UNK         0.1400 
     19 N          -0.5882  -19.9159  -45.7178 N.am      11 UNK        -0.5000 
     20 C          -1.4752  -20.6271  -45.0103 C.2       10 UNK         0.5000 
     21 O          -1.6439  -21.8387  -45.1406 O.2       10 UNK        -0.5000 
     22 CA         -2.3499  -19.8378  -44.0241 C.3       10 UNK         0.1400 
     23 CB         -1.6289  -19.6757  -42.6822 C.3       10 UNK        -0.1800 
     24 N          -2.7054  -18.5206  -44.5528 N.am      10 UNK        -0.5000 
     25 C          -3.5766  -18.3289  -45.5529 C.2       9 UNK         0.5000 
     26 O          -4.1983  -19.2410  -46.0990 O.2       9 UNK        -0.5000 
     27 CA         -3.7466  -16.8824  -46.0530 C.3       9 UNK         0.1400 
     28 CB         -4.6432  -16.0775  -45.1003 C.3       9 UNK        -0.1800 
     29 N          -2.4695  -16.1864  -46.2234 N.am      9 UNK        -0.5000 
     30 C          -1.5335  -16.5311  -47.1188 C.2       8 UNK         0.5000 
     31 O          -1.6585  -17.4644  -47.9081 O.2       8 UNK        -0.5000 
     32 CA         -0.2245  -15.7214  -47.1218 C.3       8 UNK         0.1400 
     33 CB         -0.3594  -14.5125  -48.0586 C.3       8 UNK        -0.1800 
     34 N           0.2206  -15.2586  -45.8048 N.am      8 UNK        -0.5000 
     35 C           0.3888  -16.0055  -44.7050 C.2       7 UNK         0.5000 
     36 O           0.1484  -17.2146  -44.6474 O.2       7 UNK        -0.5000 
     37 CA          0.9403  -15.2412  -43.4890 C.3       7 UNK         0.1400 
     38 CB          0.0353  -14.0598  -43.0731 C.3       7 UNK        -0.1800 
     39 N           1.2672  -16.0913  -42.3440 N.am      7 UNK        -0.5000 
     40 C           0.4366  -16.6682  -41.4625 C.2       6 UNK         0.5000 
     41 O          -0.7919  -16.6056  -41.5145 O.2       6 UNK        -0.5000 
     42 CA          1.1059  -17.3997  -40.2834 C.3       6 UNK         0.1400 
     43 CB          1.3182  -18.8875  -40.6015 C.3       6 UNK        -0.1800 
     44 N           2.4022  -16.8030  -39.9662 N.am      6 UNK        -0.5000 
     45 C           2.6111  -15.7913  -39.1129 C.2       5 UNK         0.5000 
     46 O           1.7148  -15.2834  -38.4378 O.2       5 UNK        -0.5000 
     47 CA          4.0486  -15.2252  -39.0120 C.3       5 UNK         0.1400 
     48 CB          4.5069  -15.0497  -37.5497 C.3       5 UNK        -0.1800 
     49 N           5.0423  -15.9655  -39.8022 N.am      5 UNK        -0.5000 
     50 C           5.4613  -17.2300  -39.6279 C.2       4 UNK         0.5000 
     51 O           5.1677  -17.9147  -38.6473 O.2       4 UNK        -0.5000 
     52 CA          6.3065  -17.8543  -40.7635 C.3       4 UNK         0.1400 
     53 CB          6.0035  -19.3565  -40.9462 C.3       4 UNK        -0.1800 
     54 N           6.2014  -17.1643  -42.0583 N.am      4 UNK        -0.5000 
     55 C           5.0935  -16.9379  -42.7803 C.2       3 UNK         0.5000 
     56 O           3.9544  -17.2520  -42.4275 O.2       3 UNK        -0.5000 
     57 CA          5.2927  -16.1706  -44.0997 C.3       3 UNK         0.1400 
     58 CB          4.7804  -17.0061  -45.2838 C.3       3 UNK        -0.1800 
     59 N           4.6371  -14.8584  -44.1212 N.am      3 UNK        -0.5000 
     60 C           4.6789  -13.9098  -43.1705 C.2       2 UNK         0.5000 
     61 O           5.2746  -14.0397  -42.0993 O.2       2 UNK        -0.5000 
     62 CA          3.9463  -12.5870  -43.4849 C.3       2 UNK         0.1400 
     63 CB          4.4893  -11.4088  -42.6562 C.3       2 UNK        -0.1800 
     64 N           4.0537  -12.2518  -44.9071 N.am      2 UNK        -0.5000 
     65 C           3.0835  -12.3952  -45.8171 C.2       1 UNK         0.5000 
     66 O           1.9493  -12.8109  -45.5586 O.2       1 UNK        -0.5000 
     67 C          -0.6098  -20.9943  -47.9577 C.2       11 UNK         0.5000 
     68 O          -0.3800  -22.1184  -48.3990 O.2       11 UNK        -0.5000 
     69 N          -1.6237  -20.2276  -48.3868 N.am      12 UNK        -0.5000 
     70 CA         -2.6157  -20.6289  -49.3859 C.3       12 UNK         0.1400 
     71 CB         -3.5398  -19.4458  -49.7040 C.3       12 UNK        -0.1800 
     72 C          -3.4522  -21.8420  -48.9465 C.2       12 UNK         0.5000 
     73 O          -3.6876  -22.7389  -49.7580 O.2       12 UNK        -0.5000 
     74 N          -3.8654  -21.8606  -47.6705 N.am      13 UNK        -0.5000 
     75 CA         -4.6006  -22.9651  -47.0512 C.3       13 UNK         0.1400 
     76 CB         -5.0836  -22.5553  -45.6527 C.3       13 UNK        -0.1800 
     77 C          -3.7880  -24.2718  -46.9962 C.2       13 UNK         0.5000 
     78 O          -4.3454  -25.3431  -47.2321 O.2       13 UNK        -0.5000 
     79 N          -2.4833  -24.1608  -46.7179 N.am      14 UNK        -0.5000 
     80 CA         -1.5388  -25.2748  -46.7671 C.3       14 UNK         0.1400 
     81 CB         -0.2356  -24.8698  -46.0610 C.3       14 UNK        -0.1800 
     82 C          -1.2605  -25.7436  -48.2082 C.2       14 UNK         0.5000 
     83 O          -1.1692  -26.9488  -48.4456 O.2       14 UNK        -0.5000 
     84 N          -1.1206  -24.7868  -49.1358 N.am      15 UNK        -0.5000 
     85 CA         -0.7827  -25.0265  -50.5362 C.3       15 UNK         0.1400 
     86 CB         -0.3463  -23.7098  -51.1988 C.3       15 UNK        -0.1800 
     87 C          -1.9103  -25.6875  -51.3466 C.2       15 UNK         0.5000 
     88 O          -1.6366  -26.6534  -52.0615 O.2       15 UNK        -0.5000 
     89 N          -3.1360  -25.1496  -51.2609 N.am      16 UNK        -0.5000 
     90 CA         -4.2371  -25.5471  -52.1454 C.3       16 UNK         0.1400 
     91 CB         -4.0960  -24.8159  -53.4914 C.3       16 UNK        -0.1800 
     92 C          -5.6427  -25.3255  -51.5627 C.2       16 UNK         0.5000 
     93 O          -6.5604  -26.0488  -51.9551 O.2       16 UNK        -0.5000 
     94 N          -5.8095  -24.3458  -50.6611 N.am      17 UNK        -0.5000 
     95 CA         -7.0719  -23.9544  -50.0224 C.3       17 UNK         0.1400 
     96 CB         -7.5105  -25.0194  -48.9907 C.3       17 UNK        -0.1800 
     97 C          -8.1654  -23.6046  -51.0540 C.2       17 UNK         0.5000 
     98 O          -8.0286  -22.6065  -51.7612 O.2       17 UNK        -0.5000 
     99 N          -9.2170  -24.4306  -51.1361 N.am      18 UNK        -0.5000 
    100 CA       -10.3524  -24.2746  -52.0463 C.3       18 UNK         0.1400 
    101 CB       -11.4197  -25.3216  -51.6934 C.3       18 UNK        -0.1800 
    102 C         -9.9836  -24.3652  -53.5400 C.2       18 UNK         0.5000 
    103 O        -10.7072  -23.8112  -54.3695 O.2       18 UNK        -0.5000 
    104 N         -8.8648  -25.0274  -53.8692 N.am      19 UNK        -0.5000 
    105 CA        -8.3364  -25.1551  -55.2284 C.3       19 UNK         0.1400 
    106 CB        -7.4866  -26.4345  -55.3241 C.3       19 UNK        -0.1800 
    107 C         -7.5860  -23.8805  -55.6745 C.2       19 UNK         0.5000 
    108 O         -6.3931  -23.9293  -55.9736 O.2       19 UNK        -0.5000 
    109 N         -8.3202  -22.7604  -55.7110 N.am      20 UNK        -0.5000 
    110 CA        -7.9260  -21.4304  -56.1904 C.3       20 UNK         0.1400 
    111 CB        -7.5249  -21.4761  -57.6805 C.3       20 UNK        -0.1800 
    112 C         -6.8833  -20.6939  -55.3211 C.2       20 UNK         0.5000 
    113 O         -6.2914  -19.7235  -55.7986 O.2       20 UNK        -0.5000 
    114 N         -6.7105  -21.1167  -54.0587 N.am      21 UNK        -0.5000 
    115 CA        -5.8902  -20.4905  -53.0145 C.3       21 UNK         0.1400 
    116 CB        -6.6106  -19.2336  -52.4764 C.3       21 UNK        -0.1800 
    117 C         -4.4329  -20.2320  -53.4543 C.2       21 UNK         0.5000 
    118 O         -3.6455  -21.1757  -53.5137 O.2       21 UNK        -0.5000 
    119 N         -4.1001  -18.9679  -53.7456 N.am      22 UNK        -0.5000 
    120 CA        -2.7913  -18.5430  -54.2657 C.3       22 UNK         0.1400 
    121 C         -2.5402  -18.9026  -55.7630 C.2       22 UNK         0.5000 
    122 N         -3.5430  -19.3099  -56.5322 N.am      22 UNK        -0.7600 
    123 O         -1.4110  -18.8199  -56.2376 O.2       22 UNK        -0.5000 
    124 C124       -2.5418  -17.0345  -53.9834 C.3       23 UNK        -0.0398 
    125 S125       -0.8030  -16.6884  -53.5530 S.3       23 UNK        -0.2404 
    126 C126       -0.9111  -16.6529  -51.7390 C.3       23 UNK        -0.0205 
    127 H127        0.6595  -11.8284  -50.7233 H         1 UNK         0.0600 
    128 H128        0.5070  -10.1757  -50.1152 H         1 UNK         0.0600 
    129 H129       -0.0394  -11.5341  -49.1288 H         1 UNK         0.0600 
    130 H130        1.4015  -12.1356  -47.5072 H         1 UNK         0.3000 
    131 H131        4.0114  -11.1187  -47.2548 H         1 UNK         0.0600 
    132 H132        4.7153  -12.8336  -48.8799 H         1 UNK         0.0800 
    133 H133        5.2795  -13.2810  -47.3077 H         1 UNK         0.0800 
    134 H134        3.1342  -14.0672  -50.3039 H         1 UNK         0.0800 
    135 H135        4.4783  -15.1884  -50.2446 H         1 UNK         0.0800 
    136 H136        1.0231  -14.8670  -51.0313 H         1 UNK         0.1150 
    137 H137        0.1202  -19.0543  -51.0077 H         1 UNK         0.1150 
    138 H138        3.8732  -17.6634  -49.4674 H         1 UNK         0.1150 
    139 H139        1.6141  -20.6380  -50.1092 H         1 UNK         0.0800 
    140 H140        3.2913  -20.2474  -50.3964 H         1 UNK         0.0800 
    141 H141        0.8207  -18.6596  -47.9095 H         1 UNK         0.0800 
    142 H142        1.6552  -18.8457  -46.4045 H         1 UNK         0.0800 
    143 H143        0.7892  -21.2947  -46.3663 H         1 UNK         0.0600 
    144 H144       -0.4849  -18.9294  -45.5015 H         1 UNK         0.3000 
    145 H145       -3.2680  -20.4033  -43.8526 H         1 UNK         0.0600 
    146 H146       -0.6888  -19.1385  -42.8057 H         1 UNK         0.0600 
    147 H147       -1.3987  -20.6467  -42.2420 H         1 UNK         0.0600 
    148 H148       -2.2397  -19.1268  -41.9653 H         1 UNK         0.0600 
    149 H149       -2.1835  -17.7322  -44.1946 H         1 UNK         0.3000 
    150 H150       -4.2380  -16.9257  -47.0275 H         1 UNK         0.0600 
    151 H151       -5.6073  -16.5692  -44.9637 H         1 UNK         0.0600 
    152 H152       -4.8413  -15.0804  -45.4940 H         1 UNK         0.0600 
    153 H153       -4.1889  -15.9654  -44.1150 H         1 UNK         0.0600 
    154 H154       -2.2825  -15.4099  -45.6067 H         1 UNK         0.3000 
    155 H155        0.5593  -16.3677  -47.5197 H         1 UNK         0.0600 
    156 H156        0.6123  -14.0635  -48.2541 H         1 UNK         0.0600 
    157 H157       -1.0120  -13.7459  -47.6397 H         1 UNK         0.0600 
    158 H158       -0.7751  -14.8048  -49.0234 H         1 UNK         0.0600 
    159 H159        0.5181  -14.2898  -45.7573 H         1 UNK         0.3000 
    160 H160        1.8939  -14.8296  -43.8104 H         1 UNK         0.0600 
    161 H161       -0.9815  -14.3826  -42.8493 H         1 UNK         0.0600 
    162 H162       -0.0356  -13.3115  -43.8622 H         1 UNK         0.0600 
    163 H163        0.4288  -13.5541  -42.1912 H         1 UNK         0.0600 
    164 H164        2.2509  -16.3267  -42.2565 H         1 UNK         0.3000 
    165 H165        0.4483  -17.3253  -39.4148 H         1 UNK         0.0600 
    166 H166        1.8834  -19.3832  -39.8119 H         1 UNK         0.0600 
    167 H167        0.3638  -19.4058  -40.6839 H         1 UNK         0.0600 
    168 H168        1.8587  -19.0289  -41.5387 H         1 UNK         0.0600 
    169 H169        3.1838  -17.1252  -40.5248 H         1 UNK         0.3000 
    170 H170        4.0050  -14.2313  -39.4599 H         1 UNK         0.0600 
    171 H171        3.8584  -14.3512  -37.0198 H         1 UNK         0.0600 
    172 H172        4.4858  -15.9901  -36.9989 H         1 UNK         0.0600 
    173 H173        5.5203  -14.6515  -37.4986 H         1 UNK         0.0600 
    174 H174        5.3364  -15.4874  -40.6488 H         1 UNK         0.3000 
    175 H175        7.3470  -17.7605  -40.4497 H         1 UNK         0.0600 
    176 H176        4.9558  -19.5293  -41.1954 H         1 UNK         0.0600 
    177 H177        6.6123  -19.7882  -41.7405 H         1 UNK         0.0600 
    178 H178        6.2197  -19.9167  -40.0358 H         1 UNK         0.0600 
    179 H179        7.0775  -16.8147  -42.4215 H         1 UNK         0.3000 
    180 H180        6.3609  -16.0001  -44.2455 H         1 UNK         0.0600 
    181 H181        5.0774  -16.5648  -46.2343 H         1 UNK         0.0600 
    182 H182        3.6928  -17.0943  -45.2766 H         1 UNK         0.0600 
    183 H183        5.1905  -18.0167  -45.2602 H         1 UNK         0.0600 
    184 H184        4.1264  -14.6452  -44.9647 H         1 UNK         0.3000 
    185 H185        2.9006  -12.7272  -43.2060 H         1 UNK         0.0600 
    186 H186        3.9592  -10.4858  -42.8916 H         1 UNK         0.0600 
    187 H187        4.3638  -11.5877  -41.5875 H         1 UNK         0.0600 
    188 H188        5.5512  -11.2422  -42.8405 H         1 UNK         0.0600 
    189 H189        4.9620  -11.9271  -45.2089 H         1 UNK         0.3000 
    190 H190       -1.7188  -19.2831  -48.0186 H         1 UNK         0.3000 
    191 H191       -2.0816  -20.9000  -50.2983 H         1 UNK         0.0600 
    192 H192       -2.9802  -18.5982  -50.0925 H         1 UNK         0.0600 
    193 H193       -4.0819  -19.1063  -48.8211 H         1 UNK         0.0600 
    194 H194       -4.2777  -19.7232  -50.4551 H         1 UNK         0.0600 
    195 H195       -3.6725  -21.0565  -47.0840 H         1 UNK         0.3000 
    196 H196       -5.4830  -23.1529  -47.6610 H         1 UNK         0.0600 
    197 H197       -4.2513  -22.3649  -44.9763 H         1 UNK         0.0600 
    198 H198       -5.6955  -21.6540  -45.6941 H         1 UNK         0.0600 
    199 H199       -5.6929  -23.3421  -45.2066 H         1 UNK         0.0600 
    200 H200       -2.1108  -23.2512  -46.4628 H         1 UNK         0.3000 
    201 H201       -1.9714  -26.1150  -46.2196 H         1 UNK         0.0600 
    202 H202        0.2419  -24.0197  -46.5489 H         1 UNK         0.0600 
    203 H203        0.4800  -25.6929  -46.0598 H         1 UNK         0.0600 
    204 H204       -0.4200  -24.5961  -45.0220 H         1 UNK         0.0600 
    205 H205       -1.1374  -23.8155  -48.8375 H         1 UNK         0.3000 
    206 H206        0.0743  -25.7032  -50.5566 H         1 UNK         0.0600 
    207 H207        0.5293  -23.2897  -50.7037 H         1 UNK         0.0600 
    208 H208       -0.0820  -23.8667  -52.2453 H         1 UNK         0.0600 
    209 H209       -1.1393  -22.9624  -51.1704 H         1 UNK         0.0600 
    210 H210       -3.2860  -24.3539  -50.6468 H         1 UNK         0.3000 
    211 H211       -4.1643  -26.6207  -52.3324 H         1 UNK         0.0600 
    212 H212       -4.8546  -25.1446  -54.1981 H         1 UNK         0.0600 
    213 H213       -3.1279  -25.0044  -53.9552 H         1 UNK         0.0600 
    214 H214       -4.2068  -23.7387  -53.3718 H         1 UNK         0.0600 
    215 H215       -5.0111  -23.7656  -50.4160 H         1 UNK         0.3000 
    216 H216       -6.8726  -23.0280  -49.4835 H         1 UNK         0.0600 
    217 H217       -8.4227  -24.7170  -48.4747 H         1 UNK         0.0600 
    218 H218       -7.6911  -25.9922  -49.4490 H         1 UNK         0.0600 
    219 H219       -6.7496  -25.1616  -48.2261 H         1 UNK         0.0600 
    220 H220       -9.2284  -25.2451  -50.5396 H         1 UNK         0.3000 
    221 H221      -10.7773  -23.2829  -51.8781 H         1 UNK         0.0600 
    222 H222      -11.7566  -25.2107  -50.6626 H         1 UNK         0.0600 
    223 H223      -11.0423  -26.3374  -51.8173 H         1 UNK         0.0600 
    224 H224      -12.2972  -25.2170  -52.3331 H         1 UNK         0.0600 
    225 H225       -8.2932  -25.4156  -53.1269 H         1 UNK         0.3000 
    226 H226       -9.1728  -25.2813  -55.9193 H         1 UNK         0.0600 
    227 H227       -6.6605  -26.4306  -54.6158 H         1 UNK         0.0600 
    228 H228       -8.0900  -27.3192  -55.1207 H         1 UNK         0.0600 
    229 H229       -7.0655  -26.5537  -56.3232 H         1 UNK         0.0600 
    230 H230       -9.2831  -22.8437  -55.3985 H         1 UNK         0.3000 
    231 H231       -8.8300  -20.8237  -56.1238 H         1 UNK         0.0600 
    232 H232       -6.5779  -21.9956  -57.8295 H         1 UNK         0.0600 
    233 H233       -7.4107  -20.4709  -58.0877 H         1 UNK         0.0600 
    234 H234       -8.2835  -21.9804  -58.2790 H         1 UNK         0.0600 
    235 H235       -7.2432  -21.9198  -53.7488 H         1 UNK         0.3000 
    236 H236       -5.8263  -21.2073  -52.1947 H         1 UNK         0.0600 
    237 H237       -6.0287  -18.7384  -51.6988 H         1 UNK         0.0600 
    238 H238       -6.8079  -18.5023  -53.2608 H         1 UNK         0.0600 
    239 H239       -7.5695  -19.5028  -52.0328 H         1 UNK         0.0600 
    240 H240       -4.8232  -18.2644  -53.7183 H         1 UNK         0.3000 
    241 H241       -2.0499  -19.1142  -53.7027 H         1 UNK         0.0600 
    242 H242       -3.3618  -19.5415  -57.4955 H         1 UNK         0.3800 
    243 H243       -4.4892  -19.3952  -56.1673 H         1 UNK         0.3800 
    244 H244       -3.1670  -16.6851  -53.1603 H         1 UNK         0.0800 
    245 H245       -2.8259  -16.4163  -54.8371 H         1 UNK         0.0800 
    246 H246       -1.2959  -15.6853  -51.4137 H         1 UNK         0.0800 
    247 H247       -1.6284  -17.3998  -51.4023 H         1 UNK         0.0800 
@<TRIPOS>BOND
     1    1    2 1    
     2    1  127 1    
     3    1  128 1    
     4    1  129 1    
     5    2    3 2    
     6    2    4 am   BACKBONE|DICT|INTERRES
     7    4    5 1    
     8    4  130 1    
     9    5    6 1    
    10    5   65 1    
    11    5  131 1    
    12    6    7 1    
    13    6  132 1    
    14    6  133 1    
    15    7    8 1    
    16    8    9 1    
    17    8  134 1    
    18    8  135 1    
    19    9   10 ar   
    20    9   14 ar   
    21   10   11 ar   
    22   10  136 1    
    23   11   12 ar   
    24   11  126 1    
    25   12   13 ar   
    26   12  137 1    
    27   13   14 ar   
    28   13   15 1    
    29   14  138 1    
    30   15   16 1    
    31   15  139 1    
    32   15  140 1    
    33   16   17 1    
    34   17   18 1    
    35   17  141 1    
    36   17  142 1    
    37   18   19 1    
    38   18   67 1    
    39   18  143 1    
    40   19   20 am   BACKBONE|DICT|INTERRES
    41   19  144 1    
    42   20   21 2    
    43   20   22 1    
    44   22   23 1    
    45   22   24 1    
    46   22  145 1    
    47   23  146 1    
    48   23  147 1    
    49   23  148 1    
    50   24   25 am   BACKBONE|DICT|INTERRES
    51   24  149 1    
    52   25   26 2    
    53   25   27 1    
    54   27   28 1    
    55   27   29 1    
    56   27  150 1    
    57   28  151 1    
    58   28  152 1    
    59   28  153 1    
    60   29   30 am   BACKBONE|DICT|INTERRES
    61   29  154 1    
    62   30   31 2    
    63   30   32 1    
    64   32   33 1    
    65   32   34 1    
    66   32  155 1    
    67   33  156 1    
    68   33  157 1    
    69   33  158 1    
    70   34   35 am   BACKBONE|DICT|INTERRES
    71   34  159 1    
    72   35   36 2    
    73   35   37 1    
    74   37   38 1    
    75   37   39 1    
    76   37  160 1    
    77   38  161 1    
    78   38  162 1    
    79   38  163 1    
    80   39   40 am   BACKBONE|DICT|INTERRES
    81   39  164 1    
    82   40   41 2    
    83   40   42 1    
    84   42   43 1    
    85   42   44 1    
    86   42  165 1    
    87   43  166 1    
    88   43  167 1    
    89   43  168 1    
    90   44   45 am   BACKBONE|DICT|INTERRES
    91   44  169 1    
    92   45   46 2    
    93   45   47 1    
    94   47   48 1    
    95   47   49 1    
    96   47  170 1    
    97   48  171 1    
    98   48  172 1    
    99   48  173 1    
   100   49   50 am   BACKBONE|DICT|INTERRES
   101   49  174 1    
   102   50   51 2    
   103   50   52 1    
   104   52   53 1    
   105   52   54 1    
   106   52  175 1    
   107   53  176 1    
   108   53  177 1    
   109   53  178 1    
   110   54   55 am   BACKBONE|DICT|INTERRES
   111   54  179 1    
   112   55   56 2    
   113   55   57 1    
   114   57   58 1    
   115   57   59 1    
   116   57  180 1    
   117   58  181 1    
   118   58  182 1    
   119   58  183 1    
   120   59   60 am   BACKBONE|DICT|INTERRES
   121   59  184 1    
   122   60   61 2    
   123   60   62 1    
   124   62   63 1    
   125   62   64 1    
   126   62  185 1    
   127   63  186 1    
   128   63  187 1    
   129   63  188 1    
   130   64   65 am   BACKBONE|DICT|INTERRES
   131   64  189 1    
   132   65   66 2    
   133   67   68 2    
   134   67   69 am   BACKBONE|DICT|INTERRES
   135   69   70 1    
   136   69  190 1    
   137   70   71 1    
   138   70   72 1    
   139   70  191 1    
   140   71  192 1    
   141   71  193 1    
   142   71  194 1    
   143   72   73 2    
   144   72   74 am   BACKBONE|DICT|INTERRES
   145   74   75 1    
   146   74  195 1    
   147   75   76 1    
   148   75   77 1    
   149   75  196 1    
   150   76  197 1    
   151   76  198 1    
   152   76  199 1    
   153   77   78 2    
   154   77   79 am   BACKBONE|DICT|INTERRES
   155   79   80 1    
   156   79  200 1    
   157   80   81 1    
   158   80   82 1    
   159   80  201 1    
   160   81  202 1    
   161   81  203 1    
   162   81  204 1    
   163   82   83 2    
   164   82   84 am   BACKBONE|DICT|INTERRES
   165   84   85 1    
   166   84  205 1    
   167   85   86 1    
   168   85   87 1    
   169   85  206 1    
   170   86  207 1    
   171   86  208 1    
   172   86  209 1    
   173   87   88 2    
   174   87   89 am   BACKBONE|DICT|INTERRES
   175   89   90 1    
   176   89  210 1    
   177   90   91 1    
   178   90   92 1    
   179   90  211 1    
   180   91  212 1    
   181   91  213 1    
   182   91  214 1    
   183   92   93 2    
   184   92   94 am   BACKBONE|DICT|INTERRES
   185   94   95 1    
   186   94  215 1    
   187   95   96 1    
   188   95   97 1    
   189   95  216 1    
   190   96  217 1    
   191   96  218 1    
   192   96  219 1    
   193   97   98 2    
   194   97   99 am   BACKBONE|DICT|INTERRES
   195   99  100 1    
   196   99  220 1    
   197  100  101 1    
   198  100  102 1    
   199  100  221 1    
   200  101  222 1    
   201  101  223 1    
   202  101  224 1    
   203  102  103 2    
   204  102  104 am   BACKBONE|DICT|INTERRES
   205  104  105 1    
   206  104  225 1    
   207  105  106 1    
   208  105  107 1    
   209  105  226 1    
   210  106  227 1    
   211  106  228 1    
   212  106  229 1    
   213  107  108 2    
   214  107  109 am   BACKBONE|DICT|INTERRES
   215  109  110 1    
   216  109  230 1    
   217  110  111 1    
   218  110  112 1    
   219  110  231 1    
   220  111  232 1    
   221  111  233 1    
   222  111  234 1    
   223  112  113 2    
   224  112  114 am   BACKBONE|DICT|INTERRES
   225  114  115 1    
   226  114  235 1    
   227  115  116 1    
   228  115  117 1    
   229  115  236 1    
   230  116  237 1    
   231  116  238 1    
   232  116  239 1    
   233  117  118 2    
   234  117  119 am   BACKBONE|DICT|INTERRES
   235  119  120 1    
   236  119  240 1    
   237  120  121 1    
   238  120  124 1    
   239  120  241 1    
   240  121  122 am   BACKBONE|DICT|INTERRES
   241  121  123 2    
   242  122  242 1    
   243  122  243 1    
   244  124  125 1    
   245  124  244 1    
   246  124  245 1    
   247  125  126 1    
   248  126  246 1    
   249  126  247 1    
@<TRIPOS>SUBSTRUCTURE
     1 UNK         1 GROUP             0       ****    0 ROOT    
