@<TRIPOS>MOLECULE
3R540
247   249    1
SMALL
USER_CHARGES


@<TRIPOS>ATOM
      1 CA          0.9459  -12.5256  -53.9683 C.3       0 UNK        -0.1800 
      2 C           1.6166  -11.5261  -53.0360 C.2       0 UNK         0.5000 
      3 O           1.2537  -10.3505  -53.0280 O.2       0 UNK        -0.5000 
      4 N           2.5840  -11.9953  -52.2380 N.am      1 UNK        -0.5000 
      5 CA          3.3440  -11.2066  -51.2572 C.3       1 UNK         0.1400 
      6 C6          4.7241  -11.8613  -50.9627 C.3       23 UNK        -0.0398 
      7 S7          4.6935  -13.3487  -49.8908 S.3       23 UNK        -0.2404 
      8 C8          4.4452  -14.7010  -51.0848 C.3       23 UNK        -0.0205 
      9 C9          3.3052  -15.6211  -50.6649 C.ar      23 UNK        -0.0193 
     10 C10         2.0088  -15.1168  -50.5170 C.ar      23 UNK        -0.1150 
     11 C11         0.9526  -15.9562  -50.1607 C.ar      23 UNK        -0.0193 
     12 C12         1.2040  -17.3129  -49.9494 C.ar      23 UNK        -0.1150 
     13 C13         2.4866  -17.8438  -50.1109 C.ar      23 UNK        -0.0193 
     14 C14         3.5361  -16.9856  -50.4580 C.ar      23 UNK        -0.1150 
     15 C15         2.7317  -19.3453  -49.9858 C.3       23 UNK        -0.0205 
     16 S16         2.3007  -20.0203  -48.3485 S.3       23 UNK        -0.2404 
     17 C17         0.4928  -20.2564  -48.4774 C.3       23 UNK        -0.0398 
     18 CA          0.0229  -21.6284  -47.9477 C.3       11 UNK         0.1400 
     19 N           0.2673  -21.7818  -46.5096 N.am      11 UNK        -0.5000 
     20 C           0.1380  -22.9260  -45.8255 C.2       10 UNK         0.5000 
     21 O          -0.1770  -23.9969  -46.3432 O.2       10 UNK        -0.5000 
     22 CA          0.3390  -22.8514  -44.3003 C.3       10 UNK         0.1400 
     23 CB          1.8306  -22.8365  -43.9338 C.3       10 UNK        -0.1800 
     24 N          -0.3340  -21.6943  -43.7068 N.am      10 UNK        -0.5000 
     25 C          -1.6654  -21.5420  -43.6671 C.2       9 UNK         0.5000 
     26 O          -2.4579  -22.3868  -44.0842 O.2       9 UNK        -0.5000 
     27 CA         -2.2065  -20.2108  -43.1125 C.3       9 UNK         0.1400 
     28 CB         -2.2377  -20.2317  -41.5774 C.3       9 UNK        -0.1800 
     29 N          -1.4479  -19.0489  -43.5785 N.am      9 UNK        -0.5000 
     30 C          -1.3623  -18.6661  -44.8615 C.2       8 UNK         0.5000 
     31 O          -1.9634  -19.2202  -45.7796 O.2       8 UNK        -0.5000 
     32 CA         -0.3989  -17.5117  -45.1883 C.3       8 UNK         0.1400 
     33 CB         -1.0630  -16.1522  -44.9282 C.3       8 UNK        -0.1800 
     34 N           0.8552  -17.5952  -44.4426 N.am      8 UNK        -0.5000 
     35 C           1.7182  -18.6177  -44.4986 C.2       7 UNK         0.5000 
     36 O           1.5556  -19.6102  -45.2034 O.2       7 UNK        -0.5000 
     37 CA          2.9263  -18.5553  -43.5520 C.3       7 UNK         0.1400 
     38 CB          3.9949  -17.5809  -44.0695 C.3       7 UNK        -0.1800 
     39 N           2.5237  -18.1795  -42.1980 N.am      7 UNK        -0.5000 
     40 C           1.8103  -18.9634  -41.3780 C.2       6 UNK         0.5000 
     41 O           1.4553  -20.1080  -41.6620 O.2       6 UNK        -0.5000 
     42 CA          1.4018  -18.3515  -40.0252 C.3       6 UNK         0.1400 
     43 CB          2.5267  -18.5208  -38.9931 C.3       6 UNK        -0.1800 
     44 N           1.0487  -16.9337  -40.1290 N.am      6 UNK        -0.5000 
     45 C          -0.0459  -16.4755  -40.7520 C.2       5 UNK         0.5000 
     46 O          -0.8783  -17.2023  -41.2945 O.2       5 UNK        -0.5000 
     47 CA         -0.2133  -14.9443  -40.8202 C.3       5 UNK         0.1400 
     48 CB         -0.8087  -14.4060  -39.5105 C.3       5 UNK        -0.1800 
     49 N           1.0234  -14.2157  -41.1310 N.am      5 UNK        -0.5000 
     50 C           1.7628  -14.4153  -42.2296 C.2       4 UNK         0.5000 
     51 O           1.5337  -15.3078  -43.0460 O.2       4 UNK        -0.5000 
     52 CA          2.9839  -13.5021  -42.4401 C.3       4 UNK         0.1400 
     53 CB          4.1880  -14.0335  -41.6470 C.3       4 UNK        -0.1800 
     54 N           3.3401  -13.4532  -43.8596 N.am      4 UNK        -0.5000 
     55 C           2.6353  -12.8028  -44.7947 C.2       3 UNK         0.5000 
     56 O           1.7473  -11.9889  -44.5263 O.2       3 UNK        -0.5000 
     57 CA          3.0192  -13.1132  -46.2585 C.3       3 UNK         0.1400 
     58 CB          2.9369  -14.6250  -46.5703 C.3       3 UNK        -0.1800 
     59 N           2.2534  -12.3434  -47.2437 N.am      3 UNK        -0.5000 
     60 C           0.9476  -12.4179  -47.5376 C.2       2 UNK         0.5000 
     61 O           0.1542  -13.1884  -46.9970 O.2       2 UNK        -0.5000 
     62 CA          0.4392  -11.5045  -48.6726 C.3       2 UNK         0.1400 
     63 CB          0.0834  -10.0984  -48.1530 C.3       2 UNK        -0.1800 
     64 N           1.3342  -11.4546  -49.8384 N.am      2 UNK        -0.5000 
     65 C           2.5517  -10.9018  -49.9604 C.2       1 UNK         0.5000 
     66 O           3.0837  -10.2285  -49.0765 O.2       1 UNK        -0.5000 
     67 C          -1.4560  -21.8651  -48.3244 C.2       11 UNK         0.5000 
     68 O          -1.7239  -22.3469  -49.4264 O.2       11 UNK        -0.5000 
     69 N          -2.3879  -21.5321  -47.4198 N.am      12 UNK        -0.5000 
     70 CA         -3.8056  -21.8628  -47.5354 C.3       12 UNK         0.1400 
     71 CB         -4.6383  -21.0540  -46.5304 C.3       12 UNK        -0.1800 
     72 C          -4.0384  -23.3708  -47.3813 C.2       12 UNK         0.5000 
     73 O          -4.6443  -23.9754  -48.2657 O.2       12 UNK        -0.5000 
     74 N          -3.5133  -23.9588  -46.2966 N.am      13 UNK        -0.5000 
     75 CA         -3.6073  -25.3878  -45.9827 C.3       13 UNK         0.1400 
     76 CB         -2.9356  -25.6631  -44.6297 C.3       13 UNK        -0.1800 
     77 C          -3.0224  -26.3002  -47.0769 C.2       13 UNK         0.5000 
     78 O          -3.6118  -27.3392  -47.3757 O.2       13 UNK        -0.5000 
     79 N          -1.9223  -25.8622  -47.7052 N.am      14 UNK        -0.5000 
     80 CA         -1.2802  -26.5093  -48.8535 C.3       14 UNK         0.1400 
     81 CB          0.0052  -25.7430  -49.2025 C.3       14 UNK        -0.1800 
     82 C          -2.1819  -26.6287  -50.1009 C.2       14 UNK         0.5000 
     83 O          -1.9618  -27.5236  -50.9178 O.2       14 UNK        -0.5000 
     84 N          -3.1810  -25.7449  -50.2165 N.am      15 UNK        -0.5000 
     85 CA         -4.1865  -25.7283  -51.2783 C.3       15 UNK         0.1400 
     86 CB         -4.2265  -24.3123  -51.8744 C.3       15 UNK        -0.1800 
     87 C          -5.5783  -26.1346  -50.7511 C.2       15 UNK         0.5000 
     88 O          -6.5724  -25.8828  -51.4330 O.2       15 UNK        -0.5000 
     89 N          -5.6461  -26.6985  -49.5332 N.am      16 UNK        -0.5000 
     90 CA         -6.8590  -27.0953  -48.8030 C.3       16 UNK         0.1400 
     91 CB         -7.5145  -28.3163  -49.4806 C.3       16 UNK        -0.1800 
     92 C          -7.8581  -25.9362  -48.5736 C.2       16 UNK         0.5000 
     93 O          -9.0643  -26.1707  -48.4849 O.2       16 UNK        -0.5000 
     94 N          -7.3320  -24.7035  -48.5066 N.am      17 UNK        -0.5000 
     95 CA         -8.0309  -23.4192  -48.3994 C.3       17 UNK         0.1400 
     96 CB         -8.7528  -23.3019  -47.0418 C.3       17 UNK        -0.1800 
     97 C          -8.9505  -23.0931  -49.5989 C.2       17 UNK         0.5000 
     98 O          -9.8291  -22.2388  -49.4723 O.2       17 UNK        -0.5000 
     99 N          -8.7349  -23.7532  -50.7475 N.am      18 UNK        -0.5000 
    100 CA        -9.5532  -23.5948  -51.9534 C.3       18 UNK         0.1400 
    101 CB        -9.3747  -24.8335  -52.8445 C.3       18 UNK        -0.1800 
    102 C         -9.2364  -22.3146  -52.7507 C.2       18 UNK         0.5000 
    103 O        -10.0836  -21.8644  -53.5234 O.2       18 UNK        -0.5000 
    104 N         -8.0332  -21.7584  -52.5605 N.am      19 UNK        -0.5000 
    105 CA        -7.5392  -20.5587  -53.2432 C.3       19 UNK         0.1400 
    106 CB        -7.2168  -20.8669  -54.7189 C.3       19 UNK        -0.1800 
    107 C         -6.3022  -19.9703  -52.5452 C.2       19 UNK         0.5000 
    108 O         -6.1260  -18.7525  -52.5760 O.2       19 UNK        -0.5000 
    109 N         -5.4892  -20.8485  -51.9350 N.am      20 UNK        -0.5000 
    110 CA        -4.1735  -20.6128  -51.3251 C.3       20 UNK         0.1400 
    111 CB        -4.1621  -19.4197  -50.3474 C.3       20 UNK        -0.1800 
    112 C         -3.0567  -20.4987  -52.3757 C.2       20 UNK         0.5000 
    113 O         -3.2732  -19.9888  -53.4758 O.2       20 UNK        -0.5000 
    114 N         -1.8635  -20.9769  -52.0066 N.am      21 UNK        -0.5000 
    115 CA        -0.6691  -21.0601  -52.8537 C.3       21 UNK         0.1400 
    116 CB         0.2631  -22.1327  -52.2588 C.3       21 UNK        -0.1800 
    117 C          0.0615  -19.7137  -53.0847 C.2       21 UNK         0.5000 
    118 O          1.2690  -19.7166  -53.3287 O.2       21 UNK        -0.5000 
    119 N         -0.6586  -18.5896  -52.9929 N.am      22 UNK        -0.5000 
    120 CA        -0.1427  -17.2299  -53.2039 C.3       22 UNK         0.1400 
    121 C          0.2389  -16.9666  -54.6858 C.2       22 UNK         0.5000 
    122 N          1.4140  -16.4087  -54.9451 N.am      22 UNK        -0.7600 
    123 O         -0.5407  -17.2263  -55.5995 O.2       22 UNK        -0.5000 
    124 C124       -1.1300  -16.1423  -52.6986 C.3       23 UNK        -0.0398 
    125 S125       -1.6873  -16.3800  -50.9733 S.3       23 UNK        -0.2404 
    126 C126       -0.4624  -15.4060  -50.0310 C.3       23 UNK        -0.0205 
    127 H127        1.0963  -12.2298  -55.0065 H         1 UNK         0.0600 
    128 H128       -0.1262  -12.5594  -53.7746 H         1 UNK         0.0600 
    129 H129        1.3450  -13.5321  -53.8407 H         1 UNK         0.0600 
    130 H130        2.8465  -12.9666  -52.3063 H         1 UNK         0.3000 
    131 H131        3.5485  -10.2359  -51.7141 H         1 UNK         0.0600 
    132 H132        5.2378  -12.0975  -51.8956 H         1 UNK         0.0800 
    133 H133        5.3647  -11.1296  -50.4676 H         1 UNK         0.0800 
    134 H134        5.3797  -15.2576  -51.1702 H         1 UNK         0.0800 
    135 H135        4.2365  -14.3100  -52.0803 H         1 UNK         0.0800 
    136 H136        1.8216  -14.0678  -50.6760 H         1 UNK         0.1150 
    137 H137        0.3749  -17.9535  -49.7031 H         1 UNK         0.1150 
    138 H138        4.5314  -17.3851  -50.5924 H         1 UNK         0.1150 
    139 H139        2.1799  -19.8711  -50.7645 H         1 UNK         0.0800 
    140 H140        3.7841  -19.5672  -50.1679 H         1 UNK         0.0800 
    141 H141        0.2014  -20.1502  -49.5233 H         1 UNK         0.0800 
    142 H142       -0.0010  -19.4504  -47.9320 H         1 UNK         0.0800 
    143 H143        0.6008  -22.4014  -48.4588 H         1 UNK         0.0600 
    144 H144        0.5963  -20.9534  -46.0161 H         1 UNK         0.3000 
    145 H145       -0.1009  -23.7510  -43.8651 H         1 UNK         0.0600 
    146 H146        1.9700  -22.8330  -42.8526 H         1 UNK         0.0600 
    147 H147        2.3353  -23.7206  -44.3250 H         1 UNK         0.0600 
    148 H148        2.3418  -21.9632  -44.3380 H         1 UNK         0.0600 
    149 H149        0.2577  -20.9611  -43.3346 H         1 UNK         0.3000 
    150 H150       -3.2328  -20.0994  -43.4680 H         1 UNK         0.0600 
    151 H151       -2.8067  -21.0865  -41.2096 H         1 UNK         0.0600 
    152 H152       -2.7101  -19.3327  -41.1813 H         1 UNK         0.0600 
    153 H153       -1.2354  -20.2968  -41.1537 H         1 UNK         0.0600 
    154 H154       -0.9647  -18.5053  -42.8710 H         1 UNK         0.3000 
    155 H155       -0.1528  -17.5720  -46.2503 H         1 UNK         0.0600 
    156 H156       -1.3106  -16.0207  -43.8745 H         1 UNK         0.0600 
    157 H157       -1.9858  -16.0517  -45.5006 H         1 UNK         0.0600 
    158 H158       -0.4075  -15.3317  -45.2210 H         1 UNK         0.0600 
    159 H159        1.0785  -16.7996  -43.8451 H         1 UNK         0.3000 
    160 H160        3.3706  -19.5523  -43.5133 H         1 UNK         0.0600 
    161 H161        3.6325  -16.5541  -44.0836 H         1 UNK         0.0600 
    162 H162        4.2959  -17.8371  -45.0863 H         1 UNK         0.0600 
    163 H163        4.8892  -17.6112  -43.4471 H         1 UNK         0.0600 
    164 H164        2.7146  -17.2307  -41.9137 H         1 UNK         0.3000 
    165 H165        0.5258  -18.8961  -39.6661 H         1 UNK         0.0600 
    166 H166        2.2184  -18.1608  -38.0114 H         1 UNK         0.0600 
    167 H167        2.7988  -19.5713  -38.8821 H         1 UNK         0.0600 
    168 H168        3.4268  -17.9773  -39.2833 H         1 UNK         0.0600 
    169 H169        1.6851  -16.2682  -39.7156 H         1 UNK         0.3000 
    170 H170       -0.9224  -14.7340  -41.6235 H         1 UNK         0.0600 
    171 H171       -1.7384  -14.9205  -39.2635 H         1 UNK         0.0600 
    172 H172       -0.1257  -14.5409  -38.6710 H         1 UNK         0.0600 
    173 H173       -1.0390  -13.3433  -39.5891 H         1 UNK         0.0600 
    174 H174        1.2828  -13.4775  -40.4925 H         1 UNK         0.3000 
    175 H175        2.7414  -12.4952  -42.0941 H         1 UNK         0.0600 
    176 H176        4.4595  -15.0449  -41.9527 H         1 UNK         0.0600 
    177 H177        5.0618  -13.3964  -41.7845 H         1 UNK         0.0600 
    178 H178        3.9733  -14.0604  -40.5779 H         1 UNK         0.0600 
    179 H179        4.0482  -14.1062  -44.1585 H         1 UNK         0.3000 
    180 H180        4.0563  -12.8002  -46.3867 H         1 UNK         0.0600 
    181 H181        3.0786  -14.8210  -47.6332 H         1 UNK         0.0600 
    182 H182        1.9749  -15.0492  -46.2799 H         1 UNK         0.0600 
    183 H183        3.7110  -15.1796  -46.0417 H         1 UNK         0.0600 
    184 H184        2.7810  -11.6362  -47.7452 H         1 UNK         0.3000 
    185 H185       -0.4853  -11.9534  -49.0397 H         1 UNK         0.0600 
    186 H186       -0.3021   -9.4674  -48.9538 H         1 UNK         0.0600 
    187 H187       -0.6874  -10.1565  -47.3837 H         1 UNK         0.0600 
    188 H188        0.9420   -9.5941  -47.7096 H         1 UNK         0.0600 
    189 H189        1.0073  -11.9732  -50.6396 H         1 UNK         0.3000 
    190 H190       -2.1042  -21.0320  -46.5835 H         1 UNK         0.3000 
    191 H191       -4.1449  -21.5838  -48.5303 H         1 UNK         0.0600 
    192 H192       -4.3488  -21.2560  -45.5002 H         1 UNK         0.0600 
    193 H193       -5.6990  -21.2896  -46.6244 H         1 UNK         0.0600 
    194 H194       -4.5272  -19.9834  -46.7033 H         1 UNK         0.0600 
    195 H195       -3.0362  -23.3798  -45.6099 H         1 UNK         0.3000 
    196 H196       -4.6682  -25.6291  -45.8903 H         1 UNK         0.0600 
    197 H197       -3.0167  -26.7166  -44.3591 H         1 UNK         0.0600 
    198 H198       -3.4039  -25.0856  -43.8325 H         1 UNK         0.0600 
    199 H199       -1.8757  -25.4086  -44.6482 H         1 UNK         0.0600 
    200 H200       -1.4643  -25.0295  -47.3437 H         1 UNK         0.3000 
    201 H201       -1.0061  -27.5217  -48.5506 H         1 UNK         0.0600 
    202 H202        0.6963  -25.7256  -48.3598 H         1 UNK         0.0600 
    203 H203       -0.2078  -24.7109  -49.4833 H         1 UNK         0.0600 
    204 H204        0.5263  -26.2101  -50.0392 H         1 UNK         0.0600 
    205 H205       -3.3093  -25.0565  -49.4833 H         1 UNK         0.3000 
    206 H206       -3.9223  -26.4292  -52.0721 H         1 UNK         0.0600 
    207 H207       -3.2331  -23.9744  -52.1710 H         1 UNK         0.0600 
    208 H208       -4.8629  -24.2737  -52.7594 H         1 UNK         0.0600 
    209 H209       -4.6239  -23.6052  -51.1484 H         1 UNK         0.0600 
    210 H210       -4.7783  -26.8495  -49.0310 H         1 UNK         0.3000 
    211 H211       -6.5269  -27.4056  -47.8114 H         1 UNK         0.0600 
    212 H212       -7.9272  -28.0627  -50.4576 H         1 UNK         0.0600 
    213 H213       -8.3294  -28.7124  -48.8738 H         1 UNK         0.0600 
    214 H214       -6.7948  -29.1230  -49.6195 H         1 UNK         0.0600 
    215 H215       -6.3183  -24.6232  -48.5641 H         1 UNK         0.3000 
    216 H216       -7.2496  -22.6583  -48.4167 H         1 UNK         0.0600 
    217 H217       -9.1397  -22.2940  -46.8879 H         1 UNK         0.0600 
    218 H218       -8.0739  -23.5153  -46.2160 H         1 UNK         0.0600 
    219 H219       -9.5958  -23.9895  -46.9705 H         1 UNK         0.0600 
    220 H220       -8.0066  -24.4585  -50.7861 H         1 UNK         0.3000 
    221 H221      -10.6027  -23.5455  -51.6550 H         1 UNK         0.0600 
    222 H222       -8.3544  -24.9141  -53.2212 H         1 UNK         0.0600 
    223 H223       -9.6045  -25.7496  -52.2999 H         1 UNK         0.0600 
    224 H224      -10.0394  -24.7922  -53.7082 H         1 UNK         0.0600 
    225 H225       -7.4443  -22.1535  -51.8442 H         1 UNK         0.3000 
    226 H226       -8.3210  -19.7969  -53.2064 H         1 UNK         0.0600 
    227 H227       -8.1081  -21.1600  -55.2733 H         1 UNK         0.0600 
    228 H228       -6.8027  -19.9907  -55.2198 H         1 UNK         0.0600 
    229 H229       -6.4864  -21.6717  -54.8091 H         1 UNK         0.0600 
    230 H230       -5.7053  -21.8234  -52.0694 H         1 UNK         0.3000 
    231 H231       -3.9656  -21.5082  -50.7436 H         1 UNK         0.0600 
    232 H232       -4.9932  -19.4722  -49.6442 H         1 UNK         0.0600 
    233 H233       -4.2189  -18.4627  -50.8664 H         1 UNK         0.0600 
    234 H234       -3.2413  -19.4081  -49.7628 H         1 UNK         0.0600 
    235 H235       -1.7780  -21.4023  -51.0871 H         1 UNK         0.3000 
    236 H236       -0.9821  -21.4098  -53.8395 H         1 UNK         0.0600 
    237 H237        1.1217  -22.3161  -52.9058 H         1 UNK         0.0600 
    238 H238        0.6443  -21.8377  -51.2812 H         1 UNK         0.0600 
    239 H239       -0.2562  -23.0841  -52.1390 H         1 UNK         0.0600 
    240 H240       -1.6577  -18.6752  -52.8654 H         1 UNK         0.3000 
    241 H241        0.7735  -17.1481  -52.6204 H         1 UNK         0.0600 
    242 H242        1.6648  -16.2232  -55.9038 H         1 UNK         0.3800 
    243 H243        2.0792  -16.2147  -54.2137 H         1 UNK         0.3800 
    244 H244       -0.6818  -15.1514  -52.7891 H         1 UNK         0.0800 
    245 H245       -2.0223  -16.1265  -53.3270 H         1 UNK         0.0800 
    246 H246       -0.5103  -14.3661  -50.3567 H         1 UNK         0.0800 
    247 H247       -0.7414  -15.4116  -48.9763 H         1 UNK         0.0800 
@<TRIPOS>BOND
     1    1    2 1    
     2    1  127 1    
     3    1  128 1    
     4    1  129 1    
     5    2    3 2    
     6    2    4 am   BACKBONE|DICT|INTERRES
     7    4    5 1    
     8    4  130 1    
     9    5    6 1    
    10    5   65 1    
    11    5  131 1    
    12    6    7 1    
    13    6  132 1    
    14    6  133 1    
    15    7    8 1    
    16    8    9 1    
    17    8  134 1    
    18    8  135 1    
    19    9   10 ar   
    20    9   14 ar   
    21   10   11 ar   
    22   10  136 1    
    23   11   12 ar   
    24   11  126 1    
    25   12   13 ar   
    26   12  137 1    
    27   13   14 ar   
    28   13   15 1    
    29   14  138 1    
    30   15   16 1    
    31   15  139 1    
    32   15  140 1    
    33   16   17 1    
    34   17   18 1    
    35   17  141 1    
    36   17  142 1    
    37   18   19 1    
    38   18   67 1    
    39   18  143 1    
    40   19   20 am   BACKBONE|DICT|INTERRES
    41   19  144 1    
    42   20   21 2    
    43   20   22 1    
    44   22   23 1    
    45   22   24 1    
    46   22  145 1    
    47   23  146 1    
    48   23  147 1    
    49   23  148 1    
    50   24   25 am   BACKBONE|DICT|INTERRES
    51   24  149 1    
    52   25   26 2    
    53   25   27 1    
    54   27   28 1    
    55   27   29 1    
    56   27  150 1    
    57   28  151 1    
    58   28  152 1    
    59   28  153 1    
    60   29   30 am   BACKBONE|DICT|INTERRES
    61   29  154 1    
    62   30   31 2    
    63   30   32 1    
    64   32   33 1    
    65   32   34 1    
    66   32  155 1    
    67   33  156 1    
    68   33  157 1    
    69   33  158 1    
    70   34   35 am   BACKBONE|DICT|INTERRES
    71   34  159 1    
    72   35   36 2    
    73   35   37 1    
    74   37   38 1    
    75   37   39 1    
    76   37  160 1    
    77   38  161 1    
    78   38  162 1    
    79   38  163 1    
    80   39   40 am   BACKBONE|DICT|INTERRES
    81   39  164 1    
    82   40   41 2    
    83   40   42 1    
    84   42   43 1    
    85   42   44 1    
    86   42  165 1    
    87   43  166 1    
    88   43  167 1    
    89   43  168 1    
    90   44   45 am   BACKBONE|DICT|INTERRES
    91   44  169 1    
    92   45   46 2    
    93   45   47 1    
    94   47   48 1    
    95   47   49 1    
    96   47  170 1    
    97   48  171 1    
    98   48  172 1    
    99   48  173 1    
   100   49   50 am   BACKBONE|DICT|INTERRES
   101   49  174 1    
   102   50   51 2    
   103   50   52 1    
   104   52   53 1    
   105   52   54 1    
   106   52  175 1    
   107   53  176 1    
   108   53  177 1    
   109   53  178 1    
   110   54   55 am   BACKBONE|DICT|INTERRES
   111   54  179 1    
   112   55   56 2    
   113   55   57 1    
   114   57   58 1    
   115   57   59 1    
   116   57  180 1    
   117   58  181 1    
   118   58  182 1    
   119   58  183 1    
   120   59   60 am   BACKBONE|DICT|INTERRES
   121   59  184 1    
   122   60   61 2    
   123   60   62 1    
   124   62   63 1    
   125   62   64 1    
   126   62  185 1    
   127   63  186 1    
   128   63  187 1    
   129   63  188 1    
   130   64   65 am   BACKBONE|DICT|INTERRES
   131   64  189 1    
   132   65   66 2    
   133   67   68 2    
   134   67   69 am   BACKBONE|DICT|INTERRES
   135   69   70 1    
   136   69  190 1    
   137   70   71 1    
   138   70   72 1    
   139   70  191 1    
   140   71  192 1    
   141   71  193 1    
   142   71  194 1    
   143   72   73 2    
   144   72   74 am   BACKBONE|DICT|INTERRES
   145   74   75 1    
   146   74  195 1    
   147   75   76 1    
   148   75   77 1    
   149   75  196 1    
   150   76  197 1    
   151   76  198 1    
   152   76  199 1    
   153   77   78 2    
   154   77   79 am   BACKBONE|DICT|INTERRES
   155   79   80 1    
   156   79  200 1    
   157   80   81 1    
   158   80   82 1    
   159   80  201 1    
   160   81  202 1    
   161   81  203 1    
   162   81  204 1    
   163   82   83 2    
   164   82   84 am   BACKBONE|DICT|INTERRES
   165   84   85 1    
   166   84  205 1    
   167   85   86 1    
   168   85   87 1    
   169   85  206 1    
   170   86  207 1    
   171   86  208 1    
   172   86  209 1    
   173   87   88 2    
   174   87   89 am   BACKBONE|DICT|INTERRES
   175   89   90 1    
   176   89  210 1    
   177   90   91 1    
   178   90   92 1    
   179   90  211 1    
   180   91  212 1    
   181   91  213 1    
   182   91  214 1    
   183   92   93 2    
   184   92   94 am   BACKBONE|DICT|INTERRES
   185   94   95 1    
   186   94  215 1    
   187   95   96 1    
   188   95   97 1    
   189   95  216 1    
   190   96  217 1    
   191   96  218 1    
   192   96  219 1    
   193   97   98 2    
   194   97   99 am   BACKBONE|DICT|INTERRES
   195   99  100 1    
   196   99  220 1    
   197  100  101 1    
   198  100  102 1    
   199  100  221 1    
   200  101  222 1    
   201  101  223 1    
   202  101  224 1    
   203  102  103 2    
   204  102  104 am   BACKBONE|DICT|INTERRES
   205  104  105 1    
   206  104  225 1    
   207  105  106 1    
   208  105  107 1    
   209  105  226 1    
   210  106  227 1    
   211  106  228 1    
   212  106  229 1    
   213  107  108 2    
   214  107  109 am   BACKBONE|DICT|INTERRES
   215  109  110 1    
   216  109  230 1    
   217  110  111 1    
   218  110  112 1    
   219  110  231 1    
   220  111  232 1    
   221  111  233 1    
   222  111  234 1    
   223  112  113 2    
   224  112  114 am   BACKBONE|DICT|INTERRES
   225  114  115 1    
   226  114  235 1    
   227  115  116 1    
   228  115  117 1    
   229  115  236 1    
   230  116  237 1    
   231  116  238 1    
   232  116  239 1    
   233  117  118 2    
   234  117  119 am   BACKBONE|DICT|INTERRES
   235  119  120 1    
   236  119  240 1    
   237  120  121 1    
   238  120  124 1    
   239  120  241 1    
   240  121  122 am   BACKBONE|DICT|INTERRES
   241  121  123 2    
   242  122  242 1    
   243  122  243 1    
   244  124  125 1    
   245  124  244 1    
   246  124  245 1    
   247  125  126 1    
   248  126  246 1    
   249  126  247 1    
@<TRIPOS>SUBSTRUCTURE
     1 UNK         1 GROUP             0       ****    0 ROOT    
