@<TRIPOS>MOLECULE
3R540
247   249    1
SMALL
USER_CHARGES


@<TRIPOS>ATOM
      1 CA          0.6870  -13.2824  -53.4105 C.3       0 UNK        -0.1800 
      2 C           1.2876  -12.6029  -52.1871 C.2       0 UNK         0.5000 
      3 O           2.1021  -11.6912  -52.3312 O.2       0 UNK        -0.5000 
      4 N           0.8825  -13.0440  -50.9929 N.am      1 UNK        -0.5000 
      5 CA          1.2844  -12.5101  -49.6891 C.3       1 UNK         0.1400 
      6 C6          2.3139  -13.4151  -48.9574 C.3       23 UNK        -0.0398 
      7 S7          3.8889  -13.5871  -49.8636 S.3       23 UNK        -0.2404 
      8 C8          4.4044  -15.2760  -49.3945 C.3       23 UNK        -0.0205 
      9 C9          3.5003  -16.4192  -49.8629 C.ar      23 UNK        -0.0193 
     10 C10         2.5150  -16.2615  -50.8487 C.ar      23 UNK        -0.1150 
     11 C11         1.6995  -17.3324  -51.2234 C.ar      23 UNK        -0.0193 
     12 C12         1.8997  -18.5824  -50.6396 C.ar      23 UNK        -0.1150 
     13 C13         2.8862  -18.7622  -49.6696 C.ar      23 UNK        -0.0193 
     14 C14         3.6766  -17.6786  -49.2802 C.ar      23 UNK        -0.1150 
     15 C15         3.0827  -20.1322  -49.0499 C.3       23 UNK        -0.0205 
     16 S16         1.7257  -20.5163  -47.9073 S.3       23 UNK        -0.2404 
     17 C17         1.5723  -22.3091  -48.1881 C.3       23 UNK        -0.0398 
     18 CA          0.5923  -23.0166  -47.2274 C.3       11 UNK         0.1400 
     19 N           0.9412  -22.8190  -45.8217 N.am      11 UNK        -0.5000 
     20 C           0.4944  -23.5718  -44.8102 C.2       10 UNK         0.5000 
     21 O          -0.2960  -24.5030  -44.9704 O.2       10 UNK        -0.5000 
     22 CA          0.9566  -23.2105  -43.3845 C.3       10 UNK         0.1400 
     23 CB          1.4970  -24.4387  -42.6262 C.3       10 UNK        -0.1800 
     24 N           1.8921  -22.0807  -43.3102 N.am      10 UNK        -0.5000 
     25 C           3.1662  -22.0042  -43.7245 C.2       9 UNK         0.5000 
     26 O           3.7731  -22.9354  -44.2533 O.2       9 UNK        -0.5000 
     27 CA          3.8810  -20.6465  -43.5469 C.3       9 UNK         0.1400 
     28 CB          4.0645  -19.9569  -44.9080 C.3       9 UNK        -0.1800 
     29 N           3.1746  -19.7272  -42.6516 N.am      9 UNK        -0.5000 
     30 C           3.1061  -19.8485  -41.3189 C.2       8 UNK         0.5000 
     31 O           3.7172  -20.7030  -40.6767 O.2       8 UNK        -0.5000 
     32 CA          2.1506  -18.8841  -40.5900 C.3       8 UNK         0.1400 
     33 CB          2.8515  -17.5545  -40.2738 C.3       8 UNK        -0.1800 
     34 N           0.9188  -18.6297  -41.3450 N.am      8 UNK        -0.5000 
     35 C          -0.0082  -19.5602  -41.6185 C.2       7 UNK         0.5000 
     36 O           0.0585  -20.7229  -41.2224 O.2       7 UNK        -0.5000 
     37 CA         -1.1827  -19.1473  -42.5208 C.3       7 UNK         0.1400 
     38 CB         -2.2694  -18.4302  -41.7073 C.3       7 UNK        -0.1800 
     39 N          -0.7524  -18.3072  -43.6384 N.am      7 UNK        -0.5000 
     40 C          -0.0461  -18.7447  -44.6905 C.2       6 UNK         0.5000 
     41 O           0.2132  -19.9340  -44.8802 O.2       6 UNK        -0.5000 
     42 CA          0.4798  -17.6829  -45.6801 C.3       6 UNK         0.1400 
     43 CB         -0.5097  -17.4394  -46.8250 C.3       6 UNK        -0.1800 
     44 N           0.7937  -16.4067  -45.0386 N.am      6 UNK        -0.5000 
     45 C           1.8019  -16.2323  -44.1745 C.2       5 UNK         0.5000 
     46 O           2.5800  -17.1258  -43.8420 O.2       5 UNK        -0.5000 
     47 CA          1.9242  -14.8400  -43.5354 C.3       5 UNK         0.1400 
     48 CB          2.6018  -13.8483  -44.4948 C.3       5 UNK        -0.1800 
     49 N           0.6210  -14.3205  -43.1198 N.am      5 UNK        -0.5000 
     50 C          -0.0923  -14.8102  -42.0955 C.2       4 UNK         0.5000 
     51 O           0.2870  -15.7387  -41.3828 O.2       4 UNK        -0.5000 
     52 CA         -1.4776  -14.1843  -41.8493 C.3       4 UNK         0.1400 
     53 CB         -1.3511  -12.9035  -41.0111 C.3       4 UNK        -0.1800 
     54 N          -2.1930  -13.8830  -43.0896 N.am      4 UNK        -0.5000 
     55 C          -2.6212  -14.8066  -43.9618 C.2       3 UNK         0.5000 
     56 O          -2.4852  -16.0165  -43.7979 O.2       3 UNK        -0.5000 
     57 CA         -3.2584  -14.2906  -45.2636 C.3       3 UNK         0.1400 
     58 CB         -4.7640  -14.0553  -45.0731 C.3       3 UNK        -0.1800 
     59 N          -2.6324  -13.0671  -45.7714 N.am      3 UNK        -0.5000 
     60 C          -1.3445  -12.9637  -46.1232 C.2       2 UNK         0.5000 
     61 O          -0.5240  -13.8785  -46.0041 O.2       2 UNK        -0.5000 
     62 CA         -0.8901  -11.5904  -46.6522 C.3       2 UNK         0.1400 
     63 CB         -0.3618  -10.7299  -45.4939 C.3       2 UNK        -0.1800 
     64 N           0.1574  -11.7122  -47.6663 N.am      2 UNK        -0.5000 
     65 C           0.0117  -12.3455  -48.8378 C.2       1 UNK         0.5000 
     66 O          -1.0652  -12.8001  -49.2385 O.2       1 UNK        -0.5000 
     67 C          -0.8806  -22.6687  -47.5195 C.2       11 UNK         0.5000 
     68 O          -1.4907  -23.3225  -48.3653 O.2       11 UNK        -0.5000 
     69 N          -1.4488  -21.7035  -46.7778 N.am      12 UNK        -0.5000 
     70 CA         -2.8746  -21.3722  -46.8304 C.3       12 UNK         0.1400 
     71 CB         -3.1618  -20.1160  -45.9962 C.3       12 UNK        -0.1800 
     72 C          -3.7628  -22.5363  -46.3632 C.2       12 UNK         0.5000 
     73 O          -4.7814  -22.8107  -46.9956 O.2       12 UNK        -0.5000 
     74 N          -3.3388  -23.2182  -45.2906 N.am      13 UNK        -0.5000 
     75 CA         -4.0124  -24.3946  -44.7431 C.3       13 UNK         0.1400 
     76 CB         -3.4793  -24.6774  -43.3300 C.3       13 UNK        -0.1800 
     77 C          -3.8569  -25.6292  -45.6484 C.2       13 UNK         0.5000 
     78 O          -4.8113  -26.3927  -45.7964 O.2       13 UNK        -0.5000 
     79 N          -2.6665  -25.7939  -46.2433 N.am      14 UNK        -0.5000 
     80 CA         -2.3480  -26.8777  -47.1724 C.3       14 UNK         0.1400 
     81 CB         -0.8335  -26.9118  -47.4263 C.3       14 UNK        -0.1800 
     82 C          -3.1221  -26.7717  -48.4991 C.2       14 UNK         0.5000 
     83 O          -3.6605  -27.7769  -48.9648 O.2       14 UNK        -0.5000 
     84 N          -3.1680  -25.5641  -49.0804 N.am      15 UNK        -0.5000 
     85 CA         -3.8952  -25.2788  -50.3175 C.3       15 UNK         0.1400 
     86 CB         -3.4170  -23.9398  -50.8984 C.3       15 UNK        -0.1800 
     87 C          -5.4180  -25.2569  -50.1042 C.2       15 UNK         0.5000 
     88 O          -6.1505  -25.8234  -50.9154 O.2       15 UNK        -0.5000 
     89 N          -5.8560  -24.5913  -49.0233 N.am      16 UNK        -0.5000 
     90 CA         -7.2424  -24.3985  -48.5771 C.3       16 UNK         0.1400 
     91 CB         -7.8874  -25.7510  -48.2108 C.3       16 UNK        -0.1800 
     92 C          -8.1274  -23.5716  -49.5381 C.2       16 UNK         0.5000 
     93 O          -9.3371  -23.4872  -49.3184 O.2       16 UNK        -0.5000 
     94 N          -7.5280  -22.9661  -50.5702 N.am      17 UNK        -0.5000 
     95 CA         -8.1759  -22.2307  -51.6508 C.3       17 UNK         0.1400 
     96 CB         -9.0204  -23.1935  -52.5163 C.3       17 UNK        -0.1800 
     97 C          -7.0959  -21.5406  -52.5024 C.2       17 UNK         0.5000 
     98 O          -5.8994  -21.6963  -52.2343 O.2       17 UNK        -0.5000 
     99 N          -7.5492  -20.8057  -53.5288 N.am      18 UNK        -0.5000 
    100 CA        -6.7592  -20.2169  -54.6176 C.3       18 UNK         0.1400 
    101 CB        -6.1839  -21.3325  -55.5163 C.3       18 UNK        -0.1800 
    102 C         -5.6808  -19.2201  -54.1486 C.2       18 UNK         0.5000 
    103 O         -4.5974  -19.1744  -54.7331 O.2       18 UNK        -0.5000 
    104 N         -5.9903  -18.4539  -53.0909 N.am      19 UNK        -0.5000 
    105 CA        -5.1269  -17.4519  -52.4511 C.3       19 UNK         0.1400 
    106 CB        -4.9472  -16.2283  -53.3749 C.3       19 UNK        -0.1800 
    107 C         -3.7833  -18.0515  -51.9859 C.2       19 UNK         0.5000 
    108 O         -2.7213  -17.5337  -52.3312 O.2       19 UNK        -0.5000 
    109 N         -3.8666  -19.1813  -51.2661 N.am      20 UNK        -0.5000 
    110 CA        -2.7463  -20.0186  -50.8156 C.3       20 UNK         0.1400 
    111 CB        -1.8897  -19.2844  -49.7643 C.3       20 UNK        -0.1800 
    112 C         -1.9221  -20.5920  -51.9897 C.2       20 UNK         0.5000 
    113 O         -0.7024  -20.7194  -51.8932 O.2       20 UNK        -0.5000 
    114 N         -2.6277  -20.9121  -53.0829 N.am      21 UNK        -0.5000 
    115 CA        -2.1363  -21.4123  -54.3693 C.3       21 UNK         0.1400 
    116 CB        -1.3732  -22.7436  -54.2036 C.3       21 UNK        -0.1800 
    117 C         -1.3614  -20.3808  -55.2212 C.2       21 UNK         0.5000 
    118 O         -0.7877  -20.7724  -56.2397 O.2       21 UNK        -0.5000 
    119 N         -1.3807  -19.0924  -54.8471 N.am      22 UNK        -0.5000 
    120 CA        -0.8607  -17.9940  -55.6846 C.3       22 UNK         0.1400 
    121 C         -1.8572  -17.5106  -56.7796 C.2       22 UNK         0.5000 
    122 N         -3.1328  -17.8751  -56.7468 N.am      22 UNK        -0.7600 
    123 O         -1.4577  -16.7963  -57.6953 O.2       22 UNK        -0.5000 
    124 C124       -0.3428  -16.7955  -54.8492 C.3       23 UNK        -0.0398 
    125 S125        1.1897  -17.1822  -53.9377 S.3       23 UNK        -0.2404 
    126 C126        0.5805  -17.1358  -52.2310 C.3       23 UNK        -0.0205 
    127 H127        0.3027  -12.5366  -54.1062 H         1 UNK         0.0600 
    128 H128        1.4485  -13.8698  -53.9238 H         1 UNK         0.0600 
    129 H129       -0.1335  -13.9484  -53.1429 H         1 UNK         0.0600 
    130 H130        0.1350  -13.7227  -50.9369 H         1 UNK         0.3000 
    131 H131        1.7131  -11.5134  -49.8128 H         1 UNK         0.0600 
    132 H132        1.8838  -14.4012  -48.7741 H         1 UNK         0.0800 
    133 H133        2.5588  -13.0104  -47.9743 H         1 UNK         0.0800 
    134 H134        4.4974  -15.3117  -48.3078 H         1 UNK         0.0800 
    135 H135        5.4044  -15.4481  -49.7945 H         1 UNK         0.0800 
    136 H136        2.3658  -15.3067  -51.3275 H         1 UNK         0.1150 
    137 H137        1.2773  -19.4174  -50.9272 H         1 UNK         0.1150 
    138 H138        4.4347  -17.8169  -48.5219 H         1 UNK         0.1150 
    139 H139        3.1288  -20.8743  -49.8483 H         1 UNK         0.0800 
    140 H140        4.0317  -20.1914  -48.5148 H         1 UNK         0.0800 
    141 H141        2.5623  -22.7547  -48.0798 H         1 UNK         0.0800 
    142 H142        1.2788  -22.4797  -49.2259 H         1 UNK         0.0800 
    143 H143        0.6941  -24.0851  -47.4241 H         1 UNK         0.0600 
    144 H144        1.5210  -22.0194  -45.6096 H         1 UNK         0.3000 
    145 H145        0.0569  -22.8802  -42.8646 H         1 UNK         0.0600 
    146 H146        1.7945  -24.1750  -41.6113 H         1 UNK         0.0600 
    147 H147        0.7351  -25.2152  -42.5486 H         1 UNK         0.0600 
    148 H148        2.3589  -24.8803  -43.1268 H         1 UNK         0.0600 
    149 H149        1.4965  -21.2440  -42.9023 H         1 UNK         0.3000 
    150 H150        4.8689  -20.8487  -43.1283 H         1 UNK         0.0600 
    151 H151        4.5896  -20.6025  -45.6131 H         1 UNK         0.0600 
    152 H152        4.6461  -19.0401  -44.8104 H         1 UNK         0.0600 
    153 H153        3.1050  -19.6951  -45.3535 H         1 UNK         0.0600 
    154 H154        2.7097  -18.9367  -43.0892 H         1 UNK         0.3000 
    155 H155        1.8704  -19.3507  -39.6433 H         1 UNK         0.0600 
    156 H156        3.1312  -17.0191  -41.1810 H         1 UNK         0.0600 
    157 H157        3.7617  -17.7203  -39.6963 H         1 UNK         0.0600 
    158 H158        2.2080  -16.9008  -39.6848 H         1 UNK         0.0600 
    159 H159        0.7670  -17.6755  -41.6555 H         1 UNK         0.3000 
    160 H160       -1.6192  -20.0614  -42.9276 H         1 UNK         0.0600 
    161 H161       -3.1478  -18.2270  -42.3199 H         1 UNK         0.0600 
    162 H162       -1.9132  -17.4814  -41.3058 H         1 UNK         0.0600 
    163 H163       -2.5961  -19.0421  -40.8656 H         1 UNK         0.0600 
    164 H164       -1.0276  -17.3310  -43.6032 H         1 UNK         0.3000 
    165 H165        1.4028  -18.0702  -46.1156 H         1 UNK         0.0600 
    166 H166       -0.1164  -16.7161  -47.5399 H         1 UNK         0.0600 
    167 H167       -0.6904  -18.3643  -47.3712 H         1 UNK         0.0600 
    168 H168       -1.4672  -17.0661  -46.4604 H         1 UNK         0.0600 
    169 H169        0.2130  -15.6095  -45.2806 H         1 UNK         0.3000 
    170 H170        2.5533  -14.9333  -42.6476 H         1 UNK         0.0600 
    171 H171        3.5951  -14.1996  -44.7768 H         1 UNK         0.0600 
    172 H172        2.7233  -12.8701  -44.0295 H         1 UNK         0.0600 
    173 H173        2.0320  -13.7135  -45.4141 H         1 UNK         0.0600 
    174 H174        0.2089  -13.6083  -43.7042 H         1 UNK         0.3000 
    175 H175       -2.0718  -14.9049  -41.2834 H         1 UNK         0.0600 
    176 H176       -2.3314  -12.4970  -40.7620 H         1 UNK         0.0600 
    177 H177       -0.8347  -13.1024  -40.0710 H         1 UNK         0.0600 
    178 H178       -0.7899  -12.1300  -41.5369 H         1 UNK         0.0600 
    179 H179       -2.3446  -12.9093  -43.3068 H         1 UNK         0.3000 
    180 H180       -3.1277  -15.0666  -46.0209 H         1 UNK         0.0600 
    181 H181       -4.9604  -13.2630  -44.3497 H         1 UNK         0.0600 
    182 H182       -5.2574  -14.9590  -44.7125 H         1 UNK         0.0600 
    183 H183       -5.2423  -13.7791  -46.0130 H         1 UNK         0.0600 
    184 H184       -3.2389  -12.2681  -45.8884 H         1 UNK         0.3000 
    185 H185       -1.7448  -11.0859  -47.1075 H         1 UNK         0.0600 
    186 H186        0.5064  -11.1862  -45.0162 H         1 UNK         0.0600 
    187 H187       -0.0715   -9.7377  -45.8398 H         1 UNK         0.0600 
    188 H188       -1.1245  -10.5932  -44.7262 H         1 UNK         0.0600 
    189 H189        1.0686  -11.3678  -47.4032 H         1 UNK         0.3000 
    190 H190       -0.8721  -21.1971  -46.1132 H         1 UNK         0.3000 
    191 H191       -3.1349  -21.1595  -47.8682 H         1 UNK         0.0600 
    192 H192       -2.6346  -19.2504  -46.3899 H         1 UNK         0.0600 
    193 H193       -2.8684  -20.2462  -44.9550 H         1 UNK         0.0600 
    194 H194       -4.2252  -19.8735  -46.0084 H         1 UNK         0.0600 
    195 H195       -2.4662  -22.9520  -44.8605 H         1 UNK         0.3000 
    196 H196       -5.0788  -24.1719  -44.6642 H         1 UNK         0.0600 
    197 H197       -3.9922  -25.5310  -42.8851 H         1 UNK         0.0600 
    198 H198       -3.6376  -23.8240  -42.6705 H         1 UNK         0.0600 
    199 H199       -2.4128  -24.9040  -43.3353 H         1 UNK         0.0600 
    200 H200       -1.9121  -25.1587  -46.0057 H         1 UNK         0.3000 
    201 H201       -2.6296  -27.8185  -46.6947 H         1 UNK         0.0600 
    202 H202       -0.2762  -26.9951  -46.4929 H         1 UNK         0.0600 
    203 H203       -0.4926  -26.0155  -47.9434 H         1 UNK         0.0600 
    204 H204       -0.5631  -27.7679  -48.0454 H         1 UNK         0.0600 
    205 H205       -2.6564  -24.7902  -48.6638 H         1 UNK         0.3000 
    206 H206       -3.6657  -26.0626  -51.0425 H         1 UNK         0.0600 
    207 H207       -2.3449  -23.9529  -51.0959 H         1 UNK         0.0600 
    208 H208       -3.9205  -23.7159  -51.8399 H         1 UNK         0.0600 
    209 H209       -3.6199  -23.1182  -50.2126 H         1 UNK         0.0600 
    210 H210       -5.1714  -24.1340  -48.4291 H         1 UNK         0.3000 
    211 H211       -7.1800  -23.8127  -47.6595 H         1 UNK         0.0600 
    212 H212       -8.0541  -26.3729  -49.0905 H         1 UNK         0.0600 
    213 H213       -8.8535  -25.6070  -47.7260 H         1 UNK         0.0600 
    214 H214       -7.2590  -26.3107  -47.5176 H         1 UNK         0.0600 
    215 H215       -6.5235  -23.0369  -50.6714 H         1 UNK         0.3000 
    216 H216       -8.8163  -21.4594  -51.2191 H         1 UNK         0.0600 
    217 H217       -9.5146  -22.6718  -53.3361 H         1 UNK         0.0600 
    218 H218       -9.8078  -23.6744  -51.9366 H         1 UNK         0.0600 
    219 H219       -8.4030  -23.9800  -52.9523 H         1 UNK         0.0600 
    220 H220       -8.5500  -20.7134  -53.6346 H         1 UNK         0.3000 
    221 H221       -7.4553  -19.6354  -55.2237 H         1 UNK         0.0600 
    222 H222       -5.4604  -21.9489  -54.9824 H         1 UNK         0.0600 
    223 H223       -6.9739  -21.9883  -55.8820 H         1 UNK         0.0600 
    224 H224       -5.6808  -20.9173  -56.3906 H         1 UNK         0.0600 
    225 H225       -6.9009  -18.5824  -52.6729 H         1 UNK         0.3000 
    226 H226       -5.6443  -17.1156  -51.5515 H         1 UNK         0.0600 
    227 H227       -5.9103  -15.8102  -53.6670 H         1 UNK         0.0600 
    228 H228       -4.3896  -15.4380  -52.8711 H         1 UNK         0.0600 
    229 H229       -4.4023  -16.4815  -54.2851 H         1 UNK         0.0600 
    230 H230       -4.7877  -19.5588  -51.0902 H         1 UNK         0.3000 
    231 H231       -3.1960  -20.8775  -50.3197 H         1 UNK         0.0600 
    232 H232       -2.5059  -18.9284  -48.9395 H         1 UNK         0.0600 
    233 H233       -1.3700  -18.4238  -50.1831 H         1 UNK         0.0600 
    234 H234       -1.1330  -19.9478  -49.3435 H         1 UNK         0.0600 
    235 H235       -3.6240  -20.7388  -53.0529 H         1 UNK         0.3000 
    236 H236       -3.0345  -21.6338  -54.9463 H         1 UNK         0.0600 
    237 H237       -1.1687  -23.2007  -55.1722 H         1 UNK         0.0600 
    238 H238       -0.4148  -22.6042  -53.7035 H         1 UNK         0.0600 
    239 H239       -1.9539  -23.4625  -53.6261 H         1 UNK         0.0600 
    240 H240       -1.8880  -18.8250  -54.0130 H         1 UNK         0.3000 
    241 H241       -0.0016  -18.3739  -56.2411 H         1 UNK         0.0600 
    242 H242       -3.7515  -17.5558  -57.4740 H         1 UNK         0.3800 
    243 H243       -3.5100  -18.4321  -55.9819 H         1 UNK         0.3800 
    244 H244       -0.1050  -15.9481  -55.4948 H         1 UNK         0.0800 
    245 H245       -1.1177  -16.4397  -54.1690 H         1 UNK         0.0800 
    246 H246       -0.1678  -17.9189  -52.1149 H         1 UNK         0.0800 
    247 H247        0.0744  -16.1894  -52.0385 H         1 UNK         0.0800 
@<TRIPOS>BOND
     1    1    2 1    
     2    1  127 1    
     3    1  128 1    
     4    1  129 1    
     5    2    3 2    
     6    2    4 am   BACKBONE|DICT|INTERRES
     7    4    5 1    
     8    4  130 1    
     9    5    6 1    
    10    5   65 1    
    11    5  131 1    
    12    6    7 1    
    13    6  132 1    
    14    6  133 1    
    15    7    8 1    
    16    8    9 1    
    17    8  134 1    
    18    8  135 1    
    19    9   10 ar   
    20    9   14 ar   
    21   10   11 ar   
    22   10  136 1    
    23   11   12 ar   
    24   11  126 1    
    25   12   13 ar   
    26   12  137 1    
    27   13   14 ar   
    28   13   15 1    
    29   14  138 1    
    30   15   16 1    
    31   15  139 1    
    32   15  140 1    
    33   16   17 1    
    34   17   18 1    
    35   17  141 1    
    36   17  142 1    
    37   18   19 1    
    38   18   67 1    
    39   18  143 1    
    40   19   20 am   BACKBONE|DICT|INTERRES
    41   19  144 1    
    42   20   21 2    
    43   20   22 1    
    44   22   23 1    
    45   22   24 1    
    46   22  145 1    
    47   23  146 1    
    48   23  147 1    
    49   23  148 1    
    50   24   25 am   BACKBONE|DICT|INTERRES
    51   24  149 1    
    52   25   26 2    
    53   25   27 1    
    54   27   28 1    
    55   27   29 1    
    56   27  150 1    
    57   28  151 1    
    58   28  152 1    
    59   28  153 1    
    60   29   30 am   BACKBONE|DICT|INTERRES
    61   29  154 1    
    62   30   31 2    
    63   30   32 1    
    64   32   33 1    
    65   32   34 1    
    66   32  155 1    
    67   33  156 1    
    68   33  157 1    
    69   33  158 1    
    70   34   35 am   BACKBONE|DICT|INTERRES
    71   34  159 1    
    72   35   36 2    
    73   35   37 1    
    74   37   38 1    
    75   37   39 1    
    76   37  160 1    
    77   38  161 1    
    78   38  162 1    
    79   38  163 1    
    80   39   40 am   BACKBONE|DICT|INTERRES
    81   39  164 1    
    82   40   41 2    
    83   40   42 1    
    84   42   43 1    
    85   42   44 1    
    86   42  165 1    
    87   43  166 1    
    88   43  167 1    
    89   43  168 1    
    90   44   45 am   BACKBONE|DICT|INTERRES
    91   44  169 1    
    92   45   46 2    
    93   45   47 1    
    94   47   48 1    
    95   47   49 1    
    96   47  170 1    
    97   48  171 1    
    98   48  172 1    
    99   48  173 1    
   100   49   50 am   BACKBONE|DICT|INTERRES
   101   49  174 1    
   102   50   51 2    
   103   50   52 1    
   104   52   53 1    
   105   52   54 1    
   106   52  175 1    
   107   53  176 1    
   108   53  177 1    
   109   53  178 1    
   110   54   55 am   BACKBONE|DICT|INTERRES
   111   54  179 1    
   112   55   56 2    
   113   55   57 1    
   114   57   58 1    
   115   57   59 1    
   116   57  180 1    
   117   58  181 1    
   118   58  182 1    
   119   58  183 1    
   120   59   60 am   BACKBONE|DICT|INTERRES
   121   59  184 1    
   122   60   61 2    
   123   60   62 1    
   124   62   63 1    
   125   62   64 1    
   126   62  185 1    
   127   63  186 1    
   128   63  187 1    
   129   63  188 1    
   130   64   65 am   BACKBONE|DICT|INTERRES
   131   64  189 1    
   132   65   66 2    
   133   67   68 2    
   134   67   69 am   BACKBONE|DICT|INTERRES
   135   69   70 1    
   136   69  190 1    
   137   70   71 1    
   138   70   72 1    
   139   70  191 1    
   140   71  192 1    
   141   71  193 1    
   142   71  194 1    
   143   72   73 2    
   144   72   74 am   BACKBONE|DICT|INTERRES
   145   74   75 1    
   146   74  195 1    
   147   75   76 1    
   148   75   77 1    
   149   75  196 1    
   150   76  197 1    
   151   76  198 1    
   152   76  199 1    
   153   77   78 2    
   154   77   79 am   BACKBONE|DICT|INTERRES
   155   79   80 1    
   156   79  200 1    
   157   80   81 1    
   158   80   82 1    
   159   80  201 1    
   160   81  202 1    
   161   81  203 1    
   162   81  204 1    
   163   82   83 2    
   164   82   84 am   BACKBONE|DICT|INTERRES
   165   84   85 1    
   166   84  205 1    
   167   85   86 1    
   168   85   87 1    
   169   85  206 1    
   170   86  207 1    
   171   86  208 1    
   172   86  209 1    
   173   87   88 2    
   174   87   89 am   BACKBONE|DICT|INTERRES
   175   89   90 1    
   176   89  210 1    
   177   90   91 1    
   178   90   92 1    
   179   90  211 1    
   180   91  212 1    
   181   91  213 1    
   182   91  214 1    
   183   92   93 2    
   184   92   94 am   BACKBONE|DICT|INTERRES
   185   94   95 1    
   186   94  215 1    
   187   95   96 1    
   188   95   97 1    
   189   95  216 1    
   190   96  217 1    
   191   96  218 1    
   192   96  219 1    
   193   97   98 2    
   194   97   99 am   BACKBONE|DICT|INTERRES
   195   99  100 1    
   196   99  220 1    
   197  100  101 1    
   198  100  102 1    
   199  100  221 1    
   200  101  222 1    
   201  101  223 1    
   202  101  224 1    
   203  102  103 2    
   204  102  104 am   BACKBONE|DICT|INTERRES
   205  104  105 1    
   206  104  225 1    
   207  105  106 1    
   208  105  107 1    
   209  105  226 1    
   210  106  227 1    
   211  106  228 1    
   212  106  229 1    
   213  107  108 2    
   214  107  109 am   BACKBONE|DICT|INTERRES
   215  109  110 1    
   216  109  230 1    
   217  110  111 1    
   218  110  112 1    
   219  110  231 1    
   220  111  232 1    
   221  111  233 1    
   222  111  234 1    
   223  112  113 2    
   224  112  114 am   BACKBONE|DICT|INTERRES
   225  114  115 1    
   226  114  235 1    
   227  115  116 1    
   228  115  117 1    
   229  115  236 1    
   230  116  237 1    
   231  116  238 1    
   232  116  239 1    
   233  117  118 2    
   234  117  119 am   BACKBONE|DICT|INTERRES
   235  119  120 1    
   236  119  240 1    
   237  120  121 1    
   238  120  124 1    
   239  120  241 1    
   240  121  122 am   BACKBONE|DICT|INTERRES
   241  121  123 2    
   242  122  242 1    
   243  122  243 1    
   244  124  125 1    
   245  124  244 1    
   246  124  245 1    
   247  125  126 1    
   248  126  246 1    
   249  126  247 1    
@<TRIPOS>SUBSTRUCTURE
     1 UNK         1 GROUP             0       ****    0 ROOT    
