@<TRIPOS>MOLECULE
3R540
247   249    1
SMALL
USER_CHARGES


@<TRIPOS>ATOM
      1 CA          1.8165  -12.1492  -53.0191 C.3       0 UNK        -0.1800 
      2 C           1.6587  -12.8278  -51.6658 C.2       0 UNK         0.5000 
      3 O           2.3308  -13.8239  -51.4003 O.2       0 UNK        -0.5000 
      4 N           0.7687  -12.2963  -50.8176 N.am      1 UNK        -0.5000 
      5 CA          0.4942  -12.7984  -49.4668 C.3       1 UNK         0.1400 
      6 C6         -0.8276  -12.2099  -48.9136 C.3       23 UNK        -0.0398 
      7 S7         -1.5165  -13.1540  -47.5116 S.3       23 UNK        -0.2404 
      8 C8         -2.9424  -13.9958  -48.2650 C.3       23 UNK        -0.0205 
      9 C9         -2.5468  -15.2989  -48.9429 C.ar      23 UNK        -0.0193 
     10 C10        -2.0618  -15.2991  -50.2523 C.ar      23 UNK        -0.1150 
     11 C11        -1.7438  -16.5009  -50.8896 C.ar      23 UNK        -0.0193 
     12 C12        -1.9245  -17.7115  -50.2127 C.ar      23 UNK        -0.1150 
     13 C13        -2.4131  -17.7282  -48.8997 C.ar      23 UNK        -0.0193 
     14 C14        -2.7102  -16.5139  -48.2724 C.ar      23 UNK        -0.1150 
     15 C15        -2.7094  -19.0239  -48.1463 C.3       23 UNK        -0.0205 
     16 S16        -1.7196  -20.4749  -48.6399 S.3       23 UNK        -0.2404 
     17 C17        -2.3648  -21.6920  -47.4444 C.3       23 UNK        -0.0398 
     18 CA         -1.3552  -22.8160  -47.1155 C.3       11 UNK         0.1400 
     19 N          -0.1711  -22.3488  -46.3907 N.am      11 UNK        -0.5000 
     20 C           0.9069  -23.1050  -46.1376 C.2       10 UNK         0.5000 
     21 O           1.0285  -24.2690  -46.5189 O.2       10 UNK        -0.5000 
     22 CA          2.0130  -22.4817  -45.2697 C.3       10 UNK         0.1400 
     23 CB          2.8811  -21.5168  -46.0910 C.3       10 UNK        -0.1800 
     24 N           1.4829  -21.7983  -44.0899 N.am      10 UNK        -0.5000 
     25 C           0.8174  -22.4040  -43.0961 C.2       9 UNK         0.5000 
     26 O           0.6090  -23.6171  -43.0534 O.2       9 UNK        -0.5000 
     27 CA          0.2540  -21.5005  -41.9830 C.3       9 UNK         0.1400 
     28 CB          1.3520  -21.1069  -40.9838 C.3       9 UNK        -0.1800 
     29 N          -0.3927  -20.2955  -42.5041 N.am      9 UNK        -0.5000 
     30 C          -1.4848  -20.3010  -43.2824 C.2       8 UNK         0.5000 
     31 O          -2.0875  -21.3217  -43.6142 O.2       8 UNK        -0.5000 
     32 CA         -1.9516  -18.9418  -43.8320 C.3       8 UNK         0.1400 
     33 CB         -2.7258  -18.1558  -42.7638 C.3       8 UNK        -0.1800 
     34 N          -0.8500  -18.1277  -44.3475 N.am      8 UNK        -0.5000 
     35 C          -0.0202  -18.5065  -45.3305 C.2       7 UNK         0.5000 
     36 O          -0.1116  -19.5783  -45.9227 O.2       7 UNK        -0.5000 
     37 CA          1.1469  -17.5663  -45.6661 C.3       7 UNK         0.1400 
     38 CB          0.6613  -16.3627  -46.4824 C.3       7 UNK        -0.1800 
     39 N           1.8549  -17.1143  -44.4686 N.am      7 UNK        -0.5000 
     40 C           2.4931  -17.9272  -43.6134 C.2       6 UNK         0.5000 
     41 O           2.6008  -19.1424  -43.7721 O.2       6 UNK        -0.5000 
     42 CA          3.0628  -17.2838  -42.3395 C.3       6 UNK         0.1400 
     43 CB          4.4373  -16.6519  -42.6050 C.3       6 UNK        -0.1800 
     44 N           2.1515  -16.2814  -41.7907 N.am      6 UNK        -0.5000 
     45 C           0.9866  -16.5700  -41.1935 C.2       5 UNK         0.5000 
     46 O           0.5786  -17.7169  -41.0048 O.2       5 UNK        -0.5000 
     47 CA          0.1171  -15.3701  -40.7737 C.3       5 UNK         0.1400 
     48 CB          0.5869  -14.8029  -39.4259 C.3       5 UNK        -0.1800 
     49 N           0.1121  -14.3024  -41.7765 N.am      5 UNK        -0.5000 
     50 C          -0.4340  -14.4226  -42.9943 C.2       4 UNK         0.5000 
     51 O          -1.0185  -15.4334  -43.3804 O.2       4 UNK        -0.5000 
     52 CA         -0.2724  -13.2354  -43.9597 C.3       4 UNK         0.1400 
     53 CB         -1.4399  -12.2497  -43.8079 C.3       4 UNK        -0.1800 
     54 N           0.9945  -12.5095  -43.8431 N.am      4 UNK        -0.5000 
     55 C           2.2092  -13.0499  -44.0021 C.2       3 UNK         0.5000 
     56 O           2.4093  -14.2577  -44.1420 O.2       3 UNK        -0.5000 
     57 CA          3.3932  -12.0666  -44.0466 C.3       3 UNK         0.1400 
     58 CB          4.6486  -12.6526  -43.3781 C.3       3 UNK        -0.1800 
     59 N           3.7057  -11.7307  -45.4340 N.am      3 UNK        -0.5000 
     60 C           2.9736  -10.9255  -46.2154 C.2       2 UNK         0.5000 
     61 O           2.0188  -10.2634  -45.8034 O.2       2 UNK        -0.5000 
     62 CA          3.3473  -10.8453  -47.7134 C.3       2 UNK         0.1400 
     63 CB          4.6753  -11.5469  -48.0795 C.3       2 UNK        -0.1800 
     64 N           2.2556  -11.3344  -48.5644 N.am      2 UNK        -0.5000 
     65 C           1.6813  -12.5481  -48.5107 C.2       1 UNK         0.5000 
     66 O           2.0638  -13.4534  -47.7718 O.2       1 UNK        -0.5000 
     67 C          -2.0607  -23.9666  -46.3737 C.2       11 UNK         0.5000 
     68 O          -2.4278  -24.9482  -47.0165 O.2       11 UNK        -0.5000 
     69 N          -2.2025  -23.8577  -45.0443 N.am      12 UNK        -0.5000 
     70 CA         -2.7795  -24.8999  -44.1926 C.3       12 UNK         0.1400 
     71 CB         -2.9444  -24.3732  -42.7592 C.3       12 UNK        -0.1800 
     72 C          -1.9630  -26.2054  -44.2076 C.2       12 UNK         0.5000 
     73 O          -2.5513  -27.2832  -44.2978 O.2       12 UNK        -0.5000 
     74 N          -0.6285  -26.0856  -44.1626 N.am      13 UNK        -0.5000 
     75 CA          0.3083  -27.2062  -44.2642 C.3       13 UNK         0.1400 
     76 CB          1.7227  -26.7236  -43.9087 C.3       13 UNK        -0.1800 
     77 C           0.2914  -27.8784  -45.6511 C.2       13 UNK         0.5000 
     78 O           0.3530  -29.1057  -45.7325 O.2       13 UNK        -0.5000 
     79 N           0.1913  -27.0670  -46.7123 N.am      14 UNK        -0.5000 
     80 CA          0.1208  -27.5143  -48.1054 C.3       14 UNK         0.1400 
     81 CB          0.4842  -26.3321  -49.0184 C.3       14 UNK        -0.1800 
     82 C          -1.2525  -28.0877  -48.5109 C.2       14 UNK         0.5000 
     83 O          -1.3384  -28.7465  -49.5480 O.2       14 UNK        -0.5000 
     84 N          -2.2945  -27.7997  -47.7163 N.am      15 UNK        -0.5000 
     85 CA         -3.7188  -28.0258  -47.9928 C.3       15 UNK         0.1400 
     86 CB         -4.0442  -29.5307  -48.0933 C.3       15 UNK        -0.1800 
     87 C          -4.2042  -27.2043  -49.2090 C.2       15 UNK         0.5000 
     88 O          -4.9711  -27.6975  -50.0386 O.2       15 UNK        -0.5000 
     89 N          -3.7218  -25.9604  -49.2860 N.am      16 UNK        -0.5000 
     90 CA         -4.0189  -24.9686  -50.3131 C.3       16 UNK         0.1400 
     91 CB         -2.6910  -24.3069  -50.7151 C.3       16 UNK        -0.1800 
     92 C          -5.0122  -23.9207  -49.7772 C.2       16 UNK         0.5000 
     93 O          -5.3301  -23.9182  -48.5847 O.2       16 UNK        -0.5000 
     94 N          -5.4750  -23.0357  -50.6666 N.am      17 UNK        -0.5000 
     95 CA         -6.3822  -21.9342  -50.3562 C.3       17 UNK         0.1400 
     96 CB         -7.7800  -22.2613  -50.9058 C.3       17 UNK        -0.1800 
     97 C          -5.8486  -20.6380  -50.9794 C.2       17 UNK         0.5000 
     98 O          -5.2677  -20.6736  -52.0687 O.2       17 UNK        -0.5000 
     99 N          -6.0876  -19.5163  -50.2878 N.am      18 UNK        -0.5000 
    100 CA        -5.7417  -18.1653  -50.7307 C.3       18 UNK         0.1400 
    101 CB        -6.0468  -17.1726  -49.5986 C.3       18 UNK        -0.1800 
    102 C         -6.4902  -17.7649  -52.0149 C.2       18 UNK         0.5000 
    103 O         -7.5991  -18.2466  -52.2613 O.2       18 UNK        -0.5000 
    104 N         -5.8496  -16.9072  -52.8171 N.am      19 UNK        -0.5000 
    105 CA        -6.2176  -16.4466  -54.1626 C.3       19 UNK         0.1400 
    106 CB        -7.5951  -15.7570  -54.1845 C.3       19 UNK        -0.1800 
    107 C         -6.1150  -17.5460  -55.2386 C.2       19 UNK         0.5000 
    108 O         -5.5530  -17.2940  -56.3044 O.2       19 UNK        -0.5000 
    109 N         -6.6357  -18.7423  -54.9403 N.am      20 UNK        -0.5000 
    110 CA        -6.6466  -19.9108  -55.8168 C.3       20 UNK         0.1400 
    111 CB        -7.5596  -20.9871  -55.2086 C.3       20 UNK        -0.1800 
    112 C         -5.2407  -20.4756  -56.0842 C.2       20 UNK         0.5000 
    113 O         -4.8909  -20.7125  -57.2412 O.2       20 UNK        -0.5000 
    114 N         -4.4586  -20.6779  -55.0153 N.am      21 UNK        -0.5000 
    115 CA        -3.1231  -21.2782  -55.0830 C.3       21 UNK         0.1400 
    116 CB        -2.8327  -21.9772  -53.7486 C.3       21 UNK        -0.1800 
    117 C         -2.0037  -20.2747  -55.4199 C.2       21 UNK         0.5000 
    118 O         -0.8672  -20.6975  -55.6368 O.2       21 UNK        -0.5000 
    119 N         -2.3222  -18.9748  -55.4369 N.am      22 UNK        -0.5000 
    120 CA        -1.3575  -17.8772  -55.6272 C.3       22 UNK         0.1400 
    121 C         -0.8177  -17.7178  -57.0796 C.2       22 UNK         0.5000 
    122 N         -1.3873  -18.3792  -58.0799 N.am      22 UNK        -0.7600 
    123 O          0.1400  -16.9819  -57.3015 O.2       22 UNK        -0.5000 
    124 C124       -1.8920  -16.5211  -55.0961 C.3       23 UNK        -0.0398 
    125 S125       -2.6724  -16.6251  -53.4516 S.3       23 UNK        -0.2404 
    126 C126       -1.2554  -16.4899  -52.3281 C.3       23 UNK        -0.0205 
    127 H127        1.1584  -11.2859  -53.1202 H         1 UNK         0.0600 
    128 H128        1.5818  -12.8507  -53.8198 H         1 UNK         0.0600 
    129 H129        2.8441  -11.8106  -53.1512 H         1 UNK         0.0600 
    130 H130        0.2485  -11.4785  -51.1020 H         1 UNK         0.3000 
    131 H131        0.3705  -13.8807  -49.5492 H         1 UNK         0.0600 
    132 H132       -0.6923  -11.1739  -48.5980 H         1 UNK         0.0800 
    133 H133       -1.5767  -12.1735  -49.7051 H         1 UNK         0.0800 
    134 H134       -3.6726  -14.1974  -47.4798 H         1 UNK         0.0800 
    135 H135       -3.4462  -13.3367  -48.9732 H         1 UNK         0.0800 
    136 H136       -1.9477  -14.3654  -50.7841 H         1 UNK         0.1150 
    137 H137       -1.7118  -18.6381  -50.7261 H         1 UNK         0.1150 
    138 H138       -3.0997  -16.5149  -47.2638 H         1 UNK         0.1150 
    139 H139       -2.5574  -18.8564  -47.0799 H         1 UNK         0.0800 
    140 H140       -3.7651  -19.2628  -48.2777 H         1 UNK         0.0800 
    141 H141       -3.2790  -22.1053  -47.8743 H         1 UNK         0.0800 
    142 H142       -2.6620  -21.1829  -46.5259 H         1 UNK         0.0800 
    143 H143       -0.9938  -23.2266  -48.0593 H         1 UNK         0.0600 
    144 H144       -0.1756  -21.3744  -46.0914 H         1 UNK         0.3000 
    145 H145        2.6536  -23.2937  -44.9196 H         1 UNK         0.0600 
    146 H146        3.7136  -21.1359  -45.4993 H         1 UNK         0.0600 
    147 H147        3.3031  -22.0179  -46.9629 H         1 UNK         0.0600 
    148 H148        2.3079  -20.6618  -46.4493 H         1 UNK         0.0600 
    149 H149        1.6456  -20.7965  -44.0351 H         1 UNK         0.3000 
    150 H150       -0.5022  -22.0747  -41.4438 H         1 UNK         0.0600 
    151 H151        1.8307  -21.9914  -40.5618 H         1 UNK         0.0600 
    152 H152        0.9411  -20.5314  -40.1541 H         1 UNK         0.0600 
    153 H153        2.1298  -20.5048  -41.4537 H         1 UNK         0.0600 
    154 H154        0.0335  -19.4078  -42.2643 H         1 UNK         0.3000 
    155 H155       -2.6312  -19.1402  -44.6625 H         1 UNK         0.0600 
    156 H156       -2.0848  -17.8724  -41.9284 H         1 UNK         0.0600 
    157 H157       -3.1537  -17.2439  -43.1804 H         1 UNK         0.0600 
    158 H158       -3.5495  -18.7473  -42.3622 H         1 UNK         0.0600 
    159 H159       -0.7342  -17.2070  -43.9307 H         1 UNK         0.3000 
    160 H160        1.8597  -18.1222  -46.2785 H         1 UNK         0.0600 
    161 H161        1.4907  -15.6996  -46.7198 H         1 UNK         0.0600 
    162 H162       -0.0915  -15.7833  -45.9494 H         1 UNK         0.0600 
    163 H163        0.2183  -16.6831  -47.4262 H         1 UNK         0.0600 
    164 H164        1.8623  -16.1146  -44.2862 H         1 UNK         0.3000 
    165 H165        3.1925  -18.0721  -41.5947 H         1 UNK         0.0600 
    166 H166        4.8519  -16.2108  -41.6985 H         1 UNK         0.0600 
    167 H167        5.1467  -17.4024  -42.9559 H         1 UNK         0.0600 
    168 H168        4.3860  -15.8726  -43.3650 H         1 UNK         0.0600 
    169 H169        2.3764  -15.3150  -41.9782 H         1 UNK         0.3000 
    170 H170       -0.9076  -15.7288  -40.6538 H         1 UNK         0.0600 
    171 H171        1.5993  -14.4015  -39.4865 H         1 UNK         0.0600 
    172 H172       -0.0713  -14.0041  -39.0836 H         1 UNK         0.0600 
    173 H173        0.5856  -15.5759  -38.6562 H         1 UNK         0.0600 
    174 H174        0.5765  -13.4388  -41.5367 H         1 UNK         0.3000 
    175 H175       -0.3036  -13.6460  -44.9685 H         1 UNK         0.0600 
    176 H176       -1.3969  -11.4692  -44.5680 H         1 UNK         0.0600 
    177 H177       -1.4370  -11.7690  -42.8290 H         1 UNK         0.0600 
    178 H178       -2.3977  -12.7590  -43.9235 H         1 UNK         0.0600 
    179 H179        0.9263  -11.5032  -43.7827 H         1 UNK         0.3000 
    180 H180        3.1183  -11.1570  -43.5084 H         1 UNK         0.0600 
    181 H181        5.0210  -13.5286  -43.9105 H         1 UNK         0.0600 
    182 H182        4.4395  -12.9561  -42.3515 H         1 UNK         0.0600 
    183 H183        5.4533  -11.9181  -43.3425 H         1 UNK         0.0600 
    184 H184        4.4365  -12.2748  -45.8684 H         1 UNK         0.3000 
    185 H185        3.4649   -9.7844  -47.9389 H         1 UNK         0.0600 
    186 H186        4.6398  -12.6225  -47.9036 H         1 UNK         0.0600 
    187 H187        4.9139  -11.3967  -49.1325 H         1 UNK         0.0600 
    188 H188        5.5074  -11.1406  -47.5032 H         1 UNK         0.0600 
    189 H189        1.8702  -10.6570  -49.2065 H         1 UNK         0.3000 
    190 H190       -1.9121  -23.0016  -44.5797 H         1 UNK         0.3000 
    191 H191       -3.7733  -25.1298  -44.5824 H         1 UNK         0.0600 
    192 H192       -3.6049  -23.5064  -42.7324 H         1 UNK         0.0600 
    193 H193       -3.3806  -25.1339  -42.1107 H         1 UNK         0.0600 
    194 H194       -1.9891  -24.0788  -42.3246 H         1 UNK         0.0600 
    195 H195       -0.2237  -25.1621  -44.0411 H         1 UNK         0.3000 
    196 H196        0.0130  -27.9574  -43.5286 H         1 UNK         0.0600 
    197 H197        2.4395  -27.5443  -43.9553 H         1 UNK         0.0600 
    198 H198        1.7573  -26.3176  -42.8975 H         1 UNK         0.0600 
    199 H199        2.0673  -25.9463  -44.5914 H         1 UNK         0.0600 
    200 H200        0.2160  -26.0624  -46.5614 H         1 UNK         0.3000 
    201 H201        0.8625  -28.3015  -48.2549 H         1 UNK         0.0600 
    202 H202        1.4816  -25.9528  -48.7952 H         1 UNK         0.0600 
    203 H203       -0.2207  -25.5078  -48.9046 H         1 UNK         0.0600 
    204 H204        0.4766  -26.6278  -50.0683 H         1 UNK         0.0600 
    205 H205       -2.1045  -27.2068  -46.9183 H         1 UNK         0.3000 
    206 H206       -4.2566  -27.6323  -47.1290 H         1 UNK         0.0600 
    207 H207       -3.6790  -30.0712  -47.2201 H         1 UNK         0.0600 
    208 H208       -5.1214  -29.6917  -48.1476 H         1 UNK         0.0600 
    209 H209       -3.6032  -29.9866  -48.9799 H         1 UNK         0.0600 
    210 H210       -3.1797  -25.6180  -48.4941 H         1 UNK         0.3000 
    211 H211       -4.4595  -25.4478  -51.1896 H         1 UNK         0.0600 
    212 H212       -2.2345  -23.7824  -49.8777 H         1 UNK         0.0600 
    213 H213       -2.8337  -23.5786  -51.5096 H         1 UNK         0.0600 
    214 H214       -1.9755  -25.0456  -51.0773 H         1 UNK         0.0600 
    215 H215       -5.1223  -23.0392  -51.6139 H         1 UNK         0.3000 
    216 H216       -6.4530  -21.7879  -49.2762 H         1 UNK         0.0600 
    217 H217       -8.4800  -21.4489  -50.7059 H         1 UNK         0.0600 
    218 H218       -8.1839  -23.1612  -50.4416 H         1 UNK         0.0600 
    219 H219       -7.7610  -22.4206  -51.9846 H         1 UNK         0.0600 
    220 H220       -6.6158  -19.5775  -49.4303 H         1 UNK         0.3000 
    221 H221       -4.6694  -18.1491  -50.9346 H         1 UNK         0.0600 
    222 H222       -5.7242  -16.1654  -49.8660 H         1 UNK         0.0600 
    223 H223       -5.5261  -17.4434  -48.6805 H         1 UNK         0.0600 
    224 H224       -7.1142  -17.1294  -49.3782 H         1 UNK         0.0600 
    225 H225       -4.9263  -16.6090  -52.5285 H         1 UNK         0.3000 
    226 H226       -5.4770  -15.6884  -54.4221 H         1 UNK         0.0600 
    227 H227       -7.6496  -14.9619  -53.4409 H         1 UNK         0.0600 
    228 H228       -7.7840  -15.3049  -55.1588 H         1 UNK         0.0600 
    229 H229       -8.4095  -16.4552  -53.9906 H         1 UNK         0.0600 
    230 H230       -7.0755  -18.8430  -54.0302 H         1 UNK         0.3000 
    231 H231       -7.0716  -19.6069  -56.7757 H         1 UNK         0.0600 
    232 H232       -7.2127  -21.2999  -54.2229 H         1 UNK         0.0600 
    233 H233       -7.5954  -21.8743  -55.8422 H         1 UNK         0.0600 
    234 H234       -8.5814  -20.6224  -55.1021 H         1 UNK         0.0600 
    235 H235       -4.8168  -20.4768  -54.0865 H         1 UNK         0.3000 
    236 H236       -3.1165  -22.0415  -55.8641 H         1 UNK         0.0600 
    237 H237       -3.6114  -22.7038  -53.5182 H         1 UNK         0.0600 
    238 H238       -1.8845  -22.5153  -53.7831 H         1 UNK         0.0600 
    239 H239       -2.7765  -21.2653  -52.9240 H         1 UNK         0.0600 
    240 H240       -3.2786  -18.7082  -55.2567 H         1 UNK         0.3000 
    241 H241       -0.4842  -18.1254  -55.0210 H         1 UNK         0.0600 
    242 H242       -2.1745  -18.9851  -57.9085 H         1 UNK         0.3800 
    243 H243       -1.0287  -18.2730  -59.0160 H         1 UNK         0.3800 
    244 H244       -1.0927  -15.7787  -55.0621 H         1 UNK         0.0800 
    245 H245       -2.6438  -16.1242  -55.7808 H         1 UNK         0.0800 
    246 H246       -0.7025  -15.5720  -52.5344 H         1 UNK         0.0800 
    247 H247       -0.5675  -17.3191  -52.5006 H         1 UNK         0.0800 
@<TRIPOS>BOND
     1    1    2 1    
     2    1  127 1    
     3    1  128 1    
     4    1  129 1    
     5    2    3 2    
     6    2    4 am   BACKBONE|DICT|INTERRES
     7    4    5 1    
     8    4  130 1    
     9    5    6 1    
    10    5   65 1    
    11    5  131 1    
    12    6    7 1    
    13    6  132 1    
    14    6  133 1    
    15    7    8 1    
    16    8    9 1    
    17    8  134 1    
    18    8  135 1    
    19    9   10 ar   
    20    9   14 ar   
    21   10   11 ar   
    22   10  136 1    
    23   11   12 ar   
    24   11  126 1    
    25   12   13 ar   
    26   12  137 1    
    27   13   14 ar   
    28   13   15 1    
    29   14  138 1    
    30   15   16 1    
    31   15  139 1    
    32   15  140 1    
    33   16   17 1    
    34   17   18 1    
    35   17  141 1    
    36   17  142 1    
    37   18   19 1    
    38   18   67 1    
    39   18  143 1    
    40   19   20 am   BACKBONE|DICT|INTERRES
    41   19  144 1    
    42   20   21 2    
    43   20   22 1    
    44   22   23 1    
    45   22   24 1    
    46   22  145 1    
    47   23  146 1    
    48   23  147 1    
    49   23  148 1    
    50   24   25 am   BACKBONE|DICT|INTERRES
    51   24  149 1    
    52   25   26 2    
    53   25   27 1    
    54   27   28 1    
    55   27   29 1    
    56   27  150 1    
    57   28  151 1    
    58   28  152 1    
    59   28  153 1    
    60   29   30 am   BACKBONE|DICT|INTERRES
    61   29  154 1    
    62   30   31 2    
    63   30   32 1    
    64   32   33 1    
    65   32   34 1    
    66   32  155 1    
    67   33  156 1    
    68   33  157 1    
    69   33  158 1    
    70   34   35 am   BACKBONE|DICT|INTERRES
    71   34  159 1    
    72   35   36 2    
    73   35   37 1    
    74   37   38 1    
    75   37   39 1    
    76   37  160 1    
    77   38  161 1    
    78   38  162 1    
    79   38  163 1    
    80   39   40 am   BACKBONE|DICT|INTERRES
    81   39  164 1    
    82   40   41 2    
    83   40   42 1    
    84   42   43 1    
    85   42   44 1    
    86   42  165 1    
    87   43  166 1    
    88   43  167 1    
    89   43  168 1    
    90   44   45 am   BACKBONE|DICT|INTERRES
    91   44  169 1    
    92   45   46 2    
    93   45   47 1    
    94   47   48 1    
    95   47   49 1    
    96   47  170 1    
    97   48  171 1    
    98   48  172 1    
    99   48  173 1    
   100   49   50 am   BACKBONE|DICT|INTERRES
   101   49  174 1    
   102   50   51 2    
   103   50   52 1    
   104   52   53 1    
   105   52   54 1    
   106   52  175 1    
   107   53  176 1    
   108   53  177 1    
   109   53  178 1    
   110   54   55 am   BACKBONE|DICT|INTERRES
   111   54  179 1    
   112   55   56 2    
   113   55   57 1    
   114   57   58 1    
   115   57   59 1    
   116   57  180 1    
   117   58  181 1    
   118   58  182 1    
   119   58  183 1    
   120   59   60 am   BACKBONE|DICT|INTERRES
   121   59  184 1    
   122   60   61 2    
   123   60   62 1    
   124   62   63 1    
   125   62   64 1    
   126   62  185 1    
   127   63  186 1    
   128   63  187 1    
   129   63  188 1    
   130   64   65 am   BACKBONE|DICT|INTERRES
   131   64  189 1    
   132   65   66 2    
   133   67   68 2    
   134   67   69 am   BACKBONE|DICT|INTERRES
   135   69   70 1    
   136   69  190 1    
   137   70   71 1    
   138   70   72 1    
   139   70  191 1    
   140   71  192 1    
   141   71  193 1    
   142   71  194 1    
   143   72   73 2    
   144   72   74 am   BACKBONE|DICT|INTERRES
   145   74   75 1    
   146   74  195 1    
   147   75   76 1    
   148   75   77 1    
   149   75  196 1    
   150   76  197 1    
   151   76  198 1    
   152   76  199 1    
   153   77   78 2    
   154   77   79 am   BACKBONE|DICT|INTERRES
   155   79   80 1    
   156   79  200 1    
   157   80   81 1    
   158   80   82 1    
   159   80  201 1    
   160   81  202 1    
   161   81  203 1    
   162   81  204 1    
   163   82   83 2    
   164   82   84 am   BACKBONE|DICT|INTERRES
   165   84   85 1    
   166   84  205 1    
   167   85   86 1    
   168   85   87 1    
   169   85  206 1    
   170   86  207 1    
   171   86  208 1    
   172   86  209 1    
   173   87   88 2    
   174   87   89 am   BACKBONE|DICT|INTERRES
   175   89   90 1    
   176   89  210 1    
   177   90   91 1    
   178   90   92 1    
   179   90  211 1    
   180   91  212 1    
   181   91  213 1    
   182   91  214 1    
   183   92   93 2    
   184   92   94 am   BACKBONE|DICT|INTERRES
   185   94   95 1    
   186   94  215 1    
   187   95   96 1    
   188   95   97 1    
   189   95  216 1    
   190   96  217 1    
   191   96  218 1    
   192   96  219 1    
   193   97   98 2    
   194   97   99 am   BACKBONE|DICT|INTERRES
   195   99  100 1    
   196   99  220 1    
   197  100  101 1    
   198  100  102 1    
   199  100  221 1    
   200  101  222 1    
   201  101  223 1    
   202  101  224 1    
   203  102  103 2    
   204  102  104 am   BACKBONE|DICT|INTERRES
   205  104  105 1    
   206  104  225 1    
   207  105  106 1    
   208  105  107 1    
   209  105  226 1    
   210  106  227 1    
   211  106  228 1    
   212  106  229 1    
   213  107  108 2    
   214  107  109 am   BACKBONE|DICT|INTERRES
   215  109  110 1    
   216  109  230 1    
   217  110  111 1    
   218  110  112 1    
   219  110  231 1    
   220  111  232 1    
   221  111  233 1    
   222  111  234 1    
   223  112  113 2    
   224  112  114 am   BACKBONE|DICT|INTERRES
   225  114  115 1    
   226  114  235 1    
   227  115  116 1    
   228  115  117 1    
   229  115  236 1    
   230  116  237 1    
   231  116  238 1    
   232  116  239 1    
   233  117  118 2    
   234  117  119 am   BACKBONE|DICT|INTERRES
   235  119  120 1    
   236  119  240 1    
   237  120  121 1    
   238  120  124 1    
   239  120  241 1    
   240  121  122 am   BACKBONE|DICT|INTERRES
   241  121  123 2    
   242  122  242 1    
   243  122  243 1    
   244  124  125 1    
   245  124  244 1    
   246  124  245 1    
   247  125  126 1    
   248  126  246 1    
   249  126  247 1    
@<TRIPOS>SUBSTRUCTURE
     1 UNK         1 GROUP             0       ****    0 ROOT    
