@<TRIPOS>MOLECULE
3R540
247   249    1
SMALL
USER_CHARGES


@<TRIPOS>ATOM
      1 CA          0.0690   -9.4113  -47.9933 C.3       0 UNK        -0.1800 
      2 C           0.9865  -10.3808  -47.2628 C.2       0 UNK         0.5000 
      3 O           0.5380  -11.0782  -46.3561 O.2       0 UNK        -0.5000 
      4 N           2.2698  -10.4153  -47.6469 N.am      1 UNK        -0.5000 
      5 CA          3.3256  -11.2986  -47.1206 C.3       1 UNK         0.1400 
      6 C6          3.0078  -12.8142  -47.2572 C.3       23 UNK        -0.0398 
      7 S7          2.6800  -13.3260  -48.9779 S.3       23 UNK        -0.2404 
      8 C8          1.2823  -14.4759  -48.7649 C.3       23 UNK        -0.0205 
      9 C9          1.2642  -15.5139  -49.8762 C.ar      23 UNK        -0.0193 
     10 C10         0.2993  -15.4703  -50.8872 C.ar      23 UNK        -0.1150 
     11 C11         0.3139  -16.4103  -51.9241 C.ar      23 UNK        -0.0193 
     12 C12         1.2995  -17.4023  -51.9369 C.ar      23 UNK        -0.1150 
     13 C13         2.2634  -17.4647  -50.9252 C.ar      23 UNK        -0.0193 
     14 C14         2.2370  -16.5166  -49.8989 C.ar      23 UNK        -0.1150 
     15 C15         3.3626  -18.5207  -50.9702 C.3       23 UNK        -0.0205 
     16 S16         3.5076  -19.4691  -49.4191 S.3       23 UNK        -0.2404 
     17 C17         1.9411  -20.4008  -49.4317 C.3       23 UNK        -0.0398 
     18 CA          2.0796  -21.7898  -48.7645 C.3       11 UNK         0.1400 
     19 N           2.3626  -21.6714  -47.3286 N.am      11 UNK        -0.5000 
     20 C           2.9554  -22.6150  -46.5866 C.2       10 UNK         0.5000 
     21 O           3.3294  -23.7005  -47.0320 O.2       10 UNK        -0.5000 
     22 CA          3.1444  -22.3018  -45.0905 C.3       10 UNK         0.1400 
     23 CB          4.3439  -21.3655  -44.8770 C.3       10 UNK        -0.1800 
     24 N           1.9533  -21.7202  -44.4680 N.am      10 UNK        -0.5000 
     25 C           0.7876  -22.3613  -44.2993 C.2       9 UNK         0.5000 
     26 O           0.5839  -23.5199  -44.6620 O.2       9 UNK        -0.5000 
     27 CA         -0.3558  -21.5644  -43.6445 C.3       9 UNK         0.1400 
     28 CB         -0.1877  -21.5068  -42.1191 C.3       9 UNK        -0.1800 
     29 N          -0.4637  -20.2106  -44.1871 N.am      9 UNK        -0.5000 
     30 C          -0.8490  -19.9445  -45.4420 C.2       8 UNK         0.5000 
     31 O          -1.2462  -20.8059  -46.2249 O.2       8 UNK        -0.5000 
     32 CA         -0.7552  -18.4887  -45.9265 C.3       8 UNK         0.1400 
     33 CB         -2.0583  -17.7339  -45.6308 C.3       8 UNK        -0.1800 
     34 N           0.3863  -17.7672  -45.3674 N.am      8 UNK        -0.5000 
     35 C           1.6646  -18.0775  -45.6266 C.2       7 UNK         0.5000 
     36 O           2.0024  -19.0001  -46.3665 O.2       7 UNK        -0.5000 
     37 CA          2.7447  -17.2663  -44.8913 C.3       7 UNK         0.1400 
     38 CB          2.9342  -15.8847  -45.5298 C.3       7 UNK        -0.1800 
     39 N           2.4462  -17.1072  -43.4708 N.am      7 UNK        -0.5000 
     40 C           2.3691  -18.1161  -42.5930 C.2       6 UNK         0.5000 
     41 O           2.5710  -19.2959  -42.8815 O.2       6 UNK        -0.5000 
     42 CA          1.9478  -17.7440  -41.1630 C.3       6 UNK         0.1400 
     43 CB          3.1271  -17.1474  -40.3801 C.3       6 UNK        -0.1800 
     44 N           0.8261  -16.8054  -41.1558 N.am      6 UNK        -0.5000 
     45 C          -0.4213  -17.1200  -41.5312 C.2       5 UNK         0.5000 
     46 O          -0.7607  -18.2402  -41.9113 O.2       5 UNK        -0.5000 
     47 CA         -1.4567  -15.9822  -41.5061 C.3       5 UNK         0.1400 
     48 CB         -2.0095  -15.7812  -40.0871 C.3       5 UNK        -0.1800 
     49 N          -0.9244  -14.7136  -42.0057 N.am      5 UNK        -0.5000 
     50 C          -0.5486  -14.5049  -43.2747 C.2       4 UNK         0.5000 
     51 O          -0.5717  -15.3687  -44.1490 O.2       4 UNK        -0.5000 
     52 CA         -0.0281  -13.1016  -43.6189 C.3       4 UNK         0.1400 
     53 CB         -1.1952  -12.1059  -43.7117 C.3       4 UNK        -0.1800 
     54 N           0.9753  -12.5783  -42.6908 N.am      4 UNK        -0.5000 
     55 C           2.1009  -13.1907  -42.2996 C.2       3 UNK         0.5000 
     56 O           2.3751  -14.3645  -42.5558 O.2       3 UNK        -0.5000 
     57 CA          3.1081  -12.3029  -41.5446 C.3       3 UNK         0.1400 
     58 CB          4.3106  -13.0952  -41.0022 C.3       3 UNK        -0.1800 
     59 N           3.5982  -11.2581  -42.4420 N.am      3 UNK        -0.5000 
     60 C           2.9823  -10.1000  -42.7054 C.2       2 UNK         0.5000 
     61 O           1.9514   -9.7354  -42.1381 O.2       2 UNK        -0.5000 
     62 CA          3.5862   -9.2293  -43.8240 C.3       2 UNK         0.1400 
     63 CB          5.0796   -8.9215  -43.5903 C.3       2 UNK        -0.1800 
     64 N           3.3479   -9.7824  -45.1638 N.am      2 UNK        -0.5000 
     65 C           3.7855  -10.9400  -45.6852 C.2       1 UNK         0.5000 
     66 O           4.5476  -11.7050  -45.0913 O.2       1 UNK        -0.5000 
     67 C           0.8308  -22.6509  -49.0584 C.2       11 UNK         0.5000 
     68 O           0.6142  -23.0152  -50.2145 O.2       11 UNK        -0.5000 
     69 N           0.0223  -22.9390  -48.0279 N.am      12 UNK        -0.5000 
     70 CA         -1.2770  -23.6196  -48.0751 C.3       12 UNK         0.1400 
     71 CB         -1.1598  -25.0488  -48.6436 C.3       12 UNK        -0.1800 
     72 C          -2.3765  -22.7888  -48.7698 C.2       12 UNK         0.5000 
     73 O          -3.4043  -23.3353  -49.1644 O.2       12 UNK        -0.5000 
     74 N          -2.1885  -21.4646  -48.8423 N.am      13 UNK        -0.5000 
     75 CA         -3.1966  -20.5047  -49.2933 C.3       13 UNK         0.1400 
     76 CB         -2.5340  -19.1401  -49.5288 C.3       13 UNK        -0.1800 
     77 C          -4.3715  -20.3807  -48.3003 C.2       13 UNK         0.5000 
     78 O          -5.4612  -19.9695  -48.6954 O.2       13 UNK        -0.5000 
     79 N          -4.1333  -20.7635  -47.0378 N.am      14 UNK        -0.5000 
     80 CA         -5.1389  -20.8813  -45.9834 C.3       14 UNK         0.1400 
     81 CB         -4.4220  -20.8500  -44.6231 C.3       14 UNK        -0.1800 
     82 C          -6.0122  -22.1505  -46.1004 C.2       14 UNK         0.5000 
     83 O          -7.0259  -22.2375  -45.4053 O.2       14 UNK        -0.5000 
     84 N          -5.6109  -23.1206  -46.9371 N.am      15 UNK        -0.5000 
     85 CA         -6.3391  -24.3708  -47.1662 C.3       15 UNK         0.1400 
     86 CB         -5.3746  -25.4134  -47.7587 C.3       15 UNK        -0.1800 
     87 C          -7.5587  -24.1736  -48.0879 C.2       15 UNK         0.5000 
     88 O          -7.7471  -23.0961  -48.6606 O.2       15 UNK        -0.5000 
     89 N          -8.3557  -25.2413  -48.2367 N.am      16 UNK        -0.5000 
     90 CA         -9.5126  -25.3192  -49.1318 C.3       16 UNK         0.1400 
     91 CB        -10.1422  -26.7163  -49.0262 C.3       16 UNK        -0.1800 
     92 C          -9.1295  -25.0026  -50.5896 C.2       16 UNK         0.5000 
     93 O          -8.1761  -25.5882  -51.1102 O.2       16 UNK        -0.5000 
     94 N          -9.8407  -24.0355  -51.1871 N.am      17 UNK        -0.5000 
     95 CA         -9.6104  -23.4621  -52.5210 C.3       17 UNK         0.1400 
     96 CB         -9.9333  -24.5017  -53.6152 C.3       17 UNK        -0.1800 
     97 C          -8.2038  -22.8447  -52.7016 C.2       17 UNK         0.5000 
     98 O          -7.7179  -22.7595  -53.8302 O.2       17 UNK        -0.5000 
     99 N          -7.5500  -22.4708  -51.5887 N.am      18 UNK        -0.5000 
    100 CA        -6.1606  -22.0090  -51.4907 C.3       18 UNK         0.1400 
    101 CB        -6.0130  -20.6158  -52.1372 C.3       18 UNK        -0.1800 
    102 C         -5.1480  -23.0392  -52.0378 C.2       18 UNK         0.5000 
    103 O         -4.1316  -22.6576  -52.6230 O.2       18 UNK        -0.5000 
    104 N         -5.4851  -24.3326  -51.9047 N.am      19 UNK        -0.5000 
    105 CA        -4.7895  -25.4943  -52.4710 C.3       19 UNK         0.1400 
    106 CB        -3.3873  -25.6518  -51.8463 C.3       19 UNK        -0.1800 
    107 C         -4.7553  -25.5043  -54.0181 C.2       19 UNK         0.5000 
    108 O         -3.9472  -26.2261  -54.6031 O.2       19 UNK        -0.5000 
    109 N         -5.6257  -24.6992  -54.6504 N.am      20 UNK        -0.5000 
    110 CA        -5.7805  -24.4717  -56.0909 C.3       20 UNK         0.1400 
    111 CB        -6.2355  -25.7632  -56.8017 C.3       20 UNK        -0.1800 
    112 C         -4.5569  -23.8190  -56.7733 C.2       20 UNK         0.5000 
    113 O         -4.4796  -23.8317  -58.0035 O.2       20 UNK        -0.5000 
    114 N         -3.6283  -23.2551  -55.9876 N.am      21 UNK        -0.5000 
    115 CA        -2.3631  -22.7000  -56.4782 C.3       21 UNK         0.1400 
    116 CB        -1.3278  -23.8361  -56.5915 C.3       21 UNK        -0.1800 
    117 C         -1.8241  -21.5378  -55.6223 C.2       21 UNK         0.5000 
    118 O         -0.7320  -21.0477  -55.9133 O.2       21 UNK        -0.5000 
    119 N         -2.5673  -21.1164  -54.5892 N.am      22 UNK        -0.5000 
    120 CA        -2.1053  -20.2064  -53.5281 C.3       22 UNK         0.1400 
    121 C         -1.0324  -20.8858  -52.6310 C.2       22 UNK         0.5000 
    122 N         -1.3394  -22.0492  -52.0749 N.am      22 UNK        -0.7600 
    123 O          0.0746  -20.3899  -52.4570 O.2       22 UNK        -0.5000 
    124 C124       -1.7179  -18.7888  -54.0433 C.3       23 UNK        -0.0398 
    125 S125       -2.0964  -17.4749  -52.8296 S.3       23 UNK        -0.2404 
    126 C126       -0.7043  -16.3205  -53.0534 C.3       23 UNK        -0.0205 
    127 H127        0.6009   -8.8481  -48.7604 H         1 UNK         0.0600 
    128 H128       -0.3645   -8.7017  -47.2885 H         1 UNK         0.0600 
    129 H129       -0.7437   -9.9562  -48.4734 H         1 UNK         0.0600 
    130 H130        2.5657   -9.8068  -48.3978 H         1 UNK         0.3000 
    131 H131        4.1981  -11.1010  -47.7450 H         1 UNK         0.0600 
    132 H132        2.1648  -13.0853  -46.6211 H         1 UNK         0.0800 
    133 H133        3.8508  -13.4136  -46.9100 H         1 UNK         0.0800 
    134 H134        1.3538  -14.9921  -47.8080 H         1 UNK         0.0800 
    135 H135        0.3508  -13.9083  -48.7398 H         1 UNK         0.0800 
    136 H136       -0.4521  -14.6933  -50.8776 H         1 UNK         0.1150 
    137 H137        1.3203  -18.1202  -52.7443 H         1 UNK         0.1150 
    138 H138        2.9890  -16.5477  -49.1228 H         1 UNK         0.1150 
    139 H139        3.2045  -19.2130  -51.7988 H         1 UNK         0.0800 
    140 H140        4.3131  -18.0223  -51.1640 H         1 UNK         0.0800 
    141 H141        1.1691  -19.8030  -48.9438 H         1 UNK         0.0800 
    142 H142        1.6317  -20.5121  -50.4703 H         1 UNK         0.0800 
    143 H143        2.9200  -22.3028  -49.2374 H         1 UNK         0.0600 
    144 H144        2.1488  -20.7713  -46.9020 H         1 UNK         0.3000 
    145 H145        3.3585  -23.2433  -44.5806 H         1 UNK         0.0600 
    146 H146        4.5373  -21.2093  -43.8156 H         1 UNK         0.0600 
    147 H147        4.1795  -20.3887  -45.3330 H         1 UNK         0.0600 
    148 H148        5.2504  -21.7846  -45.3152 H         1 UNK         0.0600 
    149 H149        2.0472  -20.7750  -44.1082 H         1 UNK         0.3000 
    150 H150       -1.2891  -22.0897  -43.8571 H         1 UNK         0.0600 
    151 H151        0.7076  -20.9564  -41.8299 H         1 UNK         0.0600 
    152 H152       -1.0434  -21.0225  -41.6485 H         1 UNK         0.0600 
    153 H153       -0.1087  -22.5092  -41.6966 H         1 UNK         0.0600 
    154 H154       -0.2089  -19.4465  -43.5718 H         1 UNK         0.3000 
    155 H155       -0.6146  -18.5160  -47.0079 H         1 UNK         0.0600 
    156 H156       -2.9165  -18.2432  -46.0702 H         1 UNK         0.0600 
    157 H157       -2.0330  -16.7277  -46.0490 H         1 UNK         0.0600 
    158 H158       -2.2374  -17.6483  -44.5582 H         1 UNK         0.0600 
    159 H159        0.1723  -16.9708  -44.7714 H         1 UNK         0.3000 
    160 H160        3.6868  -17.8118  -44.9763 H         1 UNK         0.0600 
    161 H161        2.0286  -15.2822  -45.4539 H         1 UNK         0.0600 
    162 H162        3.1918  -15.9764  -46.5853 H         1 UNK         0.0600 
    163 H163        3.7402  -15.3338  -45.0444 H         1 UNK         0.0600 
    164 H164        2.2861  -16.1579  -43.1413 H         1 UNK         0.3000 
    165 H165        1.6317  -18.6589  -40.6572 H         1 UNK         0.0600 
    166 H166        2.8439  -16.9182  -39.3527 H         1 UNK         0.0600 
    167 H167        3.9606  -17.8497  -40.3389 H         1 UNK         0.0600 
    168 H168        3.4952  -16.2302  -40.8402 H         1 UNK         0.0600 
    169 H169        1.0354  -15.8455  -40.9243 H         1 UNK         0.3000 
    170 H170       -2.2850  -16.2771  -42.1540 H         1 UNK         0.0600 
    171 H171       -2.4276  -16.7101  -39.6965 H         1 UNK         0.0600 
    172 H172       -1.2342  -15.4529  -39.3938 H         1 UNK         0.0600 
    173 H173       -2.8068  -15.0379  -40.0764 H         1 UNK         0.0600 
    174 H174       -0.8542  -13.9513  -41.3478 H         1 UNK         0.3000 
    175 H175        0.4477  -13.1633  -44.5993 H         1 UNK         0.0600 
    176 H176       -1.7042  -11.9870  -42.7546 H         1 UNK         0.0600 
    177 H177       -0.8508  -11.1215  -44.0290 H         1 UNK         0.0600 
    178 H178       -1.9349  -12.4394  -44.4407 H         1 UNK         0.0600 
    179 H179        0.8790  -11.6008  -42.4433 H         1 UNK         0.3000 
    180 H180        2.5911  -11.8496  -40.6962 H         1 UNK         0.0600 
    181 H181        3.9854  -13.8665  -40.3034 H         1 UNK         0.0600 
    182 H182        5.0012  -12.4436  -40.4667 H         1 UNK         0.0600 
    183 H183        4.8664  -13.5860  -41.8023 H         1 UNK         0.0600 
    184 H184        4.3511  -11.5242  -43.0677 H         1 UNK         0.3000 
    185 H185        3.0552   -8.2765  -43.7957 H         1 UNK         0.0600 
    186 H186        5.2320   -8.4642  -42.6119 H         1 UNK         0.0600 
    187 H187        5.7034   -9.8144  -43.6313 H         1 UNK         0.0600 
    188 H188        5.4549   -8.2213  -44.3365 H         1 UNK         0.0600 
    189 H189        2.7131   -9.2465  -45.7385 H         1 UNK         0.3000 
    190 H190        0.2853  -22.5842  -47.1180 H         1 UNK         0.3000 
    191 H191       -1.5927  -23.7112  -47.0349 H         1 UNK         0.0600 
    192 H192       -2.0855  -25.6045  -48.4907 H         1 UNK         0.0600 
    193 H193       -0.3625  -25.6056  -48.1515 H         1 UNK         0.0600 
    194 H194       -0.9597  -25.0468  -49.7152 H         1 UNK         0.0600 
    195 H195       -1.3638  -21.0873  -48.3967 H         1 UNK         0.3000 
    196 H196       -3.5899  -20.8632  -50.2448 H         1 UNK         0.0600 
    197 H197       -3.2298  -18.4531  -50.0117 H         1 UNK         0.0600 
    198 H198       -1.6594  -19.2239  -50.1743 H         1 UNK         0.0600 
    199 H199       -2.2197  -18.6773  -48.5955 H         1 UNK         0.0600 
    200 H200       -3.1869  -21.0357  -46.7940 H         1 UNK         0.3000 
    201 H201       -5.8063  -20.0189  -46.0387 H         1 UNK         0.0600 
    202 H202       -5.1346  -20.9251  -43.8008 H         1 UNK         0.0600 
    203 H203       -3.8713  -19.9201  -44.4851 H         1 UNK         0.0600 
    204 H204       -3.7165  -21.6756  -44.5225 H         1 UNK         0.0600 
    205 H205       -4.8093  -22.9590  -47.5327 H         1 UNK         0.3000 
    206 H206       -6.6964  -24.7425  -46.2036 H         1 UNK         0.0600 
    207 H207       -5.1358  -25.1964  -48.8003 H         1 UNK         0.0600 
    208 H208       -4.4394  -25.4569  -47.2001 H         1 UNK         0.0600 
    209 H209       -5.8111  -26.4121  -47.7323 H         1 UNK         0.0600 
    210 H210       -8.1160  -26.0940  -47.7529 H         1 UNK         0.3000 
    211 H211      -10.2444  -24.5857  -48.7872 H         1 UNK         0.0600 
    212 H212       -9.4414  -27.4970  -49.3252 H         1 UNK         0.0600 
    213 H213      -11.0189  -26.7986  -49.6699 H         1 UNK         0.0600 
    214 H214      -10.4671  -26.9281  -48.0074 H         1 UNK         0.0600 
    215 H215      -10.5853  -23.6006  -50.6596 H         1 UNK         0.3000 
    216 H216      -10.3167  -22.6377  -52.6276 H         1 UNK         0.0600 
    217 H217      -10.9268  -24.9272  -53.4745 H         1 UNK         0.0600 
    218 H218       -9.2144  -25.3218  -53.6198 H         1 UNK         0.0600 
    219 H219       -9.9152  -24.0475  -54.6067 H         1 UNK         0.0600 
    220 H220       -8.0061  -22.6137  -50.6937 H         1 UNK         0.3000 
    221 H221       -5.9476  -21.9163  -50.4265 H         1 UNK         0.0600 
    222 H222       -5.0444  -20.1749  -51.9099 H         1 UNK         0.0600 
    223 H223       -6.1076  -20.6585  -53.2226 H         1 UNK         0.0600 
    224 H224       -6.7694  -19.9273  -51.7607 H         1 UNK         0.0600 
    225 H225       -6.3679  -24.5493  -51.4541 H         1 UNK         0.3000 
    226 H226       -5.3793  -26.3644  -52.1796 H         1 UNK         0.0600 
    227 H227       -3.4408  -25.6496  -50.7579 H         1 UNK         0.0600 
    228 H228       -2.9280  -26.5947  -52.1442 H         1 UNK         0.0600 
    229 H229       -2.7121  -24.8514  -52.1488 H         1 UNK         0.0600 
    230 H230       -6.2413  -24.1297  -54.0790 H         1 UNK         0.3000 
    231 H231       -6.5898  -23.7469  -56.1880 H         1 UNK         0.0600 
    232 H232       -6.5138  -25.5643  -57.8372 H         1 UNK         0.0600 
    233 H233       -7.1078  -26.1959  -56.3119 H         1 UNK         0.0600 
    234 H234       -5.4484  -26.5175  -56.8157 H         1 UNK         0.0600 
    235 H235       -3.7485  -23.3111  -54.9854 H         1 UNK         0.3000 
    236 H236       -2.5194  -22.2777  -57.4729 H         1 UNK         0.0600 
    237 H237       -1.6706  -24.6194  -57.2677 H         1 UNK         0.0600 
    238 H238       -0.3766  -23.4712  -56.9807 H         1 UNK         0.0600 
    239 H239       -1.1337  -24.2943  -55.6209 H         1 UNK         0.0600 
    240 H240       -3.4407  -21.5827  -54.3882 H         1 UNK         0.3000 
    241 H241       -2.9730  -20.0824  -52.8819 H         1 UNK         0.0600 
    242 H242       -2.2609  -22.4536  -52.2064 H         1 UNK         0.3800 
    243 H243       -0.6508  -22.5029  -51.4808 H         1 UNK         0.3800 
    244 H244       -2.2882  -18.5522  -54.9422 H         1 UNK         0.0800 
    245 H245       -0.6695  -18.7521  -54.3427 H         1 UNK         0.0800 
    246 H246       -1.1073  -15.3081  -53.1067 H         1 UNK         0.0800 
    247 H247       -0.2132  -16.4908  -54.0124 H         1 UNK         0.0800 
@<TRIPOS>BOND
     1    1    2 1    
     2    1  127 1    
     3    1  128 1    
     4    1  129 1    
     5    2    3 2    
     6    2    4 am   BACKBONE|DICT|INTERRES
     7    4    5 1    
     8    4  130 1    
     9    5    6 1    
    10    5   65 1    
    11    5  131 1    
    12    6    7 1    
    13    6  132 1    
    14    6  133 1    
    15    7    8 1    
    16    8    9 1    
    17    8  134 1    
    18    8  135 1    
    19    9   10 ar   
    20    9   14 ar   
    21   10   11 ar   
    22   10  136 1    
    23   11   12 ar   
    24   11  126 1    
    25   12   13 ar   
    26   12  137 1    
    27   13   14 ar   
    28   13   15 1    
    29   14  138 1    
    30   15   16 1    
    31   15  139 1    
    32   15  140 1    
    33   16   17 1    
    34   17   18 1    
    35   17  141 1    
    36   17  142 1    
    37   18   19 1    
    38   18   67 1    
    39   18  143 1    
    40   19   20 am   BACKBONE|DICT|INTERRES
    41   19  144 1    
    42   20   21 2    
    43   20   22 1    
    44   22   23 1    
    45   22   24 1    
    46   22  145 1    
    47   23  146 1    
    48   23  147 1    
    49   23  148 1    
    50   24   25 am   BACKBONE|DICT|INTERRES
    51   24  149 1    
    52   25   26 2    
    53   25   27 1    
    54   27   28 1    
    55   27   29 1    
    56   27  150 1    
    57   28  151 1    
    58   28  152 1    
    59   28  153 1    
    60   29   30 am   BACKBONE|DICT|INTERRES
    61   29  154 1    
    62   30   31 2    
    63   30   32 1    
    64   32   33 1    
    65   32   34 1    
    66   32  155 1    
    67   33  156 1    
    68   33  157 1    
    69   33  158 1    
    70   34   35 am   BACKBONE|DICT|INTERRES
    71   34  159 1    
    72   35   36 2    
    73   35   37 1    
    74   37   38 1    
    75   37   39 1    
    76   37  160 1    
    77   38  161 1    
    78   38  162 1    
    79   38  163 1    
    80   39   40 am   BACKBONE|DICT|INTERRES
    81   39  164 1    
    82   40   41 2    
    83   40   42 1    
    84   42   43 1    
    85   42   44 1    
    86   42  165 1    
    87   43  166 1    
    88   43  167 1    
    89   43  168 1    
    90   44   45 am   BACKBONE|DICT|INTERRES
    91   44  169 1    
    92   45   46 2    
    93   45   47 1    
    94   47   48 1    
    95   47   49 1    
    96   47  170 1    
    97   48  171 1    
    98   48  172 1    
    99   48  173 1    
   100   49   50 am   BACKBONE|DICT|INTERRES
   101   49  174 1    
   102   50   51 2    
   103   50   52 1    
   104   52   53 1    
   105   52   54 1    
   106   52  175 1    
   107   53  176 1    
   108   53  177 1    
   109   53  178 1    
   110   54   55 am   BACKBONE|DICT|INTERRES
   111   54  179 1    
   112   55   56 2    
   113   55   57 1    
   114   57   58 1    
   115   57   59 1    
   116   57  180 1    
   117   58  181 1    
   118   58  182 1    
   119   58  183 1    
   120   59   60 am   BACKBONE|DICT|INTERRES
   121   59  184 1    
   122   60   61 2    
   123   60   62 1    
   124   62   63 1    
   125   62   64 1    
   126   62  185 1    
   127   63  186 1    
   128   63  187 1    
   129   63  188 1    
   130   64   65 am   BACKBONE|DICT|INTERRES
   131   64  189 1    
   132   65   66 2    
   133   67   68 2    
   134   67   69 am   BACKBONE|DICT|INTERRES
   135   69   70 1    
   136   69  190 1    
   137   70   71 1    
   138   70   72 1    
   139   70  191 1    
   140   71  192 1    
   141   71  193 1    
   142   71  194 1    
   143   72   73 2    
   144   72   74 am   BACKBONE|DICT|INTERRES
   145   74   75 1    
   146   74  195 1    
   147   75   76 1    
   148   75   77 1    
   149   75  196 1    
   150   76  197 1    
   151   76  198 1    
   152   76  199 1    
   153   77   78 2    
   154   77   79 am   BACKBONE|DICT|INTERRES
   155   79   80 1    
   156   79  200 1    
   157   80   81 1    
   158   80   82 1    
   159   80  201 1    
   160   81  202 1    
   161   81  203 1    
   162   81  204 1    
   163   82   83 2    
   164   82   84 am   BACKBONE|DICT|INTERRES
   165   84   85 1    
   166   84  205 1    
   167   85   86 1    
   168   85   87 1    
   169   85  206 1    
   170   86  207 1    
   171   86  208 1    
   172   86  209 1    
   173   87   88 2    
   174   87   89 am   BACKBONE|DICT|INTERRES
   175   89   90 1    
   176   89  210 1    
   177   90   91 1    
   178   90   92 1    
   179   90  211 1    
   180   91  212 1    
   181   91  213 1    
   182   91  214 1    
   183   92   93 2    
   184   92   94 am   BACKBONE|DICT|INTERRES
   185   94   95 1    
   186   94  215 1    
   187   95   96 1    
   188   95   97 1    
   189   95  216 1    
   190   96  217 1    
   191   96  218 1    
   192   96  219 1    
   193   97   98 2    
   194   97   99 am   BACKBONE|DICT|INTERRES
   195   99  100 1    
   196   99  220 1    
   197  100  101 1    
   198  100  102 1    
   199  100  221 1    
   200  101  222 1    
   201  101  223 1    
   202  101  224 1    
   203  102  103 2    
   204  102  104 am   BACKBONE|DICT|INTERRES
   205  104  105 1    
   206  104  225 1    
   207  105  106 1    
   208  105  107 1    
   209  105  226 1    
   210  106  227 1    
   211  106  228 1    
   212  106  229 1    
   213  107  108 2    
   214  107  109 am   BACKBONE|DICT|INTERRES
   215  109  110 1    
   216  109  230 1    
   217  110  111 1    
   218  110  112 1    
   219  110  231 1    
   220  111  232 1    
   221  111  233 1    
   222  111  234 1    
   223  112  113 2    
   224  112  114 am   BACKBONE|DICT|INTERRES
   225  114  115 1    
   226  114  235 1    
   227  115  116 1    
   228  115  117 1    
   229  115  236 1    
   230  116  237 1    
   231  116  238 1    
   232  116  239 1    
   233  117  118 2    
   234  117  119 am   BACKBONE|DICT|INTERRES
   235  119  120 1    
   236  119  240 1    
   237  120  121 1    
   238  120  124 1    
   239  120  241 1    
   240  121  122 am   BACKBONE|DICT|INTERRES
   241  121  123 2    
   242  122  242 1    
   243  122  243 1    
   244  124  125 1    
   245  124  244 1    
   246  124  245 1    
   247  125  126 1    
   248  126  246 1    
   249  126  247 1    
@<TRIPOS>SUBSTRUCTURE
     1 UNK         1 GROUP             0       ****    0 ROOT    
