@<TRIPOS>MOLECULE
3R540
247   249    1
SMALL
USER_CHARGES


@<TRIPOS>ATOM
      1 CA         -2.8111  -12.5239  -42.3050 C.3       0 UNK        -0.1800 
      2 C          -2.6251  -11.6348  -43.5257 C.2       0 UNK         0.5000 
      3 O          -1.9679  -10.5978  -43.4367 O.2       0 UNK        -0.5000 
      4 N          -3.1842  -12.0443  -44.6716 N.am      1 UNK        -0.5000 
      5 CA         -3.1552  -11.3211  -45.9531 C.3       1 UNK         0.1400 
      6 C6         -4.1373  -11.9441  -46.9765 C.3       23 UNK        -0.0398 
      7 S7         -3.8306  -13.7171  -47.3007 S.3       23 UNK        -0.2404 
      8 C8         -3.5552  -13.7086  -49.0968 C.3       23 UNK        -0.0205 
      9 C9         -3.1038  -15.0759  -49.5835 C.ar      23 UNK        -0.0193 
     10 C10        -4.0367  -16.0376  -49.9802 C.ar      23 UNK        -0.1150 
     11 C11        -3.6244  -17.3006  -50.4187 C.ar      23 UNK        -0.0193 
     12 C12        -2.2521  -17.5859  -50.4611 C.ar      23 UNK        -0.1150 
     13 C13        -1.3074  -16.6333  -50.0650 C.ar      23 UNK        -0.0193 
     14 C14        -1.7437  -15.3811  -49.6293 C.ar      23 UNK        -0.1150 
     15 C15         0.1888  -16.9358  -50.0871 C.3       23 UNK        -0.0205 
     16 S16         0.6796  -18.4974  -49.2718 S.3       23 UNK        -0.2404 
     17 C17        -0.4446  -18.6340  -47.8395 C.3       23 UNK        -0.0398 
     18 CA         -1.3139  -19.9102  -47.9695 C.3       11 UNK         0.1400 
     19 N          -0.4797  -21.0874  -47.7369 N.am      11 UNK        -0.5000 
     20 C          -0.7416  -22.3695  -48.0089 C.2       10 UNK         0.5000 
     21 O          -1.7390  -22.7442  -48.6278 O.2       10 UNK        -0.5000 
     22 CA          0.2938  -23.4018  -47.4937 C.3       10 UNK         0.1400 
     23 CB          0.6008  -24.4784  -48.5461 C.3       10 UNK        -0.1800 
     24 N           1.5631  -22.7988  -47.0585 N.am      10 UNK        -0.5000 
     25 C           1.7579  -22.1354  -45.9102 C.2       9 UNK         0.5000 
     26 O           0.8853  -22.0106  -45.0493 O.2       9 UNK        -0.5000 
     27 CA          3.1267  -21.4472  -45.7460 C.3       9 UNK         0.1400 
     28 CB          3.4062  -20.4762  -46.9085 C.3       9 UNK        -0.1800 
     29 N           3.1819  -20.6980  -44.4906 N.am      9 UNK        -0.5000 
     30 C           3.6733  -21.1824  -43.3433 C.2       8 UNK         0.5000 
     31 O           4.1968  -22.2930  -43.2382 O.2       8 UNK        -0.5000 
     32 CA          3.5779  -20.2797  -42.0998 C.3       8 UNK         0.1400 
     33 CB          4.7965  -19.3482  -42.0136 C.3       8 UNK        -0.1800 
     34 N           2.3506  -19.4834  -42.0411 N.am      8 UNK        -0.5000 
     35 C           1.1398  -19.9888  -41.7626 C.2       7 UNK         0.5000 
     36 O           0.9286  -21.1875  -41.5769 O.2       7 UNK        -0.5000 
     37 CA         -0.0278  -18.9968  -41.6288 C.3       7 UNK         0.1400 
     38 CB         -0.0719  -18.4108  -40.2091 C.3       7 UNK        -0.1800 
     39 N           0.0670  -17.9009  -42.5886 N.am      7 UNK        -0.5000 
     40 C          -0.6754  -17.7801  -43.6984 C.2       6 UNK         0.5000 
     41 O          -1.5630  -18.5665  -44.0314 O.2       6 UNK        -0.5000 
     42 CA         -0.3741  -16.5685  -44.6029 C.3       6 UNK         0.1400 
     43 CB         -1.3480  -15.4191  -44.3075 C.3       6 UNK        -0.1800 
     44 N           1.0034  -16.0831  -44.4941 N.am      6 UNK        -0.5000 
     45 C           2.0921  -16.7954  -44.8259 C.2       5 UNK         0.5000 
     46 O           2.0498  -17.9363  -45.2830 O.2       5 UNK        -0.5000 
     47 CA          3.4638  -16.1604  -44.5366 C.3       5 UNK         0.1400 
     48 CB          4.0219  -15.4832  -45.7958 C.3       5 UNK        -0.1800 
     49 N           3.4448  -15.2103  -43.4205 N.am      5 UNK        -0.5000 
     50 C           3.1479  -15.5362  -42.1524 C.2       4 UNK         0.5000 
     51 O           2.8291  -16.6735  -41.8025 O.2       4 UNK        -0.5000 
     52 CA          3.1613  -14.4044  -41.1070 C.3       4 UNK         0.1400 
     53 CB          4.5372  -14.3188  -40.4307 C.3       4 UNK        -0.1800 
     54 N           2.8062  -13.0895  -41.6477 N.am      4 UNK        -0.5000 
     55 C           1.6290  -12.7875  -42.2114 C.2       3 UNK         0.5000 
     56 O           0.7156  -13.6037  -42.3453 O.2       3 UNK        -0.5000 
     57 CA          1.4292  -11.3519  -42.7414 C.3       3 UNK         0.1400 
     58 CB          2.6833  -10.4524  -42.6543 C.3       3 UNK        -0.1800 
     59 N           0.8928  -11.3726  -44.1047 N.am      3 UNK        -0.5000 
     60 C           1.4617  -11.9351  -45.1833 C.2       2 UNK         0.5000 
     61 O           2.5888  -12.4311  -45.1728 O.2       2 UNK        -0.5000 
     62 CA          0.6174  -11.9778  -46.4725 C.3       2 UNK         0.1400 
     63 CB          0.9617  -13.1856  -47.3628 C.3       2 UNK        -0.1800 
     64 N          -0.8072  -12.0219  -46.1460 N.am      2 UNK        -0.5000 
     65 C          -1.7374  -11.1488  -46.5487 C.2       1 UNK         0.5000 
     66 O          -1.5173  -10.2237  -47.3315 O.2       1 UNK        -0.5000 
     67 C          -2.5727  -19.9016  -47.0683 C.2       11 UNK         0.5000 
     68 O          -2.8925  -20.9255  -46.4673 O.2       11 UNK        -0.5000 
     69 N          -3.3000  -18.7742  -47.0453 N.am      12 UNK        -0.5000 
     70 CA         -4.6744  -18.5573  -46.5617 C.3       12 UNK         0.1400 
     71 CB         -4.8885  -17.0528  -46.3541 C.3       12 UNK        -0.1800 
     72 C          -5.1973  -19.3339  -45.3323 C.2       12 UNK         0.5000 
     73 O          -6.3957  -19.6157  -45.2924 O.2       12 UNK        -0.5000 
     74 N          -4.3370  -19.6814  -44.3649 N.am      13 UNK        -0.5000 
     75 CA         -4.6867  -20.5644  -43.2453 C.3       13 UNK         0.1400 
     76 CB         -3.5308  -20.5911  -42.2375 C.3       13 UNK        -0.1800 
     77 C          -5.0533  -22.0010  -43.6823 C.2       13 UNK         0.5000 
     78 O          -5.9056  -22.6258  -43.0495 O.2       13 UNK        -0.5000 
     79 N          -4.4199  -22.4836  -44.7581 N.am      14 UNK        -0.5000 
     80 CA         -4.7168  -23.7481  -45.4323 C.3       14 UNK         0.1400 
     81 CB         -3.4084  -24.5290  -45.6325 C.3       14 UNK        -0.1800 
     82 C          -5.4029  -23.4994  -46.7885 C.2       14 UNK         0.5000 
     83 O          -6.3071  -24.2513  -47.1532 O.2       14 UNK        -0.5000 
     84 N          -4.9698  -22.4407  -47.4900 N.am      15 UNK        -0.5000 
     85 CA         -5.4433  -21.9498  -48.7862 C.3       15 UNK         0.1400 
     86 CB         -6.8707  -21.3789  -48.6630 C.3       15 UNK        -0.1800 
     87 C          -5.3078  -22.9991  -49.9060 C.2       15 UNK         0.5000 
     88 O          -6.2831  -23.3027  -50.5980 O.2       15 UNK        -0.5000 
     89 N          -4.0953  -23.5457  -50.0671 N.am      16 UNK        -0.5000 
     90 CA         -3.7604  -24.5784  -51.0487 C.3       16 UNK         0.1400 
     91 CB         -2.4960  -25.3184  -50.5870 C.3       16 UNK        -0.1800 
     92 C          -3.6279  -24.0168  -52.4804 C.2       16 UNK         0.5000 
     93 O          -2.5776  -24.1451  -53.1144 O.2       16 UNK        -0.5000 
     94 N          -4.7151  -23.4259  -52.9895 N.am      17 UNK        -0.5000 
     95 CA         -4.8395  -22.9133  -54.3555 C.3       17 UNK         0.1400 
     96 CB         -6.1805  -22.1806  -54.5003 C.3       17 UNK        -0.1800 
     97 C          -4.6952  -24.0148  -55.4243 C.2       17 UNK         0.5000 
     98 O          -4.1649  -23.7481  -56.5018 O.2       17 UNK        -0.5000 
     99 N          -5.1001  -25.2466  -55.0813 N.am      18 UNK        -0.5000 
    100 CA        -4.9160  -26.4542  -55.8916 C.3       18 UNK         0.1400 
    101 CB        -5.7384  -27.5963  -55.2760 C.3       18 UNK        -0.1800 
    102 C         -3.4384  -26.8752  -56.0424 C.2       18 UNK         0.5000 
    103 O         -3.0933  -27.5179  -57.0341 O.2       18 UNK        -0.5000 
    104 N         -2.5926  -26.4866  -55.0773 N.am      19 UNK        -0.5000 
    105 CA        -1.1382  -26.6641  -55.1053 C.3       19 UNK         0.1400 
    106 CB        -0.6513  -26.9824  -53.6814 C.3       19 UNK        -0.1800 
    107 C         -0.4170  -25.4183  -55.6626 C.2       19 UNK         0.5000 
    108 O          0.8140  -25.3897  -55.6708 O.2       19 UNK        -0.5000 
    109 N         -1.1898  -24.4107  -56.0981 N.am      20 UNK        -0.5000 
    110 CA        -0.7717  -23.1088  -56.6216 C.3       20 UNK         0.1400 
    111 CB         0.0690  -23.2656  -57.9062 C.3       20 UNK        -0.1800 
    112 C         -0.1016  -22.1946  -55.5751 C.2       20 UNK         0.5000 
    113 O          0.5681  -21.2344  -55.9608 O.2       20 UNK        -0.5000 
    114 N         -0.3238  -22.4537  -54.2749 N.am      21 UNK        -0.5000 
    115 CA         0.2055  -21.6396  -53.1720 C.3       21 UNK         0.1400 
    116 CB        -0.0815  -22.3311  -51.8302 C.3       21 UNK        -0.1800 
    117 C         -0.3638  -20.2086  -53.1695 C.2       21 UNK         0.5000 
    118 O          0.3484  -19.2630  -52.8347 O.2       21 UNK        -0.5000 
    119 N         -1.6273  -20.0889  -53.5895 N.am      22 UNK        -0.5000 
    120 CA        -2.3554  -18.8256  -53.7703 C.3       22 UNK         0.1400 
    121 C         -2.1528  -18.1785  -55.1734 C.2       22 UNK         0.5000 
    122 N         -1.2936  -18.7026  -56.0411 N.am      22 UNK        -0.7600 
    123 O         -2.7818  -17.1706  -55.4831 O.2       22 UNK        -0.5000 
    124 C124       -3.8595  -18.9828  -53.4189 C.3       23 UNK        -0.0398 
    125 S125       -4.1488  -19.7522  -51.7837 S.3       23 UNK        -0.2404 
    126 C126       -4.7004  -18.3257  -50.7857 C.3       23 UNK        -0.0205 
    127 H127       -3.3822  -11.9965  -41.5412 H         1 UNK         0.0600 
    128 H128       -1.8425  -12.7908  -41.8831 H         1 UNK         0.0600 
    129 H129       -3.3391  -13.4455  -42.5511 H         1 UNK         0.0600 
    130 H130       -3.7007  -12.9127  -44.6871 H         1 UNK         0.3000 
    131 H131       -3.5125  -10.3105  -45.7440 H         1 UNK         0.0600 
    132 H132       -5.1565  -11.8514  -46.5993 H         1 UNK         0.0800 
    133 H133       -4.1248  -11.3810  -47.9115 H         1 UNK         0.0800 
    134 H134       -4.4738  -13.4119  -49.6052 H         1 UNK         0.0800 
    135 H135       -2.8034  -12.9582  -49.3475 H         1 UNK         0.0800 
    136 H136       -5.0913  -15.8044  -49.9315 H         1 UNK         0.1150 
    137 H137       -1.9026  -18.5535  -50.7889 H         1 UNK         0.1150 
    138 H138       -1.0240  -14.6389  -49.3183 H         1 UNK         0.1150 
    139 H139        0.7461  -16.1263  -49.6130 H         1 UNK         0.0800 
    140 H140        0.5224  -16.9673  -51.1250 H         1 UNK         0.0800 
    141 H141       -1.0343  -17.7242  -47.7508 H         1 UNK         0.0800 
    142 H142        0.1580  -18.6811  -46.9325 H         1 UNK         0.0800 
    143 H143       -1.6937  -19.9837  -48.9896 H         1 UNK         0.0600 
    144 H144        0.3510  -20.9141  -47.1943 H         1 UNK         0.3000 
    145 H145       -0.1593  -23.8979  -46.6331 H         1 UNK         0.0600 
    146 H146       -0.2873  -25.0692  -48.7654 H         1 UNK         0.0600 
    147 H147        1.3620  -25.1736  -48.1918 H         1 UNK         0.0600 
    148 H148        0.9525  -24.0414  -49.4809 H         1 UNK         0.0600 
    149 H149        2.3201  -22.8441  -47.7256 H         1 UNK         0.3000 
    150 H150        3.8970  -22.2210  -45.7556 H         1 UNK         0.0600 
    151 H151        2.5870  -19.7726  -47.0565 H         1 UNK         0.0600 
    152 H152        3.5490  -21.0101  -47.8483 H         1 UNK         0.0600 
    153 H153        4.3126  -19.8972  -46.7304 H         1 UNK         0.0600 
    154 H154        2.7209  -19.7951  -44.4915 H         1 UNK         0.3000 
    155 H155        3.5969  -20.9296  -41.2222 H         1 UNK         0.0600 
    156 H156        4.8474  -18.6716  -42.8657 H         1 UNK         0.0600 
    157 H157        5.7245  -19.9210  -41.9947 H         1 UNK         0.0600 
    158 H158        4.7690  -18.7439  -41.1066 H         1 UNK         0.0600 
    159 H159        2.4644  -18.4756  -42.1032 H         1 UNK         0.3000 
    160 H160       -0.9482  -19.5572  -41.7871 H         1 UNK         0.0600 
    161 H161       -0.1475  -19.2016  -39.4617 H         1 UNK         0.0600 
    162 H162        0.8231  -17.8290  -39.9844 H         1 UNK         0.0600 
    163 H163       -0.9360  -17.7587  -40.0807 H         1 UNK         0.0600 
    164 H164        0.7903  -17.2147  -42.4156 H         1 UNK         0.3000 
    165 H165       -0.5346  -16.8768  -45.6342 H         1 UNK         0.0600 
    166 H166       -1.1832  -14.5800  -44.9810 H         1 UNK         0.0600 
    167 H167       -2.3814  -15.7397  -44.4368 H         1 UNK         0.0600 
    168 H168       -1.2475  -15.0605  -43.2832 H         1 UNK         0.0600 
    169 H169        1.1322  -15.1770  -44.0624 H         1 UNK         0.3000 
    170 H170        4.1452  -16.9681  -44.2670 H         1 UNK         0.0600 
    171 H171        4.9998  -15.0395  -45.6090 H         1 UNK         0.0600 
    172 H172        3.3593  -14.6997  -46.1604 H         1 UNK         0.0600 
    173 H173        4.1416  -16.2069  -46.6032 H         1 UNK         0.0600 
    174 H174        3.6416  -14.2438  -43.6427 H         1 UNK         0.3000 
    175 H175        2.4218  -14.6594  -40.3451 H         1 UNK         0.0600 
    176 H176        4.8201  -15.2796  -39.9980 H         1 UNK         0.0600 
    177 H177        5.3169  -14.0354  -41.1388 H         1 UNK         0.0600 
    178 H178        4.5351  -13.5882  -39.6216 H         1 UNK         0.0600 
    179 H179        3.5128  -12.3706  -41.5913 H         1 UNK         0.3000 
    180 H180        0.6563  -10.9038  -42.1154 H         1 UNK         0.0600 
    181 H181        3.5237  -10.8563  -43.2198 H         1 UNK         0.0600 
    182 H182        3.0062  -10.3239  -41.6206 H         1 UNK         0.0600 
    183 H183        2.4731   -9.4570  -43.0459 H         1 UNK         0.0600 
    184 H184       -0.0509  -11.0124  -44.1927 H         1 UNK         0.3000 
    185 H185        0.8559  -11.0670  -47.0248 H         1 UNK         0.0600 
    186 H186        2.0143  -13.1807  -47.6479 H         1 UNK         0.0600 
    187 H187        0.7574  -14.1315  -46.8597 H         1 UNK         0.0600 
    188 H188        0.3833  -13.1611  -48.2851 H         1 UNK         0.0600 
    189 H189       -1.0906  -12.7358  -45.4911 H         1 UNK         0.3000 
    190 H190       -2.9365  -17.9908  -47.5676 H         1 UNK         0.3000 
    191 H191       -5.3168  -18.8593  -47.3897 H         1 UNK         0.0600 
    192 H192       -4.7537  -16.5078  -47.2864 H         1 UNK         0.0600 
    193 H193       -5.8988  -16.8374  -46.0034 H         1 UNK         0.0600 
    194 H194       -4.1926  -16.6474  -45.6205 H         1 UNK         0.0600 
    195 H195       -3.3612  -19.4100  -44.4479 H         1 UNK         0.3000 
    196 H196       -5.5600  -20.1404  -42.7455 H         1 UNK         0.0600 
    197 H197       -3.7695  -21.2238  -41.3817 H         1 UNK         0.0600 
    198 H198       -3.3233  -19.5915  -41.8557 H         1 UNK         0.0600 
    199 H199       -2.6183  -20.9802  -42.6914 H         1 UNK         0.0600 
    200 H200       -3.7547  -21.8726  -45.2292 H         1 UNK         0.3000 
    201 H201       -5.3885  -24.3571  -44.8239 H         1 UNK         0.0600 
    202 H202       -3.5913  -25.4760  -46.1416 H         1 UNK         0.0600 
    203 H203       -2.9365  -24.7570  -44.6767 H         1 UNK         0.0600 
    204 H204       -2.6931  -23.9661  -46.2322 H         1 UNK         0.0600 
    205 H205       -4.1781  -21.9283  -47.1067 H         1 UNK         0.3000 
    206 H206       -4.7818  -21.1265  -49.0576 H         1 UNK         0.0600 
    207 H207       -6.9314  -20.6258  -47.8785 H         1 UNK         0.0600 
    208 H208       -7.1807  -20.9036  -49.5944 H         1 UNK         0.0600 
    209 H209       -7.5993  -22.1569  -48.4332 H         1 UNK         0.0600 
    210 H210       -3.3253  -23.2260  -49.4814 H         1 UNK         0.3000 
    211 H211       -4.5723  -25.3082  -51.0654 H         1 UNK         0.0600 
    212 H212       -1.6165  -24.6774  -50.6428 H         1 UNK         0.0600 
    213 H213       -2.3081  -26.1931  -51.2095 H         1 UNK         0.0600 
    214 H214       -2.5950  -25.6683  -49.5594 H         1 UNK         0.0600 
    215 H215       -5.5240  -23.3335  -52.3812 H         1 UNK         0.3000 
    216 H216       -4.0353  -22.1926  -54.5150 H         1 UNK         0.0600 
    217 H217       -7.0249  -22.8514  -54.3375 H         1 UNK         0.0600 
    218 H218       -6.2863  -21.7524  -55.4979 H         1 UNK         0.0600 
    219 H219       -6.2613  -21.3620  -53.7847 H         1 UNK         0.0600 
    220 H220       -5.5305  -25.3707  -54.1767 H         1 UNK         0.3000 
    221 H221       -5.3040  -26.2522  -56.8922 H         1 UNK         0.0600 
    222 H222       -5.4069  -27.8311  -54.2637 H         1 UNK         0.0600 
    223 H223       -6.7976  -27.3417  -55.2331 H         1 UNK         0.0600 
    224 H224       -5.6487  -28.5068  -55.8702 H         1 UNK         0.0600 
    225 H225       -2.9453  -25.9217  -54.3155 H         1 UNK         0.3000 
    226 H226       -0.8796  -27.5081  -55.7478 H         1 UNK         0.0600 
    227 H227       -1.2046  -27.8156  -53.2481 H         1 UNK         0.0600 
    228 H228        0.4033  -27.2604  -53.6839 H         1 UNK         0.0600 
    229 H229       -0.7570  -26.1236  -53.0187 H         1 UNK         0.0600 
    230 H230       -2.1925  -24.5399  -56.0530 H         1 UNK         0.3000 
    231 H231       -1.6927  -22.5973  -56.9037 H         1 UNK         0.0600 
    232 H232        1.0536  -23.6857  -57.6998 H         1 UNK         0.0600 
    233 H233        0.2234  -22.3019  -58.3928 H         1 UNK         0.0600 
    234 H234       -0.4294  -23.9137  -58.6270 H         1 UNK         0.0600 
    235 H235       -0.9220  -23.2324  -54.0198 H         1 UNK         0.3000 
    236 H236        1.2880  -21.5706  -53.2969 H         1 UNK         0.0600 
    237 H237       -1.1491  -22.3611  -51.6106 H         1 UNK         0.0600 
    238 H238        0.2928  -23.3547  -51.8234 H         1 UNK         0.0600 
    239 H239        0.4008  -21.7992  -51.0090 H         1 UNK         0.0600 
    240 H240       -2.1234  -20.9291  -53.8419 H         1 UNK         0.3000 
    241 H241       -1.9382  -18.0931  -53.0805 H         1 UNK         0.0600 
    242 H242       -1.1761  -18.2623  -56.9400 H         1 UNK         0.3800 
    243 H243       -0.7240  -19.5035  -55.8018 H         1 UNK         0.3800 
    244 H244       -4.3569  -19.5994  -54.1687 H         1 UNK         0.0800 
    245 H245       -4.3592  -18.0132  -53.4497 H         1 UNK         0.0800 
    246 H246       -5.5179  -17.8304  -51.3119 H         1 UNK         0.0800 
    247 H247       -5.1270  -18.7100  -49.8592 H         1 UNK         0.0800 
@<TRIPOS>BOND
     1    1    2 1    
     2    1  127 1    
     3    1  128 1    
     4    1  129 1    
     5    2    3 2    
     6    2    4 am   BACKBONE|DICT|INTERRES
     7    4    5 1    
     8    4  130 1    
     9    5    6 1    
    10    5   65 1    
    11    5  131 1    
    12    6    7 1    
    13    6  132 1    
    14    6  133 1    
    15    7    8 1    
    16    8    9 1    
    17    8  134 1    
    18    8  135 1    
    19    9   10 ar   
    20    9   14 ar   
    21   10   11 ar   
    22   10  136 1    
    23   11   12 ar   
    24   11  126 1    
    25   12   13 ar   
    26   12  137 1    
    27   13   14 ar   
    28   13   15 1    
    29   14  138 1    
    30   15   16 1    
    31   15  139 1    
    32   15  140 1    
    33   16   17 1    
    34   17   18 1    
    35   17  141 1    
    36   17  142 1    
    37   18   19 1    
    38   18   67 1    
    39   18  143 1    
    40   19   20 am   BACKBONE|DICT|INTERRES
    41   19  144 1    
    42   20   21 2    
    43   20   22 1    
    44   22   23 1    
    45   22   24 1    
    46   22  145 1    
    47   23  146 1    
    48   23  147 1    
    49   23  148 1    
    50   24   25 am   BACKBONE|DICT|INTERRES
    51   24  149 1    
    52   25   26 2    
    53   25   27 1    
    54   27   28 1    
    55   27   29 1    
    56   27  150 1    
    57   28  151 1    
    58   28  152 1    
    59   28  153 1    
    60   29   30 am   BACKBONE|DICT|INTERRES
    61   29  154 1    
    62   30   31 2    
    63   30   32 1    
    64   32   33 1    
    65   32   34 1    
    66   32  155 1    
    67   33  156 1    
    68   33  157 1    
    69   33  158 1    
    70   34   35 am   BACKBONE|DICT|INTERRES
    71   34  159 1    
    72   35   36 2    
    73   35   37 1    
    74   37   38 1    
    75   37   39 1    
    76   37  160 1    
    77   38  161 1    
    78   38  162 1    
    79   38  163 1    
    80   39   40 am   BACKBONE|DICT|INTERRES
    81   39  164 1    
    82   40   41 2    
    83   40   42 1    
    84   42   43 1    
    85   42   44 1    
    86   42  165 1    
    87   43  166 1    
    88   43  167 1    
    89   43  168 1    
    90   44   45 am   BACKBONE|DICT|INTERRES
    91   44  169 1    
    92   45   46 2    
    93   45   47 1    
    94   47   48 1    
    95   47   49 1    
    96   47  170 1    
    97   48  171 1    
    98   48  172 1    
    99   48  173 1    
   100   49   50 am   BACKBONE|DICT|INTERRES
   101   49  174 1    
   102   50   51 2    
   103   50   52 1    
   104   52   53 1    
   105   52   54 1    
   106   52  175 1    
   107   53  176 1    
   108   53  177 1    
   109   53  178 1    
   110   54   55 am   BACKBONE|DICT|INTERRES
   111   54  179 1    
   112   55   56 2    
   113   55   57 1    
   114   57   58 1    
   115   57   59 1    
   116   57  180 1    
   117   58  181 1    
   118   58  182 1    
   119   58  183 1    
   120   59   60 am   BACKBONE|DICT|INTERRES
   121   59  184 1    
   122   60   61 2    
   123   60   62 1    
   124   62   63 1    
   125   62   64 1    
   126   62  185 1    
   127   63  186 1    
   128   63  187 1    
   129   63  188 1    
   130   64   65 am   BACKBONE|DICT|INTERRES
   131   64  189 1    
   132   65   66 2    
   133   67   68 2    
   134   67   69 am   BACKBONE|DICT|INTERRES
   135   69   70 1    
   136   69  190 1    
   137   70   71 1    
   138   70   72 1    
   139   70  191 1    
   140   71  192 1    
   141   71  193 1    
   142   71  194 1    
   143   72   73 2    
   144   72   74 am   BACKBONE|DICT|INTERRES
   145   74   75 1    
   146   74  195 1    
   147   75   76 1    
   148   75   77 1    
   149   75  196 1    
   150   76  197 1    
   151   76  198 1    
   152   76  199 1    
   153   77   78 2    
   154   77   79 am   BACKBONE|DICT|INTERRES
   155   79   80 1    
   156   79  200 1    
   157   80   81 1    
   158   80   82 1    
   159   80  201 1    
   160   81  202 1    
   161   81  203 1    
   162   81  204 1    
   163   82   83 2    
   164   82   84 am   BACKBONE|DICT|INTERRES
   165   84   85 1    
   166   84  205 1    
   167   85   86 1    
   168   85   87 1    
   169   85  206 1    
   170   86  207 1    
   171   86  208 1    
   172   86  209 1    
   173   87   88 2    
   174   87   89 am   BACKBONE|DICT|INTERRES
   175   89   90 1    
   176   89  210 1    
   177   90   91 1    
   178   90   92 1    
   179   90  211 1    
   180   91  212 1    
   181   91  213 1    
   182   91  214 1    
   183   92   93 2    
   184   92   94 am   BACKBONE|DICT|INTERRES
   185   94   95 1    
   186   94  215 1    
   187   95   96 1    
   188   95   97 1    
   189   95  216 1    
   190   96  217 1    
   191   96  218 1    
   192   96  219 1    
   193   97   98 2    
   194   97   99 am   BACKBONE|DICT|INTERRES
   195   99  100 1    
   196   99  220 1    
   197  100  101 1    
   198  100  102 1    
   199  100  221 1    
   200  101  222 1    
   201  101  223 1    
   202  101  224 1    
   203  102  103 2    
   204  102  104 am   BACKBONE|DICT|INTERRES
   205  104  105 1    
   206  104  225 1    
   207  105  106 1    
   208  105  107 1    
   209  105  226 1    
   210  106  227 1    
   211  106  228 1    
   212  106  229 1    
   213  107  108 2    
   214  107  109 am   BACKBONE|DICT|INTERRES
   215  109  110 1    
   216  109  230 1    
   217  110  111 1    
   218  110  112 1    
   219  110  231 1    
   220  111  232 1    
   221  111  233 1    
   222  111  234 1    
   223  112  113 2    
   224  112  114 am   BACKBONE|DICT|INTERRES
   225  114  115 1    
   226  114  235 1    
   227  115  116 1    
   228  115  117 1    
   229  115  236 1    
   230  116  237 1    
   231  116  238 1    
   232  116  239 1    
   233  117  118 2    
   234  117  119 am   BACKBONE|DICT|INTERRES
   235  119  120 1    
   236  119  240 1    
   237  120  121 1    
   238  120  124 1    
   239  120  241 1    
   240  121  122 am   BACKBONE|DICT|INTERRES
   241  121  123 2    
   242  122  242 1    
   243  122  243 1    
   244  124  125 1    
   245  124  244 1    
   246  124  245 1    
   247  125  126 1    
   248  126  246 1    
   249  126  247 1    
@<TRIPOS>SUBSTRUCTURE
     1 UNK         1 GROUP             0       ****    0 ROOT    
