@<TRIPOS>MOLECULE
3R540
247   249    1
SMALL
USER_CHARGES


@<TRIPOS>ATOM
      1 CA         -0.5796  -15.0160  -46.7577 C.3       0 UNK        -0.1800 
      2 C          -0.7535  -13.5791  -47.2256 C.2       0 UNK         0.5000 
      3 O          -1.6524  -12.8867  -46.7484 O.2       0 UNK        -0.5000 
      4 N           0.1022  -13.1269  -48.1531 N.am      1 UNK        -0.5000 
      5 CA          0.1477  -11.7327  -48.6223 C.3       1 UNK         0.1400 
      6 C6          0.8557  -11.5752  -49.9924 C.3       23 UNK        -0.0398 
      7 S7          0.1210  -12.6227  -51.2957 S.3       23 UNK        -0.2404 
      8 C8          1.3909  -13.9205  -51.4469 C.3       23 UNK        -0.0205 
      9 C9          0.7893  -15.2773  -51.7776 C.ar      23 UNK        -0.0193 
     10 C10         1.1341  -15.9428  -52.9585 C.ar      23 UNK        -0.1150 
     11 C11         0.6397  -17.2250  -53.2205 C.ar      23 UNK        -0.0193 
     12 C12        -0.2091  -17.8351  -52.2918 C.ar      23 UNK        -0.1150 
     13 C13        -0.5758  -17.1741  -51.1173 C.ar      23 UNK        -0.0193 
     14 C14        -0.0748  -15.8945  -50.8688 C.ar      23 UNK        -0.1150 
     15 C15        -1.5073  -17.8389  -50.1154 C.3       23 UNK        -0.0205 
     16 S16        -0.6681  -18.1391  -48.5308 S.3       23 UNK        -0.2404 
     17 C17        -1.9581  -19.0276  -47.5987 C.3       23 UNK        -0.0398 
     18 CA         -1.5810  -20.5145  -47.4295 C.3       11 UNK         0.1400 
     19 N          -0.4041  -20.7024  -46.5770 N.am      11 UNK        -0.5000 
     20 C           0.2867  -21.8470  -46.4963 C.2       10 UNK         0.5000 
     21 O           0.0205  -22.8520  -47.1547 O.2       10 UNK        -0.5000 
     22 CA          1.4345  -21.8954  -45.4726 C.3       10 UNK         0.1400 
     23 CB          2.6907  -21.2024  -46.0209 C.3       10 UNK        -0.1800 
     24 N           1.0606  -21.3083  -44.1850 N.am      10 UNK        -0.5000 
     25 C           0.0954  -21.7925  -43.3899 C.2       9 UNK         0.5000 
     26 O          -0.5484  -22.8110  -43.6415 O.2       9 UNK        -0.5000 
     27 CA         -0.2372  -20.9904  -42.1199 C.3       9 UNK         0.1400 
     28 CB          0.7500  -21.3296  -40.9936 C.3       9 UNK        -0.1800 
     29 N          -0.2581  -19.5442  -42.3420 N.am      9 UNK        -0.5000 
     30 C          -1.1054  -18.9054  -43.1619 C.2       8 UNK         0.5000 
     31 O          -1.9836  -19.4694  -43.8137 O.2       8 UNK        -0.5000 
     32 CA         -0.9022  -17.3875  -43.3269 C.3       8 UNK         0.1400 
     33 CB         -1.4723  -16.6153  -42.1283 C.3       8 UNK        -0.1800 
     34 N           0.5022  -17.0283  -43.5203 N.am      8 UNK        -0.5000 
     35 C           1.2537  -17.4496  -44.5478 C.2       7 UNK         0.5000 
     36 O           0.8343  -18.1612  -45.4600 O.2       7 UNK        -0.5000 
     37 CA          2.7384  -17.0554  -44.5116 C.3       7 UNK         0.1400 
     38 CB          2.9360  -15.5973  -44.9588 C.3       7 UNK        -0.1800 
     39 N           3.3099  -17.2530  -43.1787 N.am      7 UNK        -0.5000 
     40 C           3.5045  -18.4552  -42.6156 C.2       6 UNK         0.5000 
     41 O           3.2599  -19.5222  -43.1781 O.2       6 UNK        -0.5000 
     42 CA          4.0212  -18.4673  -41.1653 C.3       6 UNK         0.1400 
     43 CB          5.5502  -18.3252  -41.1340 C.3       6 UNK        -0.1800 
     44 N           3.4202  -17.4189  -40.3401 N.am      6 UNK        -0.5000 
     45 C           2.1191  -17.3504  -40.0233 C.2       5 UNK         0.5000 
     46 O           1.2874  -18.1873  -40.3682 O.2       5 UNK        -0.5000 
     47 CA          1.6611  -16.1171  -39.2244 C.3       5 UNK         0.1400 
     48 CB          1.7403  -16.3922  -37.7157 C.3       5 UNK        -0.1800 
     49 N           2.4286  -14.9100  -39.5395 N.am      5 UNK        -0.5000 
     50 C           2.4460  -14.3128  -40.7380 C.2       4 UNK         0.5000 
     51 O           1.8308  -14.7308  -41.7226 O.2       4 UNK        -0.5000 
     52 CA          3.3585  -13.0799  -40.8666 C.3       4 UNK         0.1400 
     53 CB          4.6494  -13.4545  -41.6121 C.3       4 UNK        -0.1800 
     54 N           2.7137  -11.9726  -41.5683 N.am      4 UNK        -0.5000 
     55 C           1.6137  -11.3206  -41.1652 C.2       3 UNK         0.5000 
     56 O           1.0262  -11.5640  -40.1099 O.2       3 UNK        -0.5000 
     57 CA          1.0946  -10.1814  -42.0708 C.3       3 UNK         0.1400 
     58 CB          1.2586   -8.8204  -41.3745 C.3       3 UNK        -0.1800 
     59 N           1.7550  -10.1177  -43.3791 N.am      3 UNK        -0.5000 
     60 C           1.5225  -10.9635  -44.3894 C.2       2 UNK         0.5000 
     61 O           0.7113  -11.8899  -44.3316 O.2       2 UNK        -0.5000 
     62 CA          2.3896  -10.7692  -45.6454 C.3       2 UNK         0.1400 
     63 CB          3.7710  -11.4140  -45.4413 C.3       2 UNK        -0.1800 
     64 N           1.7573  -11.3878  -46.8057 N.am      2 UNK        -0.5000 
     65 C           0.8129  -10.8206  -47.5685 C.2       1 UNK         0.5000 
     66 O           0.4584   -9.6455  -47.4621 O.2       1 UNK        -0.5000 
     67 C          -2.7804  -21.3538  -46.9478 C.2       11 UNK         0.5000 
     68 O          -3.4714  -21.9383  -47.7818 O.2       11 UNK        -0.5000 
     69 N          -2.9863  -21.4494  -45.6256 N.am      12 UNK        -0.5000 
     70 CA         -3.9966  -22.3121  -45.0081 C.3       12 UNK         0.1400 
     71 CB         -4.0392  -22.0804  -43.4907 C.3       12 UNK        -0.1800 
     72 C          -3.7766  -23.7993  -45.3389 C.2       12 UNK         0.5000 
     73 O          -4.7213  -24.4704  -45.7583 O.2       12 UNK        -0.5000 
     74 N          -2.5234  -24.2604  -45.2072 N.am      13 UNK        -0.5000 
     75 CA         -2.0769  -25.6073  -45.5701 C.3       13 UNK         0.1400 
     76 CB         -0.6210  -25.8042  -45.1226 C.3       13 UNK        -0.1800 
     77 C          -2.2340  -25.9185  -47.0710 C.2       13 UNK         0.5000 
     78 O          -2.5594  -27.0529  -47.4216 O.2       13 UNK        -0.5000 
     79 N          -2.0746  -24.9009  -47.9280 N.am      14 UNK        -0.5000 
     80 CA         -2.3156  -24.9403  -49.3738 C.3       14 UNK         0.1400 
     81 CB         -1.4987  -23.8206  -50.0440 C.3       14 UNK        -0.1800 
     82 C          -3.8179  -24.8709  -49.7399 C.2       14 UNK         0.5000 
     83 O          -4.1828  -24.2126  -50.7164 O.2       14 UNK        -0.5000 
     84 N          -4.6606  -25.5571  -48.9539 N.am      15 UNK        -0.5000 
     85 CA         -6.1143  -25.6868  -49.0831 C.3       15 UNK         0.1400 
     86 CB         -6.4621  -26.5268  -50.3308 C.3       15 UNK        -0.1800 
     87 C          -6.8443  -24.3289  -49.0520 C.2       15 UNK         0.5000 
     88 O          -7.7169  -24.0841  -49.8844 O.2       15 UNK        -0.5000 
     89 N          -6.4483  -23.4521  -48.1159 N.am      16 UNK        -0.5000 
     90 CA         -6.9015  -22.0577  -47.9920 C.3       16 UNK         0.1400 
     91 CB         -8.3721  -21.9947  -47.5307 C.3       16 UNK        -0.1800 
     92 C          -6.6269  -21.2484  -49.2789 C.2       16 UNK         0.5000 
     93 O          -7.5114  -20.5697  -49.8028 O.2       16 UNK        -0.5000 
     94 N          -5.3917  -21.3945  -49.7724 N.am      17 UNK        -0.5000 
     95 CA         -4.8073  -20.8579  -51.0010 C.3       17 UNK         0.1400 
     96 CB         -4.8469  -19.3168  -51.0109 C.3       17 UNK        -0.1800 
     97 C          -5.3646  -21.4540  -52.3117 C.2       17 UNK         0.5000 
     98 O          -4.9016  -21.0494  -53.3791 O.2       17 UNK        -0.5000 
     99 N          -6.3032  -22.4086  -52.2481 N.am      18 UNK        -0.5000 
    100 CA        -6.9472  -22.9944  -53.4251 C.3       18 UNK         0.1400 
    101 CB        -8.2325  -23.7219  -53.0064 C.3       18 UNK        -0.1800 
    102 C         -6.0446  -23.9397  -54.2388 C.2       18 UNK         0.5000 
    103 O         -6.3037  -24.1116  -55.4314 O.2       18 UNK        -0.5000 
    104 N         -5.0200  -24.5392  -53.6105 N.am      19 UNK        -0.5000 
    105 CA        -4.0978  -25.4907  -54.2405 C.3       19 UNK         0.1400 
    106 CB        -3.1430  -26.0655  -53.1839 C.3       19 UNK        -0.1800 
    107 C         -3.3222  -24.8472  -55.4057 C.2       19 UNK         0.5000 
    108 O         -2.4714  -23.9881  -55.1738 O.2       19 UNK        -0.5000 
    109 N         -3.6900  -25.2197  -56.6408 N.am      20 UNK        -0.5000 
    110 CA        -3.2170  -24.6489  -57.9113 C.3       20 UNK         0.1400 
    111 CB        -1.7358  -25.0111  -58.1481 C.3       20 UNK        -0.1800 
    112 C         -3.4840  -23.1298  -58.0463 C.2       20 UNK         0.5000 
    113 O         -2.7785  -22.4478  -58.7912 O.2       20 UNK        -0.5000 
    114 N         -4.4863  -22.6300  -57.3053 N.am      21 UNK        -0.5000 
    115 CA        -4.8755  -21.2247  -57.1469 C.3       21 UNK         0.1400 
    116 CB        -5.4392  -20.6634  -58.4689 C.3       21 UNK        -0.1800 
    117 C         -3.7779  -20.3221  -56.5344 C.2       21 UNK         0.5000 
    118 O         -3.8363  -19.1026  -56.7021 O.2       21 UNK        -0.5000 
    119 N         -2.8101  -20.9163  -55.8248 N.am      22 UNK        -0.5000 
    120 CA        -1.7354  -20.2148  -55.1109 C.3       22 UNK         0.1400 
    121 C         -1.2021  -21.0777  -53.9340 C.2       22 UNK         0.5000 
    122 N         -2.0853  -21.6651  -53.1411 N.am      22 UNK        -0.7600 
    123 O         -0.0015  -21.2251  -53.7260 O.2       22 UNK        -0.5000 
    124 C124       -0.6356  -19.6465  -56.0612 C.3       23 UNK        -0.0398 
    125 S125       -0.2751  -17.8815  -55.7486 S.3       23 UNK        -0.2404 
    126 C126        1.0407  -17.9605  -54.4918 C.3       23 UNK        -0.0205 
    127 H127        0.2588  -15.5069  -47.2520 H         1 UNK         0.0600 
    128 H128       -1.4821  -15.5914  -46.9625 H         1 UNK         0.0600 
    129 H129       -0.3982  -15.0368  -45.6831 H         1 UNK         0.0600 
    130 H130        0.7971  -13.7485  -48.5380 H         1 UNK         0.3000 
    131 H131       -0.8803  -11.3844  -48.7455 H         1 UNK         0.0600 
    132 H132        0.7823  -10.5397  -50.3296 H         1 UNK         0.0800 
    133 H133        1.9239  -11.7824  -49.9079 H         1 UNK         0.0800 
    134 H134        2.1161  -13.6173  -52.2035 H         1 UNK         0.0800 
    135 H135        1.9463  -14.0211  -50.5139 H         1 UNK         0.0800 
    136 H136        1.8030  -15.4718  -53.6652 H         1 UNK         0.1150 
    137 H137       -0.5845  -18.8278  -52.4815 H         1 UNK         0.1150 
    138 H138       -0.3473  -15.3856  -49.9554 H         1 UNK         0.1150 
    139 H139       -2.3769  -17.2004  -49.9536 H         1 UNK         0.0800 
    140 H140       -1.8781  -18.7874  -50.5072 H         1 UNK         0.0800 
    141 H141       -2.9129  -18.9205  -48.1163 H         1 UNK         0.0800 
    142 H142       -2.0803  -18.5479  -46.6259 H         1 UNK         0.0800 
    143 H143       -1.3240  -20.8970  -48.4197 H         1 UNK         0.0600 
    144 H144       -0.0951  -19.8983  -46.0393 H         1 UNK         0.3000 
    145 H145        1.6779  -22.9458  -45.2998 H         1 UNK         0.0600 
    146 H146        3.5315  -21.3129  -45.3360 H         1 UNK         0.0600 
    147 H147        2.9900  -21.6360  -46.9759 H         1 UNK         0.0600 
    148 H148        2.5281  -20.1365  -46.1809 H         1 UNK         0.0600 
    149 H149        1.5777  -20.4865  -43.8911 H         1 UNK         0.3000 
    150 H150       -1.2355  -21.2871  -41.7931 H         1 UNK         0.0600 
    151 H151        0.7764  -22.4038  -40.8063 H         1 UNK         0.0600 
    152 H152        0.4643  -20.8443  -40.0603 H         1 UNK         0.0600 
    153 H153        1.7642  -21.0128  -41.2389 H         1 UNK         0.0600 
    154 H154        0.4072  -18.9968  -41.8012 H         1 UNK         0.3000 
    155 H155       -1.4473  -17.0762  -44.2206 H         1 UNK         0.0600 
    156 H156       -1.3704  -15.5389  -42.2685 H         1 UNK         0.0600 
    157 H157       -0.9684  -16.8804  -41.1990 H         1 UNK         0.0600 
    158 H158       -2.5339  -16.8286  -41.9978 H         1 UNK         0.0600 
    159 H159        0.9272  -16.4331  -42.8190 H         1 UNK         0.3000 
    160 H160        3.2743  -17.7003  -45.2115 H         1 UNK         0.0600 
    161 H161        2.4035  -14.8954  -44.3163 H         1 UNK         0.0600 
    162 H162        2.5674  -15.4512  -45.9747 H         1 UNK         0.0600 
    163 H163        3.9907  -15.3222  -44.9540 H         1 UNK         0.0600 
    164 H164        3.4797  -16.4240  -42.6289 H         1 UNK         0.3000 
    165 H165        3.7586  -19.4326  -40.7273 H         1 UNK         0.0600 
    166 H166        5.8752  -17.3634  -41.5328 H         1 UNK         0.0600 
    167 H167        5.9337  -18.4145  -40.1175 H         1 UNK         0.0600 
    168 H168        6.0263  -19.1055  -41.7293 H         1 UNK         0.0600 
    169 H169        4.0336  -16.6896  -40.0088 H         1 UNK         0.3000 
    170 H170        0.6174  -15.9263  -39.4825 H         1 UNK         0.0600 
    171 H171        1.1583  -17.2757  -37.4495 H         1 UNK         0.0600 
    172 H172        2.7668  -16.5650  -37.3900 H         1 UNK         0.0600 
    173 H173        1.3406  -15.5567  -37.1406 H         1 UNK         0.0600 
    174 H174        2.9647  -14.5092  -38.7832 H         1 UNK         0.3000 
    175 H175        3.6242  -12.7284  -39.8675 H         1 UNK         0.0600 
    176 H176        5.3365  -12.6095  -41.6611 H         1 UNK         0.0600 
    177 H177        5.1728  -14.2676  -41.1073 H         1 UNK         0.0600 
    178 H178        4.4449  -13.7794  -42.6334 H         1 UNK         0.0600 
    179 H179        3.1103  -11.7140  -42.4578 H         1 UNK         0.3000 
    180 H180        0.0281  -10.3557  -42.2285 H         1 UNK         0.0600 
    181 H181        2.3077   -8.5881  -41.1873 H         1 UNK         0.0600 
    182 H182        0.7430   -8.8063  -40.4133 H         1 UNK         0.0600 
    183 H183        0.8376   -8.0153  -41.9770 H         1 UNK         0.0600 
    184 H184        2.4448   -9.3888  -43.4959 H         1 UNK         0.3000 
    185 H185        2.5200   -9.7002  -45.8272 H         1 UNK         0.0600 
    186 H186        4.3943  -11.2978  -46.3282 H         1 UNK         0.0600 
    187 H187        4.3043  -10.9502  -44.6107 H         1 UNK         0.0600 
    188 H188        3.6916  -12.4806  -45.2260 H         1 UNK         0.0600 
    189 H189        1.9275  -12.3745  -46.9258 H         1 UNK         0.3000 
    190 H190       -2.4162  -20.8925  -44.9940 H         1 UNK         0.3000 
    191 H191       -4.9677  -22.0231  -45.4099 H         1 UNK         0.0600 
    192 H192       -4.2575  -21.0383  -43.2571 H         1 UNK         0.0600 
    193 H193       -4.8174  -22.6872  -43.0264 H         1 UNK         0.0600 
    194 H194       -3.0952  -22.3395  -43.0133 H         1 UNK         0.0600 
    195 H195       -1.8150  -23.6410  -44.8213 H         1 UNK         0.3000 
    196 H196       -2.6990  -26.3176  -45.0218 H         1 UNK         0.0600 
    197 H197       -0.2713  -26.8099  -45.3588 H         1 UNK         0.0600 
    198 H198       -0.5182  -25.6684  -44.0459 H         1 UNK         0.0600 
    199 H199        0.0500  -25.0988  -45.6133 H         1 UNK         0.0600 
    200 H200       -1.7804  -24.0069  -47.5530 H         1 UNK         0.3000 
    201 H201       -1.9437  -25.8922  -49.7573 H         1 UNK         0.0600 
    202 H202       -0.4473  -23.8745  -49.7611 H         1 UNK         0.0600 
    203 H203       -1.8692  -22.8336  -49.7694 H         1 UNK         0.0600 
    204 H204       -1.5422  -23.8976  -51.1296 H         1 UNK         0.0600 
    205 H205       -4.2448  -26.0700  -48.1857 H         1 UNK         0.3000 
    206 H206       -6.4552  -26.2371  -48.2052 H         1 UNK         0.0600 
    207 H207       -5.9547  -27.4912  -50.3104 H         1 UNK         0.0600 
    208 H208       -7.5331  -26.7255  -50.3835 H         1 UNK         0.0600 
    209 H209       -6.1782  -26.0196  -51.2532 H         1 UNK         0.0600 
    210 H210       -5.7189  -23.7435  -47.4735 H         1 UNK         0.3000 
    211 H211       -6.2950  -21.5969  -47.2133 H         1 UNK         0.0600 
    212 H212       -9.0530  -22.3966  -48.2814 H         1 UNK         0.0600 
    213 H213       -8.6743  -20.9654  -47.3346 H         1 UNK         0.0600 
    214 H214       -8.5193  -22.5573  -46.6088 H         1 UNK         0.0600 
    215 H215       -4.7489  -21.9550  -49.2185 H         1 UNK         0.3000 
    216 H216       -3.7590  -21.1545  -50.9598 H         1 UNK         0.0600 
    217 H217       -4.4595  -18.9042  -50.0801 H         1 UNK         0.0600 
    218 H218       -5.8602  -18.9390  -51.1486 H         1 UNK         0.0600 
    219 H219       -4.2383  -18.9160  -51.8226 H         1 UNK         0.0600 
    220 H220       -6.6154  -22.7370  -51.3425 H         1 UNK         0.3000 
    221 H221       -7.2345  -22.1739  -54.0863 H         1 UNK         0.0600 
    222 H222       -8.0155  -24.6183  -52.4251 H         1 UNK         0.0600 
    223 H223       -8.8781  -23.0786  -52.4082 H         1 UNK         0.0600 
    224 H224       -8.8040  -24.0345  -53.8812 H         1 UNK         0.0600 
    225 H225       -4.8470  -24.3199  -52.6338 H         1 UNK         0.3000 
    226 H226       -4.6939  -26.3181  -54.6305 H         1 UNK         0.0600 
    227 H227       -3.6916  -26.5655  -52.3857 H         1 UNK         0.0600 
    228 H228       -2.4686  -26.7997  -53.6259 H         1 UNK         0.0600 
    229 H229       -2.5285  -25.2857  -52.7353 H         1 UNK         0.0600 
    230 H230       -4.4365  -25.8959  -56.7271 H         1 UNK         0.3000 
    231 H231       -3.8033  -25.1268  -58.6972 H         1 UNK         0.0600 
    232 H232       -1.4173  -24.7255  -59.1513 H         1 UNK         0.0600 
    233 H233       -1.5718  -26.0843  -58.0515 H         1 UNK         0.0600 
    234 H234       -1.0773  -24.5060  -57.4407 H         1 UNK         0.0600 
    235 H235       -5.0109  -23.2822  -56.7297 H         1 UNK         0.3000 
    236 H236       -5.6890  -21.2265  -56.4200 H         1 UNK         0.0600 
    237 H237       -5.8815  -19.6777  -58.3199 H         1 UNK         0.0600 
    238 H238       -4.6640  -20.5611  -59.2287 H         1 UNK         0.0600 
    239 H239       -6.2203  -21.3090  -58.8703 H         1 UNK         0.0600 
    240 H240       -2.8226  -21.9238  -55.7020 H         1 UNK         0.3000 
    241 H241       -2.2140  -19.3716  -54.6087 H         1 UNK         0.0600 
    242 H242       -1.7595  -22.2615  -52.4004 H         1 UNK         0.3800 
    243 H243       -3.0775  -21.5544  -53.3244 H         1 UNK         0.3800 
    244 H244        0.2858  -20.2299  -56.0381 H         1 UNK         0.0800 
    245 H245       -0.9674  -19.7061  -57.0985 H         1 UNK         0.0800 
    246 H246        1.2890  -18.9939  -54.2503 H         1 UNK         0.0800 
    247 H247        1.9496  -17.5263  -54.9108 H         1 UNK         0.0800 
@<TRIPOS>BOND
     1    1    2 1    
     2    1  127 1    
     3    1  128 1    
     4    1  129 1    
     5    2    3 2    
     6    2    4 am   BACKBONE|DICT|INTERRES
     7    4    5 1    
     8    4  130 1    
     9    5    6 1    
    10    5   65 1    
    11    5  131 1    
    12    6    7 1    
    13    6  132 1    
    14    6  133 1    
    15    7    8 1    
    16    8    9 1    
    17    8  134 1    
    18    8  135 1    
    19    9   10 ar   
    20    9   14 ar   
    21   10   11 ar   
    22   10  136 1    
    23   11   12 ar   
    24   11  126 1    
    25   12   13 ar   
    26   12  137 1    
    27   13   14 ar   
    28   13   15 1    
    29   14  138 1    
    30   15   16 1    
    31   15  139 1    
    32   15  140 1    
    33   16   17 1    
    34   17   18 1    
    35   17  141 1    
    36   17  142 1    
    37   18   19 1    
    38   18   67 1    
    39   18  143 1    
    40   19   20 am   BACKBONE|DICT|INTERRES
    41   19  144 1    
    42   20   21 2    
    43   20   22 1    
    44   22   23 1    
    45   22   24 1    
    46   22  145 1    
    47   23  146 1    
    48   23  147 1    
    49   23  148 1    
    50   24   25 am   BACKBONE|DICT|INTERRES
    51   24  149 1    
    52   25   26 2    
    53   25   27 1    
    54   27   28 1    
    55   27   29 1    
    56   27  150 1    
    57   28  151 1    
    58   28  152 1    
    59   28  153 1    
    60   29   30 am   BACKBONE|DICT|INTERRES
    61   29  154 1    
    62   30   31 2    
    63   30   32 1    
    64   32   33 1    
    65   32   34 1    
    66   32  155 1    
    67   33  156 1    
    68   33  157 1    
    69   33  158 1    
    70   34   35 am   BACKBONE|DICT|INTERRES
    71   34  159 1    
    72   35   36 2    
    73   35   37 1    
    74   37   38 1    
    75   37   39 1    
    76   37  160 1    
    77   38  161 1    
    78   38  162 1    
    79   38  163 1    
    80   39   40 am   BACKBONE|DICT|INTERRES
    81   39  164 1    
    82   40   41 2    
    83   40   42 1    
    84   42   43 1    
    85   42   44 1    
    86   42  165 1    
    87   43  166 1    
    88   43  167 1    
    89   43  168 1    
    90   44   45 am   BACKBONE|DICT|INTERRES
    91   44  169 1    
    92   45   46 2    
    93   45   47 1    
    94   47   48 1    
    95   47   49 1    
    96   47  170 1    
    97   48  171 1    
    98   48  172 1    
    99   48  173 1    
   100   49   50 am   BACKBONE|DICT|INTERRES
   101   49  174 1    
   102   50   51 2    
   103   50   52 1    
   104   52   53 1    
   105   52   54 1    
   106   52  175 1    
   107   53  176 1    
   108   53  177 1    
   109   53  178 1    
   110   54   55 am   BACKBONE|DICT|INTERRES
   111   54  179 1    
   112   55   56 2    
   113   55   57 1    
   114   57   58 1    
   115   57   59 1    
   116   57  180 1    
   117   58  181 1    
   118   58  182 1    
   119   58  183 1    
   120   59   60 am   BACKBONE|DICT|INTERRES
   121   59  184 1    
   122   60   61 2    
   123   60   62 1    
   124   62   63 1    
   125   62   64 1    
   126   62  185 1    
   127   63  186 1    
   128   63  187 1    
   129   63  188 1    
   130   64   65 am   BACKBONE|DICT|INTERRES
   131   64  189 1    
   132   65   66 2    
   133   67   68 2    
   134   67   69 am   BACKBONE|DICT|INTERRES
   135   69   70 1    
   136   69  190 1    
   137   70   71 1    
   138   70   72 1    
   139   70  191 1    
   140   71  192 1    
   141   71  193 1    
   142   71  194 1    
   143   72   73 2    
   144   72   74 am   BACKBONE|DICT|INTERRES
   145   74   75 1    
   146   74  195 1    
   147   75   76 1    
   148   75   77 1    
   149   75  196 1    
   150   76  197 1    
   151   76  198 1    
   152   76  199 1    
   153   77   78 2    
   154   77   79 am   BACKBONE|DICT|INTERRES
   155   79   80 1    
   156   79  200 1    
   157   80   81 1    
   158   80   82 1    
   159   80  201 1    
   160   81  202 1    
   161   81  203 1    
   162   81  204 1    
   163   82   83 2    
   164   82   84 am   BACKBONE|DICT|INTERRES
   165   84   85 1    
   166   84  205 1    
   167   85   86 1    
   168   85   87 1    
   169   85  206 1    
   170   86  207 1    
   171   86  208 1    
   172   86  209 1    
   173   87   88 2    
   174   87   89 am   BACKBONE|DICT|INTERRES
   175   89   90 1    
   176   89  210 1    
   177   90   91 1    
   178   90   92 1    
   179   90  211 1    
   180   91  212 1    
   181   91  213 1    
   182   91  214 1    
   183   92   93 2    
   184   92   94 am   BACKBONE|DICT|INTERRES
   185   94   95 1    
   186   94  215 1    
   187   95   96 1    
   188   95   97 1    
   189   95  216 1    
   190   96  217 1    
   191   96  218 1    
   192   96  219 1    
   193   97   98 2    
   194   97   99 am   BACKBONE|DICT|INTERRES
   195   99  100 1    
   196   99  220 1    
   197  100  101 1    
   198  100  102 1    
   199  100  221 1    
   200  101  222 1    
   201  101  223 1    
   202  101  224 1    
   203  102  103 2    
   204  102  104 am   BACKBONE|DICT|INTERRES
   205  104  105 1    
   206  104  225 1    
   207  105  106 1    
   208  105  107 1    
   209  105  226 1    
   210  106  227 1    
   211  106  228 1    
   212  106  229 1    
   213  107  108 2    
   214  107  109 am   BACKBONE|DICT|INTERRES
   215  109  110 1    
   216  109  230 1    
   217  110  111 1    
   218  110  112 1    
   219  110  231 1    
   220  111  232 1    
   221  111  233 1    
   222  111  234 1    
   223  112  113 2    
   224  112  114 am   BACKBONE|DICT|INTERRES
   225  114  115 1    
   226  114  235 1    
   227  115  116 1    
   228  115  117 1    
   229  115  236 1    
   230  116  237 1    
   231  116  238 1    
   232  116  239 1    
   233  117  118 2    
   234  117  119 am   BACKBONE|DICT|INTERRES
   235  119  120 1    
   236  119  240 1    
   237  120  121 1    
   238  120  124 1    
   239  120  241 1    
   240  121  122 am   BACKBONE|DICT|INTERRES
   241  121  123 2    
   242  122  242 1    
   243  122  243 1    
   244  124  125 1    
   245  124  244 1    
   246  124  245 1    
   247  125  126 1    
   248  126  246 1    
   249  126  247 1    
@<TRIPOS>SUBSTRUCTURE
     1 UNK         1 GROUP             0       ****    0 ROOT    
