@<TRIPOS>MOLECULE
3R540
247   249    1
SMALL
USER_CHARGES


@<TRIPOS>ATOM
      1 CA         -4.4589  -12.5789  -51.0426 C.3       0 UNK        -0.1800 
      2 C          -4.5656  -14.0486  -51.4445 C.2       0 UNK         0.5000 
      3 O          -5.5112  -14.4127  -52.1394 O.2       0 UNK        -0.5000 
      4 N          -3.6309  -14.9199  -51.0433 N.am      1 UNK        -0.5000 
      5 CA         -2.5363  -14.6638  -50.1060 C.3       1 UNK         0.1400 
      6 C6         -1.3165  -15.5656  -50.4265 C.3       23 UNK        -0.0398 
      7 S7          0.0812  -15.3852  -49.2633 S.3       23 UNK        -0.2404 
      8 C8          1.4976  -15.8705  -50.2962 C.3       23 UNK        -0.0205 
      9 C9          1.6226  -17.3811  -50.4391 C.ar      23 UNK        -0.0193 
     10 C10         1.1331  -18.0296  -51.5777 C.ar      23 UNK        -0.1150 
     11 C11         1.3138  -19.4068  -51.7369 C.ar      23 UNK        -0.0193 
     12 C12         1.9844  -20.1320  -50.7511 C.ar      23 UNK        -0.1150 
     13 C13         2.4527  -19.5050  -49.5929 C.ar      23 UNK        -0.0193 
     14 C14         2.2700  -18.1259  -49.4467 C.ar      23 UNK        -0.1150 
     15 C15         3.1740  -20.3009  -48.5063 C.3       23 UNK        -0.0205 
     16 S16         2.4247  -21.9304  -48.1507 S.3       23 UNK        -0.2404 
     17 C17         0.6803  -21.4692  -47.9028 C.3       23 UNK        -0.0398 
     18 CA         -0.0930  -22.4724  -47.0240 C.3       11 UNK         0.1400 
     19 N           0.3750  -22.4841  -45.6354 N.am      11 UNK        -0.5000 
     20 C           0.0081  -23.3951  -44.7244 C.2       10 UNK         0.5000 
     21 O          -0.7236  -24.3522  -44.9780 O.2       10 UNK        -0.5000 
     22 CA          0.4780  -23.1590  -43.2769 C.3       10 UNK         0.1400 
     23 CB          1.9271  -23.6270  -43.0781 C.3       10 UNK        -0.1800 
     24 N           0.3448  -21.7570  -42.8747 N.am      10 UNK        -0.5000 
     25 C          -0.8281  -21.1160  -42.7672 C.2       9 UNK         0.5000 
     26 O          -1.9181  -21.6638  -42.9308 O.2       9 UNK        -0.5000 
     27 CA         -0.7804  -19.6031  -42.4864 C.3       9 UNK         0.1400 
     28 CB         -0.5787  -19.3285  -40.9890 C.3       9 UNK        -0.1800 
     29 N           0.2566  -18.9191  -43.2589 N.am      9 UNK        -0.5000 
     30 C           0.2807  -18.8257  -44.5957 C.2       8 UNK         0.5000 
     31 O          -0.6140  -19.2479  -45.3225 O.2       8 UNK        -0.5000 
     32 CA          1.5377  -18.2110  -45.2349 C.3       8 UNK         0.1400 
     33 CB          1.4303  -16.6842  -45.3295 C.3       8 UNK        -0.1800 
     34 N           2.7606  -18.5802  -44.5229 N.am      8 UNK        -0.5000 
     35 C           3.2468  -19.8278  -44.4645 C.2       7 UNK         0.5000 
     36 O           2.7214  -20.7899  -45.0211 O.2       7 UNK        -0.5000 
     37 CA          4.4974  -20.0384  -43.5942 C.3       7 UNK         0.1400 
     38 CB          5.7586  -19.5535  -44.3247 C.3       7 UNK        -0.1800 
     39 N           4.3851  -19.3597  -42.3024 N.am      7 UNK        -0.5000 
     40 C           3.5056  -19.6991  -41.3492 C.2       6 UNK         0.5000 
     41 O           2.7378  -20.6572  -41.4392 O.2       6 UNK        -0.5000 
     42 CA          3.4394  -18.7858  -40.1095 C.3       6 UNK         0.1400 
     43 CB          4.4668  -19.2298  -39.0578 C.3       6 UNK        -0.1800 
     44 N           3.6344  -17.3623  -40.4098 N.am      6 UNK        -0.5000 
     45 C           2.8534  -16.6410  -41.2244 C.2       5 UNK         0.5000 
     46 O           1.9017  -17.1118  -41.8523 O.2       5 UNK        -0.5000 
     47 CA          3.2128  -15.1600  -41.3979 C.3       5 UNK         0.1400 
     48 CB          4.4697  -14.9941  -42.2698 C.3       5 UNK        -0.1800 
     49 N           2.0872  -14.4922  -42.0398 N.am      5 UNK        -0.5000 
     50 C           1.7270  -13.2148  -41.8852 C.2       4 UNK         0.5000 
     51 O           2.3458  -12.4136  -41.1824 O.2       4 UNK        -0.5000 
     52 CA          0.4729  -12.7402  -42.6485 C.3       4 UNK         0.1400 
     53 CB          0.8671  -11.7961  -43.7957 C.3       4 UNK        -0.1800 
     54 N          -0.3343  -13.8281  -43.2078 N.am      4 UNK        -0.5000 
     55 C          -1.1714  -14.6158  -42.5230 C.2       3 UNK         0.5000 
     56 O          -1.3299  -14.5351  -41.3041 O.2       3 UNK        -0.5000 
     57 CA         -1.9807  -15.6384  -43.3555 C.3       3 UNK         0.1400 
     58 CB         -2.9091  -16.5071  -42.4881 C.3       3 UNK        -0.1800 
     59 N          -2.7911  -14.9999  -44.3972 N.am      3 UNK        -0.5000 
     60 C          -2.3350  -14.4798  -45.5431 C.2       2 UNK         0.5000 
     61 O          -1.1434  -14.4640  -45.8586 O.2       2 UNK        -0.5000 
     62 CA         -3.3781  -13.8041  -46.4484 C.3       2 UNK         0.1400 
     63 CB         -3.5967  -12.3474  -46.0101 C.3       2 UNK        -0.1800 
     64 N          -2.9488  -13.8112  -47.8454 N.am      2 UNK        -0.5000 
     65 C          -3.0877  -14.8514  -48.6757 C.2       1 UNK         0.5000 
     66 O          -3.6487  -15.9047  -48.3661 O.2       1 UNK        -0.5000 
     67 C          -1.6103  -22.2110  -47.1387 C.2       11 UNK         0.5000 
     68 O          -2.2335  -22.7205  -48.0692 O.2       11 UNK        -0.5000 
     69 N          -2.1840  -21.4203  -46.2216 N.am      12 UNK        -0.5000 
     70 CA         -3.6184  -21.1407  -46.1473 C.3       12 UNK         0.1400 
     71 CB         -3.8728  -19.8838  -45.3025 C.3       12 UNK        -0.1800 
     72 C          -4.4063  -22.3454  -45.6117 C.2       12 UNK         0.5000 
     73 O          -5.4812  -22.6364  -46.1334 O.2       12 UNK        -0.5000 
     74 N          -3.8361  -23.0659  -44.6352 N.am      13 UNK        -0.5000 
     75 CA         -4.3570  -24.3396  -44.1302 C.3       13 UNK         0.1400 
     76 CB         -3.5750  -24.7556  -42.8753 C.3       13 UNK        -0.1800 
     77 C          -4.3263  -25.4527  -45.1976 C.2       13 UNK         0.5000 
     78 O          -5.2537  -26.2596  -45.2645 O.2       13 UNK        -0.5000 
     79 N          -3.2892  -25.4387  -46.0470 N.am      14 UNK        -0.5000 
     80 CA         -3.1550  -26.2860  -47.2359 C.3       14 UNK         0.1400 
     81 CB         -1.6728  -26.3307  -47.6404 C.3       14 UNK        -0.1800 
     82 C          -4.0250  -25.8237  -48.4275 C.2       14 UNK         0.5000 
     83 O          -4.0789  -26.5265  -49.4365 O.2       14 UNK        -0.5000 
     84 N          -4.6623  -24.6499  -48.3025 N.am      15 UNK        -0.5000 
     85 CA         -5.5339  -23.9545  -49.2572 C.3       15 UNK         0.1400 
     86 CB         -6.7317  -24.8309  -49.6732 C.3       15 UNK        -0.1800 
     87 C          -4.8182  -23.3449  -50.4796 C.2       15 UNK         0.5000 
     88 O          -5.4742  -22.6708  -51.2724 O.2       15 UNK        -0.5000 
     89 N          -3.4990  -23.5348  -50.6052 N.am      16 UNK        -0.5000 
     90 CA         -2.6749  -23.0286  -51.7038 C.3       16 UNK         0.1400 
     91 CB         -1.2707  -23.6440  -51.6088 C.3       16 UNK        -0.1800 
     92 C          -2.5932  -21.4934  -51.7256 C.2       16 UNK         0.5000 
     93 O          -2.7181  -20.8894  -52.7928 O.2       16 UNK        -0.5000 
     94 N          -2.4168  -20.8902  -50.5413 N.am      17 UNK        -0.5000 
     95 CA         -2.4147  -19.4361  -50.3707 C.3       17 UNK         0.1400 
     96 CB         -1.8016  -19.0577  -49.0141 C.3       17 UNK        -0.1800 
     97 C          -3.8230  -18.8393  -50.5220 C.2       17 UNK         0.5000 
     98 O          -3.9693  -17.7926  -51.1522 O.2       17 UNK        -0.5000 
     99 N          -4.8304  -19.5402  -49.9817 N.am      18 UNK        -0.5000 
    100 CA        -6.2387  -19.1397  -50.0090 C.3       18 UNK         0.1400 
    101 CB        -7.0464  -20.0611  -49.0820 C.3       18 UNK        -0.1800 
    102 C         -6.8331  -19.1344  -51.4297 C.2       18 UNK         0.5000 
    103 O         -7.5874  -18.2234  -51.7709 O.2       18 UNK        -0.5000 
    104 N         -6.4562  -20.1326  -52.2405 N.am      19 UNK        -0.5000 
    105 CA        -6.7984  -20.2280  -53.6607 C.3       19 UNK         0.1400 
    106 CB        -6.6136  -21.6848  -54.1153 C.3       19 UNK        -0.1800 
    107 C         -5.9598  -19.2886  -54.5506 C.2       19 UNK         0.5000 
    108 O         -6.3107  -19.1018  -55.7164 O.2       19 UNK        -0.5000 
    109 N         -4.8632  -18.7443  -53.9993 N.am      20 UNK        -0.5000 
    110 CA        -3.8391  -17.9292  -54.6584 C.3       20 UNK         0.1400 
    111 CB        -4.4116  -16.5648  -55.0913 C.3       20 UNK        -0.1800 
    112 C         -3.1448  -18.6911  -55.8057 C.2       20 UNK         0.5000 
    113 O         -2.8842  -18.1227  -56.8686 O.2       20 UNK        -0.5000 
    114 N         -2.8473  -19.9761  -55.5598 N.am      21 UNK        -0.5000 
    115 CA        -2.2737  -20.9221  -56.5237 C.3       21 UNK         0.1400 
    116 CB        -2.2411  -22.3174  -55.8803 C.3       21 UNK        -0.1800 
    117 C         -0.8709  -20.5287  -57.0277 C.2       21 UNK         0.5000 
    118 O         -0.4663  -20.9521  -58.1110 O.2       21 UNK        -0.5000 
    119 N         -0.1713  -19.7162  -56.2310 N.am      22 UNK        -0.5000 
    120 CA         1.1469  -19.1398  -56.5244 C.3       22 UNK         0.1400 
    121 C          1.0916  -17.8668  -57.4205 C.2       22 UNK         0.5000 
    122 N         -0.0763  -17.3343  -57.7657 N.am      22 UNK        -0.7600 
    123 O          2.1333  -17.3543  -57.8207 O.2       22 UNK        -0.5000 
    124 C124        1.9434  -18.8751  -55.2197 C.3       23 UNK        -0.0398 
    125 S125        2.1080  -20.3810  -54.1987 S.3       23 UNK        -0.2404 
    126 C126        0.7922  -20.1318  -52.9645 C.3       23 UNK        -0.0205 
    127 H127       -3.5355  -12.1393  -51.4196 H         1 UNK         0.0600 
    128 H128       -5.2896  -12.0084  -51.4587 H         1 UNK         0.0600 
    129 H129       -4.4907  -12.4652  -49.9594 H         1 UNK         0.0600 
    130 H130       -3.7805  -15.9055  -51.2473 H         1 UNK         0.3000 
    131 H131       -2.1958  -13.6331  -50.2158 H         1 UNK         0.0600 
    132 H132       -1.6054  -16.6122  -50.4651 H         1 UNK         0.0800 
    133 H133       -0.9622  -15.3273  -51.4301 H         1 UNK         0.0800 
    134 H134        2.4071  -15.4786  -49.8386 H         1 UNK         0.0800 
    135 H135        1.4284  -15.3934  -51.2749 H         1 UNK         0.0800 
    136 H136        0.6274  -17.4605  -52.3445 H         1 UNK         0.1150 
    137 H137        2.1343  -21.1939  -50.8863 H         1 UNK         0.1150 
    138 H138        2.6438  -17.6241  -48.5651 H         1 UNK         0.1150 
    139 H139        3.2138  -19.7299  -47.5790 H         1 UNK         0.0800 
    140 H140        4.2086  -20.4532  -48.8155 H         1 UNK         0.0800 
    141 H141        0.2300  -21.4072  -48.8950 H         1 UNK         0.0800 
    142 H142        0.6286  -20.4694  -47.4705 H         1 UNK         0.0800 
    143 H143        0.0803  -23.4703  -47.4314 H         1 UNK         0.0600 
    144 H144        1.0374  -21.7609  -45.3694 H         1 UNK         0.3000 
    145 H145       -0.1599  -23.7553  -42.6212 H         1 UNK         0.0600 
    146 H146        2.2395  -23.5091  -42.0404 H         1 UNK         0.0600 
    147 H147        2.0333  -24.6821  -43.3330 H         1 UNK         0.0600 
    148 H148        2.6248  -23.0682  -43.7013 H         1 UNK         0.0600 
    149 H149        1.2026  -21.2519  -42.6793 H         1 UNK         0.3000 
    150 H150       -1.7423  -19.1827  -42.7831 H         1 UNK         0.0600 
    151 H151        0.3348  -19.7882  -40.6136 H         1 UNK         0.0600 
    152 H152       -1.4088  -19.7296  -40.4065 H         1 UNK         0.0600 
    153 H153       -0.5205  -18.2597  -40.7830 H         1 UNK         0.0600 
    154 H154        1.0056  -18.4795  -42.7299 H         1 UNK         0.3000 
    155 H155        1.6103  -18.5993  -46.2518 H         1 UNK         0.0600 
    156 H156        1.3000  -16.2215  -44.3522 H         1 UNK         0.0600 
    157 H157        0.5770  -16.4038  -45.9470 H         1 UNK         0.0600 
    158 H158        2.3168  -16.2515  -45.7930 H         1 UNK         0.0600 
    159 H159        3.2151  -17.8550  -43.9898 H         1 UNK         0.3000 
    160 H160        4.5997  -21.1102  -43.4103 H         1 UNK         0.0600 
    161 H161        5.7325  -18.4791  -44.5109 H         1 UNK         0.0600 
    162 H162        5.8651  -20.0515  -45.2895 H         1 UNK         0.0600 
    163 H163        6.6566  -19.7720  -43.7465 H         1 UNK         0.0600 
    164 H164        4.9817  -18.5609  -42.1469 H         1 UNK         0.3000 
    165 H165        2.4432  -18.8957  -39.6766 H         1 UNK         0.0600 
    166 H166        4.3625  -18.6556  -38.1370 H         1 UNK         0.0600 
    167 H167        5.4897  -19.1080  -39.4165 H         1 UNK         0.0600 
    168 H168        4.3322  -20.2812  -38.8000 H         1 UNK         0.0600 
    169 H169        4.4022  -16.9064  -39.9380 H         1 UNK         0.3000 
    170 H170        3.3843  -14.7309  -40.4085 H         1 UNK         0.0600 
    171 H171        5.3341  -15.4801  -41.8161 H         1 UNK         0.0600 
    172 H172        4.3304  -15.4257  -43.2619 H         1 UNK         0.0600 
    173 H173        4.7230  -13.9416  -42.3979 H         1 UNK         0.0600 
    174 H174        1.4833  -15.1111  -42.5641 H         1 UNK         0.3000 
    175 H175       -0.1440  -12.1803  -41.9425 H         1 UNK         0.0600 
    176 H176        1.4789  -12.3055  -44.5415 H         1 UNK         0.0600 
    177 H177       -0.0142  -11.3989  -44.3000 H         1 UNK         0.0600 
    178 H178        1.4398  -10.9445  -43.4256 H         1 UNK         0.0600 
    179 H179       -0.3063  -13.9468  -44.2175 H         1 UNK         0.3000 
    180 H180       -1.2600  -16.3025  -43.8355 H         1 UNK         0.0600 
    181 H181       -3.6903  -15.9117  -42.0140 H         1 UNK         0.0600 
    182 H182       -2.3542  -17.0059  -41.6939 H         1 UNK         0.0600 
    183 H183       -3.3923  -17.2825  -43.0831 H         1 UNK         0.0600 
    184 H184       -3.7779  -14.9253  -44.1960 H         1 UNK         0.3000 
    185 H185       -4.3249  -14.3417  -46.3603 H         1 UNK         0.0600 
    186 H186       -3.9506  -12.2961  -44.9796 H         1 UNK         0.0600 
    187 H187       -2.6754  -11.7660  -46.0687 H         1 UNK         0.0600 
    188 H188       -4.3441  -11.8558  -46.6334 H         1 UNK         0.0600 
    189 H189       -2.4264  -13.0031  -48.1499 H         1 UNK         0.3000 
    190 H190       -1.5906  -20.9285  -45.5610 H         1 UNK         0.3000 
    191 H191       -3.9812  -20.9380  -47.1569 H         1 UNK         0.0600 
    192 H192       -4.9362  -19.6433  -45.2739 H         1 UNK         0.0600 
    193 H193       -3.3561  -19.0183  -45.7181 H         1 UNK         0.0600 
    194 H194       -3.5387  -20.0115  -44.2736 H         1 UNK         0.0600 
    195 H195       -2.9798  -22.7204  -44.2116 H         1 UNK         0.3000 
    196 H196       -5.3992  -24.1839  -43.8437 H         1 UNK         0.0600 
    197 H197       -2.5211  -24.9274  -43.0929 H         1 UNK         0.0600 
    198 H198       -3.6351  -23.9895  -42.1021 H         1 UNK         0.0600 
    199 H199       -3.9772  -25.6774  -42.4534 H         1 UNK         0.0600 
    200 H200       -2.5268  -24.7955  -45.8612 H         1 UNK         0.3000 
    201 H201       -3.4683  -27.2993  -46.9767 H         1 UNK         0.0600 
    202 H202       -1.3139  -25.3519  -47.9575 H         1 UNK         0.0600 
    203 H203       -1.5129  -27.0215  -48.4691 H         1 UNK         0.0600 
    204 H204       -1.0465  -26.6658  -46.8134 H         1 UNK         0.0600 
    205 H205       -4.5318  -24.1540  -47.4305 H         1 UNK         0.3000 
    206 H206       -5.9382  -23.1050  -48.7075 H         1 UNK         0.0600 
    207 H207       -7.2511  -25.2284  -48.8013 H         1 UNK         0.0600 
    208 H208       -7.4573  -24.2519  -50.2458 H         1 UNK         0.0600 
    209 H209       -6.4257  -25.6712  -50.2965 H         1 UNK         0.0600 
    210 H210       -3.0212  -24.0219  -49.8601 H         1 UNK         0.3000 
    211 H211       -3.1296  -23.3510  -52.6428 H         1 UNK         0.0600 
    212 H212       -0.6461  -23.3225  -52.4429 H         1 UNK         0.0600 
    213 H213       -1.3160  -24.7328  -51.6406 H         1 UNK         0.0600 
    214 H214       -0.7641  -23.3576  -50.6859 H         1 UNK         0.0600 
    215 H215       -2.3474  -21.4684  -49.7113 H         1 UNK         0.3000 
    216 H216       -1.7899  -18.9980  -51.1520 H         1 UNK         0.0600 
    217 H217       -2.2609  -19.6043  -48.1963 H         1 UNK         0.0600 
    218 H218       -1.9371  -18.0021  -48.7844 H         1 UNK         0.0600 
    219 H219       -0.7297  -19.2451  -49.0032 H         1 UNK         0.0600 
    220 H220       -4.6163  -20.4132  -49.5268 H         1 UNK         0.3000 
    221 H221       -6.3006  -18.1217  -49.6179 H         1 UNK         0.0600 
    222 H222       -6.6440  -20.0587  -48.0686 H         1 UNK         0.0600 
    223 H223       -7.0515  -21.0903  -49.4410 H         1 UNK         0.0600 
    224 H224       -8.0849  -19.7336  -49.0198 H         1 UNK         0.0600 
    225 H225       -5.8984  -20.8944  -51.8634 H         1 UNK         0.3000 
    226 H226       -7.8486  -19.9582  -53.7894 H         1 UNK         0.0600 
    227 H227       -5.5754  -22.0059  -54.0174 H         1 UNK         0.0600 
    228 H228       -7.2308  -22.3634  -53.5263 H         1 UNK         0.0600 
    229 H229       -6.8993  -21.8103  -55.1604 H         1 UNK         0.0600 
    230 H230       -4.6825  -18.9528  -53.0267 H         1 UNK         0.3000 
    231 H231       -3.0706  -17.7404  -53.9075 H         1 UNK         0.0600 
    232 H232       -5.1447  -16.6659  -55.8919 H         1 UNK         0.0600 
    233 H233       -3.6208  -15.9067  -55.4528 H         1 UNK         0.0600 
    234 H234       -4.8957  -16.0607  -54.2554 H         1 UNK         0.0600 
    235 H235       -3.0329  -20.3424  -54.6296 H         1 UNK         0.3000 
    236 H236       -2.9365  -20.9554  -57.3906 H         1 UNK         0.0600 
    237 H237       -3.2374  -22.6329  -55.5695 H         1 UNK         0.0600 
    238 H238       -1.8673  -23.0639  -56.5822 H         1 UNK         0.0600 
    239 H239       -1.5940  -22.3385  -55.0023 H         1 UNK         0.0600 
    240 H240       -0.6050  -19.4224  -55.3707 H         1 UNK         0.3000 
    241 H241        1.7092  -19.8772  -57.1005 H         1 UNK         0.0600 
    242 H242       -0.0883  -16.5142  -58.3512 H         1 UNK         0.3800 
    243 H243       -0.9543  -17.7382  -57.4589 H         1 UNK         0.3800 
    244 H244        1.4799  -18.0792  -54.6352 H         1 UNK         0.0800 
    245 H245        2.9509  -18.5281  -55.4552 H         1 UNK         0.0800 
    246 H246       -0.0547  -19.5981  -53.3963 H         1 UNK         0.0800 
    247 H247        0.4076  -21.1080  -52.6681 H         1 UNK         0.0800 
@<TRIPOS>BOND
     1    1    2 1    
     2    1  127 1    
     3    1  128 1    
     4    1  129 1    
     5    2    3 2    
     6    2    4 am   BACKBONE|DICT|INTERRES
     7    4    5 1    
     8    4  130 1    
     9    5    6 1    
    10    5   65 1    
    11    5  131 1    
    12    6    7 1    
    13    6  132 1    
    14    6  133 1    
    15    7    8 1    
    16    8    9 1    
    17    8  134 1    
    18    8  135 1    
    19    9   10 ar   
    20    9   14 ar   
    21   10   11 ar   
    22   10  136 1    
    23   11   12 ar   
    24   11  126 1    
    25   12   13 ar   
    26   12  137 1    
    27   13   14 ar   
    28   13   15 1    
    29   14  138 1    
    30   15   16 1    
    31   15  139 1    
    32   15  140 1    
    33   16   17 1    
    34   17   18 1    
    35   17  141 1    
    36   17  142 1    
    37   18   19 1    
    38   18   67 1    
    39   18  143 1    
    40   19   20 am   BACKBONE|DICT|INTERRES
    41   19  144 1    
    42   20   21 2    
    43   20   22 1    
    44   22   23 1    
    45   22   24 1    
    46   22  145 1    
    47   23  146 1    
    48   23  147 1    
    49   23  148 1    
    50   24   25 am   BACKBONE|DICT|INTERRES
    51   24  149 1    
    52   25   26 2    
    53   25   27 1    
    54   27   28 1    
    55   27   29 1    
    56   27  150 1    
    57   28  151 1    
    58   28  152 1    
    59   28  153 1    
    60   29   30 am   BACKBONE|DICT|INTERRES
    61   29  154 1    
    62   30   31 2    
    63   30   32 1    
    64   32   33 1    
    65   32   34 1    
    66   32  155 1    
    67   33  156 1    
    68   33  157 1    
    69   33  158 1    
    70   34   35 am   BACKBONE|DICT|INTERRES
    71   34  159 1    
    72   35   36 2    
    73   35   37 1    
    74   37   38 1    
    75   37   39 1    
    76   37  160 1    
    77   38  161 1    
    78   38  162 1    
    79   38  163 1    
    80   39   40 am   BACKBONE|DICT|INTERRES
    81   39  164 1    
    82   40   41 2    
    83   40   42 1    
    84   42   43 1    
    85   42   44 1    
    86   42  165 1    
    87   43  166 1    
    88   43  167 1    
    89   43  168 1    
    90   44   45 am   BACKBONE|DICT|INTERRES
    91   44  169 1    
    92   45   46 2    
    93   45   47 1    
    94   47   48 1    
    95   47   49 1    
    96   47  170 1    
    97   48  171 1    
    98   48  172 1    
    99   48  173 1    
   100   49   50 am   BACKBONE|DICT|INTERRES
   101   49  174 1    
   102   50   51 2    
   103   50   52 1    
   104   52   53 1    
   105   52   54 1    
   106   52  175 1    
   107   53  176 1    
   108   53  177 1    
   109   53  178 1    
   110   54   55 am   BACKBONE|DICT|INTERRES
   111   54  179 1    
   112   55   56 2    
   113   55   57 1    
   114   57   58 1    
   115   57   59 1    
   116   57  180 1    
   117   58  181 1    
   118   58  182 1    
   119   58  183 1    
   120   59   60 am   BACKBONE|DICT|INTERRES
   121   59  184 1    
   122   60   61 2    
   123   60   62 1    
   124   62   63 1    
   125   62   64 1    
   126   62  185 1    
   127   63  186 1    
   128   63  187 1    
   129   63  188 1    
   130   64   65 am   BACKBONE|DICT|INTERRES
   131   64  189 1    
   132   65   66 2    
   133   67   68 2    
   134   67   69 am   BACKBONE|DICT|INTERRES
   135   69   70 1    
   136   69  190 1    
   137   70   71 1    
   138   70   72 1    
   139   70  191 1    
   140   71  192 1    
   141   71  193 1    
   142   71  194 1    
   143   72   73 2    
   144   72   74 am   BACKBONE|DICT|INTERRES
   145   74   75 1    
   146   74  195 1    
   147   75   76 1    
   148   75   77 1    
   149   75  196 1    
   150   76  197 1    
   151   76  198 1    
   152   76  199 1    
   153   77   78 2    
   154   77   79 am   BACKBONE|DICT|INTERRES
   155   79   80 1    
   156   79  200 1    
   157   80   81 1    
   158   80   82 1    
   159   80  201 1    
   160   81  202 1    
   161   81  203 1    
   162   81  204 1    
   163   82   83 2    
   164   82   84 am   BACKBONE|DICT|INTERRES
   165   84   85 1    
   166   84  205 1    
   167   85   86 1    
   168   85   87 1    
   169   85  206 1    
   170   86  207 1    
   171   86  208 1    
   172   86  209 1    
   173   87   88 2    
   174   87   89 am   BACKBONE|DICT|INTERRES
   175   89   90 1    
   176   89  210 1    
   177   90   91 1    
   178   90   92 1    
   179   90  211 1    
   180   91  212 1    
   181   91  213 1    
   182   91  214 1    
   183   92   93 2    
   184   92   94 am   BACKBONE|DICT|INTERRES
   185   94   95 1    
   186   94  215 1    
   187   95   96 1    
   188   95   97 1    
   189   95  216 1    
   190   96  217 1    
   191   96  218 1    
   192   96  219 1    
   193   97   98 2    
   194   97   99 am   BACKBONE|DICT|INTERRES
   195   99  100 1    
   196   99  220 1    
   197  100  101 1    
   198  100  102 1    
   199  100  221 1    
   200  101  222 1    
   201  101  223 1    
   202  101  224 1    
   203  102  103 2    
   204  102  104 am   BACKBONE|DICT|INTERRES
   205  104  105 1    
   206  104  225 1    
   207  105  106 1    
   208  105  107 1    
   209  105  226 1    
   210  106  227 1    
   211  106  228 1    
   212  106  229 1    
   213  107  108 2    
   214  107  109 am   BACKBONE|DICT|INTERRES
   215  109  110 1    
   216  109  230 1    
   217  110  111 1    
   218  110  112 1    
   219  110  231 1    
   220  111  232 1    
   221  111  233 1    
   222  111  234 1    
   223  112  113 2    
   224  112  114 am   BACKBONE|DICT|INTERRES
   225  114  115 1    
   226  114  235 1    
   227  115  116 1    
   228  115  117 1    
   229  115  236 1    
   230  116  237 1    
   231  116  238 1    
   232  116  239 1    
   233  117  118 2    
   234  117  119 am   BACKBONE|DICT|INTERRES
   235  119  120 1    
   236  119  240 1    
   237  120  121 1    
   238  120  124 1    
   239  120  241 1    
   240  121  122 am   BACKBONE|DICT|INTERRES
   241  121  123 2    
   242  122  242 1    
   243  122  243 1    
   244  124  125 1    
   245  124  244 1    
   246  124  245 1    
   247  125  126 1    
   248  126  246 1    
   249  126  247 1    
@<TRIPOS>SUBSTRUCTURE
     1 UNK         1 GROUP             0       ****    0 ROOT    
