@<TRIPOS>MOLECULE
3R540
247   249    1
SMALL
USER_CHARGES


@<TRIPOS>ATOM
      1 CA          0.6695  -10.0084  -51.6093 C.3       0 UNK        -0.1800 
      2 C           0.3234  -10.1027  -50.1298 C.2       0 UNK         0.5000 
      3 O          -0.1416   -9.1215  -49.5503 O.2       0 UNK        -0.5000 
      4 N           0.5486  -11.2790  -49.5285 N.am      1 UNK        -0.5000 
      5 CA          0.3011  -11.6059  -48.1189 C.3       1 UNK         0.1400 
      6 C6         -1.2026  -11.6482  -47.7326 C.3       23 UNK        -0.0398 
      7 S7         -2.0554  -13.0834  -48.4680 S.3       23 UNK        -0.2404 
      8 C8         -1.5114  -14.3749  -47.3048 C.3       23 UNK        -0.0205 
      9 C9         -2.1238  -15.7335  -47.5976 C.ar      23 UNK        -0.0193 
     10 C10        -1.7721  -16.4355  -48.7544 C.ar      23 UNK        -0.1150 
     11 C11        -2.3125  -17.7028  -49.0157 C.ar      23 UNK        -0.0193 
     12 C12        -3.1731  -18.2762  -48.0753 C.ar      23 UNK        -0.1150 
     13 C13        -3.5065  -17.5971  -46.9007 C.ar      23 UNK        -0.0193 
     14 C14        -2.9979  -16.3162  -46.6785 C.ar      23 UNK        -0.1150 
     15 C15        -4.3895  -18.2592  -45.8549 C.3       23 UNK        -0.0205 
     16 S16        -3.4953  -18.5829  -44.2969 S.3       23 UNK        -0.2404 
     17 C17        -2.0070  -19.4962  -44.8463 C.3       23 UNK        -0.0398 
     18 CA         -2.2853  -20.8836  -45.4743 C.3       11 UNK         0.1400 
     19 N          -1.0700  -21.4708  -46.0508 N.am      11 UNK        -0.5000 
     20 C          -1.0192  -22.6156  -46.7473 C.2       10 UNK         0.5000 
     21 O          -2.0077  -23.2919  -47.0224 O.2       10 UNK        -0.5000 
     22 CA          0.3670  -23.1249  -47.1633 C.3       10 UNK         0.1400 
     23 CB          0.8487  -22.4218  -48.4413 C.3       10 UNK        -0.1800 
     24 N           1.3321  -22.9519  -46.0784 N.am      10 UNK        -0.5000 
     25 C           1.3666  -23.7272  -44.9834 C.2       9 UNK         0.5000 
     26 O           0.6451  -24.7112  -44.8232 O.2       9 UNK        -0.5000 
     27 CA          2.3466  -23.3232  -43.8651 C.3       9 UNK         0.1400 
     28 CB          3.7227  -23.9641  -44.0978 C.3       9 UNK        -0.1800 
     29 N           2.5061  -21.8742  -43.7364 N.am      9 UNK        -0.5000 
     30 C           1.5422  -21.0319  -43.3386 C.2       8 UNK         0.5000 
     31 O           0.4160  -21.3927  -42.9979 O.2       8 UNK        -0.5000 
     32 CA          1.8760  -19.5280  -43.3905 C.3       8 UNK         0.1400 
     33 CB          2.5337  -19.0750  -42.0791 C.3       8 UNK        -0.1800 
     34 N           2.7367  -19.1543  -44.5168 N.am      8 UNK        -0.5000 
     35 C           2.4560  -19.3706  -45.8085 C.2       7 UNK         0.5000 
     36 O           1.4370  -19.9475  -46.1935 O.2       7 UNK        -0.5000 
     37 CA          3.4845  -18.8428  -46.8273 C.3       7 UNK         0.1400 
     38 CB          3.3441  -19.5161  -48.2038 C.3       7 UNK        -0.1800 
     39 N           3.3288  -17.4021  -46.9920 N.am      7 UNK        -0.5000 
     40 C           3.7403  -16.4719  -46.1217 C.2       6 UNK         0.5000 
     41 O           4.4303  -16.7216  -45.1311 O.2       6 UNK        -0.5000 
     42 CA          3.2680  -15.0234  -46.3709 C.3       6 UNK         0.1400 
     43 CB          2.7543  -14.7712  -47.8049 C.3       6 UNK        -0.1800 
     44 N           2.2758  -14.5910  -45.3781 N.am      6 UNK        -0.5000 
     45 C           1.1597  -15.2431  -45.0120 C.2       5 UNK         0.5000 
     46 O           0.7504  -16.2652  -45.5604 O.2       5 UNK        -0.5000 
     47 CA          0.3516  -14.6727  -43.8392 C.3       5 UNK         0.1400 
     48 CB          0.9536  -15.1197  -42.4966 C.3       5 UNK        -0.1800 
     49 N           0.2350  -13.2124  -43.8690 N.am      5 UNK        -0.5000 
     50 C          -0.8635  -12.5517  -43.4691 C.2       4 UNK         0.5000 
     51 O          -1.9021  -13.1189  -43.1254 O.2       4 UNK        -0.5000 
     52 CA         -0.8138  -11.0067  -43.4517 C.3       4 UNK         0.1400 
     53 CB         -1.7379  -10.3892  -42.3805 C.3       4 UNK        -0.1800 
     54 N           0.5413  -10.4579  -43.3529 N.am      4 UNK        -0.5000 
     55 C           1.4168  -10.5958  -42.3433 C.2       3 UNK         0.5000 
     56 O           1.1538  -11.1677  -41.2846 O.2       3 UNK        -0.5000 
     57 CA          2.8324  -10.0081  -42.5663 C.3       3 UNK         0.1400 
     58 CB          3.9243  -10.8178  -41.8355 C.3       3 UNK        -0.1800 
     59 N           3.1868   -9.8302  -43.9833 N.am      3 UNK        -0.5000 
     60 C           3.2292  -10.7883  -44.9189 C.2       2 UNK         0.5000 
     61 O           3.0119  -11.9817  -44.6914 O.2       2 UNK        -0.5000 
     62 CA          3.4777  -10.3259  -46.3677 C.3       2 UNK         0.1400 
     63 CB          4.8796  -10.7463  -46.8325 C.3       2 UNK        -0.1800 
     64 N           2.4816  -10.8852  -47.2850 N.am      2 UNK        -0.5000 
     65 C           1.1531  -10.7442  -47.1644 C.2       1 UNK         0.5000 
     66 O           0.6171  -10.0025  -46.3380 O.2       1 UNK        -0.5000 
     67 C          -2.9815  -21.8498  -44.4909 C.2       11 UNK         0.5000 
     68 O          -4.1851  -22.0807  -44.6173 O.2       11 UNK        -0.5000 
     69 N          -2.1979  -22.4648  -43.5929 N.am      12 UNK        -0.5000 
     70 CA         -2.6415  -23.5003  -42.6540 C.3       12 UNK         0.1400 
     71 CB         -1.4829  -23.8391  -41.7041 C.3       12 UNK        -0.1800 
     72 C          -3.1687  -24.7809  -43.3360 C.2       12 UNK         0.5000 
     73 O          -3.9780  -25.4940  -42.7425 O.2       12 UNK        -0.5000 
     74 N          -2.7242  -25.0315  -44.5732 N.am      13 UNK        -0.5000 
     75 CA         -3.1546  -26.1291  -45.4362 C.3       13 UNK         0.1400 
     76 CB         -1.9161  -26.6983  -46.1504 C.3       13 UNK        -0.1800 
     77 C          -4.2443  -25.6937  -46.4404 C.2       13 UNK         0.5000 
     78 O          -4.4563  -26.3950  -47.4294 O.2       13 UNK        -0.5000 
     79 N          -4.9077  -24.5524  -46.1929 N.am      14 UNK        -0.5000 
     80 CA         -5.9792  -23.9562  -47.0001 C.3       14 UNK         0.1400 
     81 CB         -7.2335  -24.8554  -47.0024 C.3       14 UNK        -0.1800 
     82 C          -5.5003  -23.5830  -48.4168 C.2       14 UNK         0.5000 
     83 O          -6.0523  -24.0570  -49.4116 O.2       14 UNK        -0.5000 
     84 N          -4.4376  -22.7676  -48.4665 N.am      15 UNK        -0.5000 
     85 CA         -3.7067  -22.3372  -49.6645 C.3       15 UNK         0.1400 
     86 CB         -4.5916  -21.4461  -50.5602 C.3       15 UNK        -0.1800 
     87 C          -3.0747  -23.5302  -50.4109 C.2       15 UNK         0.5000 
     88 O          -3.1244  -23.5931  -51.6402 O.2       15 UNK        -0.5000 
     89 N          -2.5202  -24.4706  -49.6301 N.am      16 UNK        -0.5000 
     90 CA         -1.9629  -25.7602  -50.0499 C.3       16 UNK         0.1400 
     91 CB         -0.6507  -25.5476  -50.8335 C.3       16 UNK        -0.1800 
     92 C          -2.9986  -26.6115  -50.8142 C.2       16 UNK         0.5000 
     93 O          -2.7317  -27.0561  -51.9296 O.2       16 UNK        -0.5000 
     94 N          -4.1876  -26.7710  -50.2148 N.am      17 UNK        -0.5000 
     95 CA         -5.3924  -27.3842  -50.7863 C.3       17 UNK         0.1400 
     96 CB         -5.2014  -28.9051  -50.9606 C.3       17 UNK        -0.1800 
     97 C          -5.8534  -26.6740  -52.0787 C.2       17 UNK         0.5000 
     98 O          -6.1876  -27.3292  -53.0676 O.2       17 UNK        -0.5000 
     99 N          -5.8302  -25.3342  -52.0380 N.am      18 UNK        -0.5000 
    100 CA        -6.1339  -24.3909  -53.1187 C.3       18 UNK         0.1400 
    101 CB        -7.6274  -24.4644  -53.4986 C.3       18 UNK        -0.1800 
    102 C         -5.1989  -24.4886  -54.3466 C.2       18 UNK         0.5000 
    103 O         -5.5801  -24.0456  -55.4319 O.2       18 UNK        -0.5000 
    104 N         -3.9927  -25.0478  -54.1717 N.am      19 UNK        -0.5000 
    105 CA        -2.9703  -25.1289  -55.2157 C.3       19 UNK         0.1400 
    106 CB        -1.9946  -26.2724  -54.9043 C.3       19 UNK        -0.1800 
    107 C         -2.2022  -23.8072  -55.3906 C.2       19 UNK         0.5000 
    108 O         -1.7507  -23.5207  -56.5009 O.2       19 UNK        -0.5000 
    109 N         -2.0566  -23.0274  -54.3093 N.am      20 UNK        -0.5000 
    110 CA        -1.4313  -21.7066  -54.3382 C.3       20 UNK         0.1400 
    111 CB        -1.0259  -21.2997  -52.9129 C.3       20 UNK        -0.1800 
    112 C         -2.3881  -20.6701  -54.9524 C.2       20 UNK         0.5000 
    113 O         -3.5922  -20.7166  -54.6878 O.2       20 UNK        -0.5000 
    114 N         -1.8339  -19.7303  -55.7309 N.am      21 UNK        -0.5000 
    115 CA        -2.5738  -18.6797  -56.4438 C.3       21 UNK         0.1400 
    116 CB        -1.5972  -17.8956  -57.3337 C.3       21 UNK        -0.1800 
    117 C         -3.3540  -17.7198  -55.5226 C.2       21 UNK         0.5000 
    118 O         -4.3727  -17.1668  -55.9390 O.2       21 UNK        -0.5000 
    119 N         -2.8727  -17.5654  -54.2849 N.am      22 UNK        -0.5000 
    120 CA        -3.5495  -16.8753  -53.1791 C.3       22 UNK         0.1400 
    121 C         -4.7473  -17.6520  -52.5521 C.2       22 UNK         0.5000 
    122 N         -5.0168  -18.8993  -52.9194 N.am      22 UNK        -0.7600 
    123 O         -5.4663  -17.0994  -51.7247 O.2       22 UNK        -0.5000 
    124 C124       -2.5403  -16.3838  -52.1052 C.3       23 UNK        -0.0398 
    125 S125       -1.2315  -17.5857  -51.6568 S.3       23 UNK        -0.2404 
    126 C126       -1.9848  -18.5087  -50.2737 C.3       23 UNK        -0.0205 
    127 H127        1.4170   -9.2316  -51.7708 H         1 UNK         0.0600 
    128 H128       -0.2191   -9.7532  -52.1867 H         1 UNK         0.0600 
    129 H129        1.0667  -10.9477  -51.9948 H         1 UNK         0.0600 
    130 H130        0.9252  -12.0353  -50.0824 H         1 UNK         0.3000 
    131 H131        0.6872  -12.6139  -47.9861 H         1 UNK         0.0600 
    132 H132       -1.7116  -10.7341  -48.0404 H         1 UNK         0.0800 
    133 H133       -1.3324  -11.7098  -46.6514 H         1 UNK         0.0800 
    134 H134       -1.7456  -14.0646  -46.2852 H         1 UNK         0.0800 
    135 H135       -0.4289  -14.4754  -47.3565 H         1 UNK         0.0800 
    136 H136       -1.0785  -15.9802  -49.4457 H         1 UNK         0.1150 
    137 H137       -3.5751  -19.2632  -48.2545 H         1 UNK         0.1150 
    138 H138       -3.2536  -15.7923  -45.7681 H         1 UNK         0.1150 
    139 H139       -5.2399  -17.6095  -45.6440 H         1 UNK         0.0800 
    140 H140       -4.8090  -19.1938  -46.2301 H         1 UNK         0.0800 
    141 H141       -1.3515  -19.6013  -43.9820 H         1 UNK         0.0800 
    142 H142       -1.4577  -18.8696  -45.5512 H         1 UNK         0.0800 
    143 H143       -2.9698  -20.7384  -46.3108 H         1 UNK         0.0600 
    144 H144       -0.2038  -20.9569  -45.9148 H         1 UNK         0.3000 
    145 H145        0.2816  -24.1908  -47.3854 H         1 UNK         0.0600 
    146 H146        0.8946  -21.3399  -48.3224 H         1 UNK         0.0600 
    147 H147        1.8383  -22.7711  -48.7358 H         1 UNK         0.0600 
    148 H148        0.1718  -22.6249  -49.2722 H         1 UNK         0.0600 
    149 H149        1.8972  -22.1144  -46.1056 H         1 UNK         0.3000 
    150 H150        1.9469  -23.7035  -42.9226 H         1 UNK         0.0600 
    151 H151        3.6395  -25.0490  -44.1756 H         1 UNK         0.0600 
    152 H152        4.4022  -23.7502  -43.2725 H         1 UNK         0.0600 
    153 H153        4.1856  -23.6035  -45.0172 H         1 UNK         0.0600 
    154 H154        3.4004  -21.4880  -44.0005 H         1 UNK         0.3000 
    155 H155        0.9375  -18.9830  -43.5066 H         1 UNK         0.0600 
    156 H156        1.8925  -19.2954  -41.2245 H         1 UNK         0.0600 
    157 H157        2.7173  -18.0006  -42.0787 H         1 UNK         0.0600 
    158 H158        3.4877  -19.5770  -41.9129 H         1 UNK         0.0600 
    159 H159        3.5620  -18.6097  -44.2989 H         1 UNK         0.3000 
    160 H160        4.4851  -19.0588  -46.4469 H         1 UNK         0.0600 
    161 H161        4.1162  -19.1700  -48.8910 H         1 UNK         0.0600 
    162 H162        2.3749  -19.3091  -48.6598 H         1 UNK         0.0600 
    163 H163        3.4456  -20.5988  -48.1211 H         1 UNK         0.0600 
    164 H164        2.7090  -17.1087  -47.7327 H         1 UNK         0.3000 
    165 H165        4.1464  -14.3931  -46.2236 H         1 UNK         0.0600 
    166 H166        1.7906  -15.2458  -47.9917 H         1 UNK         0.0600 
    167 H167        2.6481  -13.7051  -47.9888 H         1 UNK         0.0600 
    168 H168        3.4601  -15.1418  -48.5496 H         1 UNK         0.0600 
    169 H169        2.5370  -13.7421  -44.8828 H         1 UNK         0.3000 
    170 H170       -0.6424  -15.1182  -43.9234 H         1 UNK         0.0600 
    171 H171        1.9465  -14.6959  -42.3410 H         1 UNK         0.0600 
    172 H172        0.3245  -14.8128  -41.6609 H         1 UNK         0.0600 
    173 H173        1.0451  -16.2055  -42.4521 H         1 UNK         0.0600 
    174 H174        1.0568  -12.6865  -44.1419 H         1 UNK         0.3000 
    175 H175       -1.1946  -10.6877  -44.4220 H         1 UNK         0.0600 
    176 H176       -1.4822  -10.7305  -41.3772 H         1 UNK         0.0600 
    177 H177       -1.6808   -9.3008  -42.3902 H         1 UNK         0.0600 
    178 H178       -2.7795  -10.6582  -42.5595 H         1 UNK         0.0600 
    179 H179        0.8621   -9.9928  -44.1946 H         1 UNK         0.3000 
    180 H180        2.8139   -9.0091  -42.1286 H         1 UNK         0.0600 
    181 H181        3.9480  -11.8569  -42.1652 H         1 UNK         0.0600 
    182 H182        3.7551  -10.8219  -40.7581 H         1 UNK         0.0600 
    183 H183        4.9123  -10.3897  -42.0043 H         1 UNK         0.0600 
    184 H184        3.3519   -8.8743  -44.2681 H         1 UNK         0.3000 
    185 H185        3.4039   -9.2377  -46.4166 H         1 UNK         0.0600 
    186 H186        5.0852  -10.3891  -47.8418 H         1 UNK         0.0600 
    187 H187        5.6481  -10.3316  -46.1790 H         1 UNK         0.0600 
    188 H188        4.9964  -11.8310  -46.8292 H         1 UNK         0.0600 
    189 H189        2.8386  -11.4940  -48.0056 H         1 UNK         0.3000 
    190 H190       -1.2206  -22.1898  -43.5270 H         1 UNK         0.3000 
    191 H191       -3.4600  -23.0839  -42.0634 H         1 UNK         0.0600 
    192 H192       -0.6225  -24.2322  -42.2470 H         1 UNK         0.0600 
    193 H193       -1.1556  -22.9585  -41.1511 H         1 UNK         0.0600 
    194 H194       -1.7820  -24.5901  -40.9718 H         1 UNK         0.0600 
    195 H195       -2.0754  -24.3777  -44.9908 H         1 UNK         0.3000 
    196 H196       -3.5865  -26.9285  -44.8313 H         1 UNK         0.0600 
    197 H197       -1.1736  -27.0421  -45.4300 H         1 UNK         0.0600 
    198 H198       -1.4386  -25.9510  -46.7831 H         1 UNK         0.0600 
    199 H199       -2.1741  -27.5516  -46.7787 H         1 UNK         0.0600 
    200 H200       -4.6210  -24.0028  -45.3911 H         1 UNK         0.3000 
    201 H201       -6.2494  -23.0199  -46.5094 H         1 UNK         0.0600 
    202 H202       -8.0619  -24.3637  -47.5135 H         1 UNK         0.0600 
    203 H203       -7.5626  -25.0742  -45.9867 H         1 UNK         0.0600 
    204 H204       -7.0573  -25.8044  -47.5095 H         1 UNK         0.0600 
    205 H205       -3.9857  -22.5486  -47.5882 H         1 UNK         0.3000 
    206 H206       -2.8722  -21.7257  -49.3186 H         1 UNK         0.0600 
    207 H207       -4.9330  -20.5631  -50.0205 H         1 UNK         0.0600 
    208 H208       -5.4729  -21.9737  -50.9213 H         1 UNK         0.0600 
    209 H209       -4.0443  -21.0983  -51.4354 H         1 UNK         0.0600 
    210 H210       -2.5250  -24.2940  -48.6303 H         1 UNK         0.3000 
    211 H211       -1.7211  -26.3133  -49.1424 H         1 UNK         0.0600 
    212 H212        0.0752  -24.9919  -50.2405 H         1 UNK         0.0600 
    213 H213       -0.1927  -26.5022  -51.0944 H         1 UNK         0.0600 
    214 H214       -0.8142  -24.9991  -51.7617 H         1 UNK         0.0600 
    215 H215       -4.3008  -26.4105  -49.2691 H         1 UNK         0.3000 
    216 H216       -6.1866  -27.2320  -50.0538 H         1 UNK         0.0600 
    217 H217       -6.1322  -29.3819  -51.2696 H         1 UNK         0.0600 
    218 H218       -4.4495  -29.1364  -51.7156 H         1 UNK         0.0600 
    219 H219       -4.8928  -29.3720  -50.0254 H         1 UNK         0.0600 
    220 H220       -5.5875  -24.9007  -51.1516 H         1 UNK         0.3000 
    221 H221       -5.9552  -23.4003  -52.7014 H         1 UNK         0.0600 
    222 H222       -7.8741  -25.4058  -53.9899 H         1 UNK         0.0600 
    223 H223       -8.2625  -24.3678  -52.6179 H         1 UNK         0.0600 
    224 H224       -7.8994  -23.6585  -54.1811 H         1 UNK         0.0600 
    225 H225       -3.7339  -25.3746  -53.2488 H         1 UNK         0.3000 
    226 H226       -3.4578  -25.3600  -56.1652 H         1 UNK         0.0600 
    227 H227       -2.5219  -27.2161  -54.7630 H         1 UNK         0.0600 
    228 H228       -1.2872  -26.4132  -55.7223 H         1 UNK         0.0600 
    229 H229       -1.4141  -26.0713  -54.0036 H         1 UNK         0.0600 
    230 H230       -2.4953  -23.3037  -53.4344 H         1 UNK         0.3000 
    231 H231       -0.5261  -21.7639  -54.9465 H         1 UNK         0.0600 
    232 H232       -0.4610  -20.3671  -52.9205 H         1 UNK         0.0600 
    233 H233       -0.3959  -22.0582  -52.4478 H         1 UNK         0.0600 
    234 H234       -1.8940  -21.1489  -52.2728 H         1 UNK         0.0600 
    235 H235       -0.8364  -19.7535  -55.8869 H         1 UNK         0.3000 
    236 H236       -3.3040  -19.1724  -57.0892 H         1 UNK         0.0600 
    237 H237       -1.1081  -18.5495  -58.0559 H         1 UNK         0.0600 
    238 H238       -2.1185  -17.1222  -57.8995 H         1 UNK         0.0600 
    239 H239       -0.8220  -17.4045  -56.7441 H         1 UNK         0.0600 
    240 H240       -2.0286  -18.0581  -54.0324 H         1 UNK         0.3000 
    241 H241       -4.0054  -15.9783  -53.6027 H         1 UNK         0.0600 
    242 H242       -4.4547  -19.3926  -53.6068 H         1 UNK         0.3800 
    243 H243       -5.8104  -19.3629  -52.5097 H         1 UNK         0.3800 
    244 H244       -2.0251  -15.5056  -52.4961 H         1 UNK         0.0800 
    245 H245       -3.0527  -16.0291  -51.2098 H         1 UNK         0.0800 
    246 H246       -1.3035  -19.3134  -49.9939 H         1 UNK         0.0800 
    247 H247       -2.8914  -18.9892  -50.6417 H         1 UNK         0.0800 
@<TRIPOS>BOND
     1    1    2 1    
     2    1  127 1    
     3    1  128 1    
     4    1  129 1    
     5    2    3 2    
     6    2    4 am   BACKBONE|DICT|INTERRES
     7    4    5 1    
     8    4  130 1    
     9    5    6 1    
    10    5   65 1    
    11    5  131 1    
    12    6    7 1    
    13    6  132 1    
    14    6  133 1    
    15    7    8 1    
    16    8    9 1    
    17    8  134 1    
    18    8  135 1    
    19    9   10 ar   
    20    9   14 ar   
    21   10   11 ar   
    22   10  136 1    
    23   11   12 ar   
    24   11  126 1    
    25   12   13 ar   
    26   12  137 1    
    27   13   14 ar   
    28   13   15 1    
    29   14  138 1    
    30   15   16 1    
    31   15  139 1    
    32   15  140 1    
    33   16   17 1    
    34   17   18 1    
    35   17  141 1    
    36   17  142 1    
    37   18   19 1    
    38   18   67 1    
    39   18  143 1    
    40   19   20 am   BACKBONE|DICT|INTERRES
    41   19  144 1    
    42   20   21 2    
    43   20   22 1    
    44   22   23 1    
    45   22   24 1    
    46   22  145 1    
    47   23  146 1    
    48   23  147 1    
    49   23  148 1    
    50   24   25 am   BACKBONE|DICT|INTERRES
    51   24  149 1    
    52   25   26 2    
    53   25   27 1    
    54   27   28 1    
    55   27   29 1    
    56   27  150 1    
    57   28  151 1    
    58   28  152 1    
    59   28  153 1    
    60   29   30 am   BACKBONE|DICT|INTERRES
    61   29  154 1    
    62   30   31 2    
    63   30   32 1    
    64   32   33 1    
    65   32   34 1    
    66   32  155 1    
    67   33  156 1    
    68   33  157 1    
    69   33  158 1    
    70   34   35 am   BACKBONE|DICT|INTERRES
    71   34  159 1    
    72   35   36 2    
    73   35   37 1    
    74   37   38 1    
    75   37   39 1    
    76   37  160 1    
    77   38  161 1    
    78   38  162 1    
    79   38  163 1    
    80   39   40 am   BACKBONE|DICT|INTERRES
    81   39  164 1    
    82   40   41 2    
    83   40   42 1    
    84   42   43 1    
    85   42   44 1    
    86   42  165 1    
    87   43  166 1    
    88   43  167 1    
    89   43  168 1    
    90   44   45 am   BACKBONE|DICT|INTERRES
    91   44  169 1    
    92   45   46 2    
    93   45   47 1    
    94   47   48 1    
    95   47   49 1    
    96   47  170 1    
    97   48  171 1    
    98   48  172 1    
    99   48  173 1    
   100   49   50 am   BACKBONE|DICT|INTERRES
   101   49  174 1    
   102   50   51 2    
   103   50   52 1    
   104   52   53 1    
   105   52   54 1    
   106   52  175 1    
   107   53  176 1    
   108   53  177 1    
   109   53  178 1    
   110   54   55 am   BACKBONE|DICT|INTERRES
   111   54  179 1    
   112   55   56 2    
   113   55   57 1    
   114   57   58 1    
   115   57   59 1    
   116   57  180 1    
   117   58  181 1    
   118   58  182 1    
   119   58  183 1    
   120   59   60 am   BACKBONE|DICT|INTERRES
   121   59  184 1    
   122   60   61 2    
   123   60   62 1    
   124   62   63 1    
   125   62   64 1    
   126   62  185 1    
   127   63  186 1    
   128   63  187 1    
   129   63  188 1    
   130   64   65 am   BACKBONE|DICT|INTERRES
   131   64  189 1    
   132   65   66 2    
   133   67   68 2    
   134   67   69 am   BACKBONE|DICT|INTERRES
   135   69   70 1    
   136   69  190 1    
   137   70   71 1    
   138   70   72 1    
   139   70  191 1    
   140   71  192 1    
   141   71  193 1    
   142   71  194 1    
   143   72   73 2    
   144   72   74 am   BACKBONE|DICT|INTERRES
   145   74   75 1    
   146   74  195 1    
   147   75   76 1    
   148   75   77 1    
   149   75  196 1    
   150   76  197 1    
   151   76  198 1    
   152   76  199 1    
   153   77   78 2    
   154   77   79 am   BACKBONE|DICT|INTERRES
   155   79   80 1    
   156   79  200 1    
   157   80   81 1    
   158   80   82 1    
   159   80  201 1    
   160   81  202 1    
   161   81  203 1    
   162   81  204 1    
   163   82   83 2    
   164   82   84 am   BACKBONE|DICT|INTERRES
   165   84   85 1    
   166   84  205 1    
   167   85   86 1    
   168   85   87 1    
   169   85  206 1    
   170   86  207 1    
   171   86  208 1    
   172   86  209 1    
   173   87   88 2    
   174   87   89 am   BACKBONE|DICT|INTERRES
   175   89   90 1    
   176   89  210 1    
   177   90   91 1    
   178   90   92 1    
   179   90  211 1    
   180   91  212 1    
   181   91  213 1    
   182   91  214 1    
   183   92   93 2    
   184   92   94 am   BACKBONE|DICT|INTERRES
   185   94   95 1    
   186   94  215 1    
   187   95   96 1    
   188   95   97 1    
   189   95  216 1    
   190   96  217 1    
   191   96  218 1    
   192   96  219 1    
   193   97   98 2    
   194   97   99 am   BACKBONE|DICT|INTERRES
   195   99  100 1    
   196   99  220 1    
   197  100  101 1    
   198  100  102 1    
   199  100  221 1    
   200  101  222 1    
   201  101  223 1    
   202  101  224 1    
   203  102  103 2    
   204  102  104 am   BACKBONE|DICT|INTERRES
   205  104  105 1    
   206  104  225 1    
   207  105  106 1    
   208  105  107 1    
   209  105  226 1    
   210  106  227 1    
   211  106  228 1    
   212  106  229 1    
   213  107  108 2    
   214  107  109 am   BACKBONE|DICT|INTERRES
   215  109  110 1    
   216  109  230 1    
   217  110  111 1    
   218  110  112 1    
   219  110  231 1    
   220  111  232 1    
   221  111  233 1    
   222  111  234 1    
   223  112  113 2    
   224  112  114 am   BACKBONE|DICT|INTERRES
   225  114  115 1    
   226  114  235 1    
   227  115  116 1    
   228  115  117 1    
   229  115  236 1    
   230  116  237 1    
   231  116  238 1    
   232  116  239 1    
   233  117  118 2    
   234  117  119 am   BACKBONE|DICT|INTERRES
   235  119  120 1    
   236  119  240 1    
   237  120  121 1    
   238  120  124 1    
   239  120  241 1    
   240  121  122 am   BACKBONE|DICT|INTERRES
   241  121  123 2    
   242  122  242 1    
   243  122  243 1    
   244  124  125 1    
   245  124  244 1    
   246  124  245 1    
   247  125  126 1    
   248  126  246 1    
   249  126  247 1    
@<TRIPOS>SUBSTRUCTURE
     1 UNK         1 GROUP             0       ****    0 ROOT    
