@<TRIPOS>MOLECULE
3R540
247   249    1
SMALL
USER_CHARGES


@<TRIPOS>ATOM
      1 CA         -7.6153  -14.9786  -47.9671 C.3       0 UNK        -0.1800 
      2 C          -6.2016  -14.6762  -48.4412 C.2       0 UNK         0.5000 
      3 O          -6.0135  -13.7752  -49.2586 O.2       0 UNK        -0.5000 
      4 N          -5.2115  -15.4250  -47.9403 N.am      1 UNK        -0.5000 
      5 CA         -3.7888  -15.2294  -48.2249 C.3       1 UNK         0.1400 
      6 C6         -2.9289  -16.4011  -47.6920 C.3       23 UNK        -0.0398 
      7 S7         -1.2798  -16.4728  -48.4772 S.3       23 UNK        -0.2404 
      8 C8         -1.2218  -18.2210  -48.9767 C.3       23 UNK        -0.0205 
      9 C9          0.0707  -18.5980  -49.6845 C.ar      23 UNK        -0.0193 
     10 C10         0.0215  -19.1355  -50.9732 C.ar      23 UNK        -0.1150 
     11 C11         1.1870  -19.5514  -51.6189 C.ar      23 UNK        -0.0193 
     12 C12         2.4148  -19.4208  -50.9664 C.ar      23 UNK        -0.1150 
     13 C13         2.4819  -18.8932  -49.6731 C.ar      23 UNK        -0.0193 
     14 C14         1.3058  -18.4768  -49.0385 C.ar      23 UNK        -0.1150 
     15 C15         3.8303  -18.7868  -48.9707 C.3       23 UNK        -0.0205 
     16 S16         3.9064  -19.7203  -47.4059 S.3       23 UNK        -0.2404 
     17 C17         3.2257  -21.3503  -47.8691 C.3       23 UNK        -0.0398 
     18 CA          3.9017  -22.5470  -47.1514 C.3       11 UNK         0.1400 
     19 N           3.8924  -22.4076  -45.6879 N.am      11 UNK        -0.5000 
     20 C           4.6009  -23.1637  -44.8362 C.2       10 UNK         0.5000 
     21 O           5.4114  -24.0186  -45.1946 O.2       10 UNK        -0.5000 
     22 CA          4.3284  -22.9637  -43.3340 C.3       10 UNK         0.1400 
     23 CB          5.2332  -21.8678  -42.7494 C.3       10 UNK        -0.1800 
     24 N           2.9245  -22.6374  -43.0745 N.am      10 UNK        -0.5000 
     25 C           1.9316  -23.5378  -43.0404 C.2       9 UNK         0.5000 
     26 O           2.1067  -24.7489  -43.1750 O.2       9 UNK        -0.5000 
     27 CA          0.4976  -23.0021  -42.8520 C.3       9 UNK         0.1400 
     28 CB          0.1637  -22.8751  -41.3582 C.3       9 UNK        -0.1800 
     29 N           0.2634  -21.7138  -43.5031 N.am      9 UNK        -0.5000 
     30 C           0.3374  -21.4954  -44.8230 C.2       8 UNK         0.5000 
     31 O           0.5610  -22.3749  -45.6538 O.2       8 UNK        -0.5000 
     32 CA          0.1931  -20.0360  -45.2907 C.3       8 UNK         0.1400 
     33 CB         -1.2900  -19.6884  -45.4520 C.3       8 UNK        -0.1800 
     34 N           0.8285  -19.0609  -44.3996 N.am      8 UNK        -0.5000 
     35 C           2.1137  -19.0909  -44.0132 C.2       7 UNK         0.5000 
     36 O           2.9011  -19.9826  -44.3214 O.2       7 UNK        -0.5000 
     37 CA          2.5881  -17.9649  -43.0873 C.3       7 UNK         0.1400 
     38 CB          2.8102  -16.6756  -43.8838 C.3       7 UNK        -0.1800 
     39 N           1.6217  -17.7332  -42.0176 N.am      7 UNK        -0.5000 
     40 C           1.5265  -18.5019  -40.9236 C.2       6 UNK         0.5000 
     41 O           2.3016  -19.4225  -40.6626 O.2       6 UNK        -0.5000 
     42 CA          0.3484  -18.2136  -39.9747 C.3       6 UNK         0.1400 
     43 CB          0.7205  -17.1154  -38.9672 C.3       6 UNK        -0.1800 
     44 N          -0.8739  -17.8259  -40.6802 N.am      6 UNK        -0.5000 
     45 C          -1.5539  -18.6168  -41.5219 C.2       5 UNK         0.5000 
     46 O          -1.2316  -19.7747  -41.7889 O.2       5 UNK        -0.5000 
     47 CA         -2.7838  -17.9946  -42.2083 C.3       5 UNK         0.1400 
     48 CB         -4.0481  -18.2353  -41.3708 C.3       5 UNK        -0.1800 
     49 N          -2.6544  -16.5625  -42.4913 N.am      5 UNK        -0.5000 
     50 C          -1.7270  -16.0102  -43.2858 C.2       4 UNK         0.5000 
     51 O          -0.8165  -16.6523  -43.8175 O.2       4 UNK        -0.5000 
     52 CA         -1.8765  -14.4937  -43.5151 C.3       4 UNK         0.1400 
     53 CB         -1.6107  -13.6886  -42.2257 C.3       4 UNK        -0.1800 
     54 N          -1.0826  -14.0045  -44.6468 N.am      4 UNK        -0.5000 
     55 C           0.2440  -13.8121  -44.7281 C.2       3 UNK         0.5000 
     56 O           1.0170  -13.9176  -43.7761 O.2       3 UNK        -0.5000 
     57 CA          0.8179  -13.4303  -46.1112 C.3       3 UNK         0.1400 
     58 CB          1.6658  -14.5770  -46.6858 C.3       3 UNK        -0.1800 
     59 N          -0.2148  -13.0865  -47.0896 N.am      3 UNK        -0.5000 
     60 C          -0.8628  -11.9146  -47.1444 C.2       2 UNK         0.5000 
     61 O          -0.6068  -10.9565  -46.4148 O.2       2 UNK        -0.5000 
     62 CA         -2.0097  -11.8053  -48.1696 C.3       2 UNK         0.1400 
     63 CB         -1.5199  -11.1212  -49.4548 C.3       2 UNK        -0.1800 
     64 N          -2.6084  -13.0978  -48.5180 N.am      2 UNK        -0.5000 
     65 C          -3.2897  -13.8807  -47.6699 C.2       1 UNK         0.5000 
     66 O          -3.4861  -13.6001  -46.4856 O.2       1 UNK        -0.5000 
     67 C           3.2315  -23.8596  -47.6227 C.2       11 UNK         0.5000 
     68 O           3.4849  -24.2915  -48.7475 O.2       11 UNK        -0.5000 
     69 N           2.3718  -24.4393  -46.7690 N.am      12 UNK        -0.5000 
     70 CA          1.4537  -25.5535  -47.0275 C.3       12 UNK         0.1400 
     71 CB          2.2149  -26.8466  -47.3867 C.3       12 UNK        -0.1800 
     72 C           0.3640  -25.1703  -48.0521 C.2       12 UNK         0.5000 
     73 O          -0.0253  -25.9871  -48.8891 O.2       12 UNK        -0.5000 
     74 N          -0.0975  -23.9180  -47.9623 N.am      13 UNK        -0.5000 
     75 CA         -1.1398  -23.3289  -48.7940 C.3       13 UNK         0.1400 
     76 CB         -0.7720  -21.8588  -49.0427 C.3       13 UNK        -0.1800 
     77 C          -2.5194  -23.4496  -48.1206 C.2       13 UNK         0.5000 
     78 O          -2.6197  -23.8451  -46.9568 O.2       13 UNK        -0.5000 
     79 N          -3.5668  -23.0957  -48.8765 N.am      14 UNK        -0.5000 
     80 CA         -4.9714  -23.1883  -48.4686 C.3       14 UNK         0.1400 
     81 CB         -5.8590  -23.0157  -49.7122 C.3       14 UNK        -0.1800 
     82 C          -5.3911  -22.1752  -47.3862 C.2       14 UNK         0.5000 
     83 O          -6.4088  -22.3963  -46.7295 O.2       14 UNK        -0.5000 
     84 N          -4.6441  -21.0674  -47.2539 N.am      15 UNK        -0.5000 
     85 CA         -4.8346  -19.9269  -46.3408 C.3       15 UNK         0.1400 
     86 CB         -4.8461  -20.3716  -44.8657 C.3       15 UNK        -0.1800 
     87 C          -6.0595  -19.0476  -46.6610 C.2       15 UNK         0.5000 
     88 O          -5.9612  -17.8240  -46.5726 O.2       15 UNK        -0.5000 
     89 N          -7.1701  -19.6745  -47.0641 N.am      16 UNK        -0.5000 
     90 CA         -8.4062  -19.0420  -47.5290 C.3       16 UNK         0.1400 
     91 CB         -9.5396  -20.0767  -47.4473 C.3       16 UNK        -0.1800 
     92 C          -8.3022  -18.4637  -48.9567 C.2       16 UNK         0.5000 
     93 O          -9.2177  -17.7651  -49.3926 O.2       16 UNK        -0.5000 
     94 N          -7.2007  -18.7573  -49.6542 N.am      17 UNK        -0.5000 
     95 CA         -6.8279  -18.2108  -50.9516 C.3       17 UNK         0.1400 
     96 CB         -7.1123  -19.2543  -52.0445 C.3       17 UNK        -0.1800 
     97 C          -5.3368  -17.8517  -50.9044 C.2       17 UNK         0.5000 
     98 O          -4.6040  -18.4081  -50.0816 O.2       17 UNK        -0.5000 
     99 N          -4.9283  -16.9296  -51.7840 N.am      18 UNK        -0.5000 
    100 CA        -3.5524  -16.4586  -51.9371 C.3       18 UNK         0.1400 
    101 CB        -3.5786  -14.9631  -52.3134 C.3       18 UNK        -0.1800 
    102 C         -2.7694  -17.3429  -52.9279 C.2       18 UNK         0.5000 
    103 O         -2.8963  -18.5656  -52.8738 O.2       18 UNK        -0.5000 
    104 N         -1.9713  -16.7244  -53.8120 N.am      19 UNK        -0.5000 
    105 CA        -1.0253  -17.3609  -54.7402 C.3       19 UNK         0.1400 
    106 CB        -0.3974  -16.2792  -55.6313 C.3       19 UNK        -0.1800 
    107 C         -1.6030  -18.4978  -55.6085 C.2       19 UNK         0.5000 
    108 O         -0.8788  -19.4390  -55.9357 O.2       19 UNK        -0.5000 
    109 N         -2.9042  -18.4153  -55.9191 N.am      20 UNK        -0.5000 
    110 CA        -3.6811  -19.4354  -56.6252 C.3       20 UNK         0.1400 
    111 CB        -5.1049  -18.9048  -56.8510 C.3       20 UNK        -0.1800 
    112 C         -3.7275  -20.8025  -55.9110 C.2       20 UNK         0.5000 
    113 O         -3.8696  -21.8234  -56.5857 O.2       20 UNK        -0.5000 
    114 N         -3.5692  -20.8157  -54.5774 N.am      21 UNK        -0.5000 
    115 CA        -3.5263  -22.0254  -53.7501 C.3       21 UNK         0.1400 
    116 CB        -3.4927  -21.6271  -52.2674 C.3       21 UNK        -0.1800 
    117 C         -2.3358  -22.9513  -54.0672 C.2       21 UNK         0.5000 
    118 O         -2.4281  -24.1550  -53.8246 O.2       21 UNK        -0.5000 
    119 N         -1.2550  -22.3784  -54.6100 N.am      22 UNK        -0.5000 
    120 CA        -0.0613  -23.1017  -55.0710 C.3       22 UNK         0.1400 
    121 C         -0.1548  -23.5661  -56.5559 C.2       22 UNK         0.5000 
    122 N         -1.2478  -23.3264  -57.2732 N.am      22 UNK        -0.7600 
    123 O          0.7804  -24.1746  -57.0689 O.2       22 UNK        -0.5000 
    124 C124        1.2339  -22.2917  -54.8059 C.3       23 UNK        -0.0398 
    125 S125        1.4799  -21.9182  -53.0336 S.3       23 UNK        -0.2404 
    126 C126        1.1182  -20.1371  -53.0201 C.3       23 UNK        -0.0205 
    127 H127       -8.0374  -14.1057  -47.4694 H         1 UNK         0.0600 
    128 H128       -7.6403  -15.8126  -47.2664 H         1 UNK         0.0600 
    129 H129       -8.2503  -15.2263  -48.8174 H         1 UNK         0.0600 
    130 H130       -5.4396  -16.1782  -47.2950 H         1 UNK         0.3000 
    131 H131       -3.6992  -15.2051  -49.3100 H         1 UNK         0.0600 
    132 H132       -2.8105  -16.3533  -46.6075 H         1 UNK         0.0800 
    133 H133       -3.4439  -17.3411  -47.8903 H         1 UNK         0.0800 
    134 H134       -1.3344  -18.8528  -48.0991 H         1 UNK         0.0800 
    135 H135       -2.0765  -18.4344  -49.6184 H         1 UNK         0.0800 
    136 H136       -0.9306  -19.2554  -51.4667 H         1 UNK         0.1150 
    137 H137        3.3167  -19.7470  -51.4652 H         1 UNK         0.1150 
    138 H138        1.3501  -18.0756  -48.0356 H         1 UNK         0.1150 
    139 H139        4.6334  -19.1374  -49.6207 H         1 UNK         0.0800 
    140 H140        4.0398  -17.7365  -48.7643 H         1 UNK         0.0800 
    141 H141        2.1542  -21.3322  -47.6648 H         1 UNK         0.0800 
    142 H142        3.3239  -21.4715  -48.9494 H         1 UNK         0.0800 
    143 H143        4.9450  -22.5848  -47.4715 H         1 UNK         0.0600 
    144 H144        3.3199  -21.6599  -45.3075 H         1 UNK         0.3000 
    145 H145        4.5688  -23.8992  -42.8243 H         1 UNK         0.0600 
    146 H146        5.0453  -21.7273  -41.6848 H         1 UNK         0.0600 
    147 H147        5.0862  -20.9081  -43.2446 H         1 UNK         0.0600 
    148 H148        6.2849  -22.1336  -42.8624 H         1 UNK         0.0600 
    149 H149        2.6944  -21.6518  -43.0370 H         1 UNK         0.3000 
    150 H150       -0.1870  -23.7275  -43.2964 H         1 UNK         0.0600 
    151 H151        0.3194  -23.8216  -40.8389 H         1 UNK         0.0600 
    152 H152       -0.8784  -22.5908  -41.2108 H         1 UNK         0.0600 
    153 H153        0.7866  -22.1236  -40.8707 H         1 UNK         0.0600 
    154 H154        0.0145  -20.9375  -42.8979 H         1 UNK         0.3000 
    155 H155        0.6774  -19.9446  -46.2645 H         1 UNK         0.0600 
    156 H156       -1.7557  -20.3199  -46.2083 H         1 UNK         0.0600 
    157 H157       -1.4318  -18.6483  -45.7457 H         1 UNK         0.0600 
    158 H158       -1.8306  -19.8542  -44.5230 H         1 UNK         0.0600 
    159 H159        0.2548  -18.2747  -44.1082 H         1 UNK         0.3000 
    160 H160        3.5447  -18.2599  -42.6501 H         1 UNK         0.0600 
    161 H161        1.8935  -16.3600  -44.3800 H         1 UNK         0.0600 
    162 H162        3.5680  -16.8189  -44.6551 H         1 UNK         0.0600 
    163 H163        3.1440  -15.8613  -43.2407 H         1 UNK         0.0600 
    164 H164        0.9176  -17.0278  -42.1868 H         1 UNK         0.3000 
    165 H165        0.1384  -19.1309  -39.4205 H         1 UNK         0.0600 
    166 H166       -0.0761  -16.9613  -38.2391 H         1 UNK         0.0600 
    167 H167        1.6197  -17.3845  -38.4112 H         1 UNK         0.0600 
    168 H168        0.9132  -16.1626  -39.4620 H         1 UNK         0.0600 
    169 H169       -1.2114  -16.8872  -40.5273 H         1 UNK         0.3000 
    170 H170       -2.9187  -18.4978  -43.1643 H         1 UNK         0.0600 
    171 H171       -4.1863  -19.2987  -41.1699 H         1 UNK         0.0600 
    172 H172       -3.9985  -17.7227  -40.4093 H         1 UNK         0.0600 
    173 H173       -4.9398  -17.8875  -41.8927 H         1 UNK         0.0600 
    174 H174       -3.3646  -15.9673  -42.0898 H         1 UNK         0.3000 
    175 H175       -2.9148  -14.3219  -43.8028 H         1 UNK         0.0600 
    176 H176       -0.6394  -13.9219  -41.7888 H         1 UNK         0.0600 
    177 H177       -1.6452  -12.6158  -42.4160 H         1 UNK         0.0600 
    178 H178       -2.3630  -13.9043  -41.4666 H         1 UNK         0.0600 
    179 H179       -1.6219  -13.8624  -45.4915 H         1 UNK         0.3000 
    180 H180        1.4680  -12.5641  -45.9714 H         1 UNK         0.0600 
    181 H181        2.5440  -14.7566  -46.0658 H         1 UNK         0.0600 
    182 H182        2.0255  -14.3435  -47.6881 H         1 UNK         0.0600 
    183 H183        1.1022  -15.5094  -46.7394 H         1 UNK         0.0600 
    184 H184       -0.4857  -13.8168  -47.7324 H         1 UNK         0.3000 
    185 H185       -2.7890  -11.1830  -47.7245 H         1 UNK         0.0600 
    186 H186       -1.0924  -10.1414  -49.2373 H         1 UNK         0.0600 
    187 H187       -0.7515  -11.7103  -49.9571 H         1 UNK         0.0600 
    188 H188       -2.3393  -10.9673  -50.1574 H         1 UNK         0.0600 
    189 H189       -2.4862  -13.3993  -49.4736 H         1 UNK         0.3000 
    190 H190        2.2128  -23.9537  -45.8959 H         1 UNK         0.3000 
    191 H191        0.9316  -25.7333  -46.0866 H         1 UNK         0.0600 
    192 H192        1.5367  -27.7000  -47.4172 H         1 UNK         0.0600 
    193 H193        2.9835  -27.0694  -46.6466 H         1 UNK         0.0600 
    194 H194        2.6962  -26.7804  -48.3625 H         1 UNK         0.0600 
    195 H195        0.2119  -23.3511  -47.1758 H         1 UNK         0.3000 
    196 H196       -1.1830  -23.8435  -49.7564 H         1 UNK         0.0600 
    197 H197       -0.6888  -21.3013  -48.1106 H         1 UNK         0.0600 
    198 H198        0.1851  -21.7803  -49.5596 H         1 UNK         0.0600 
    199 H199       -1.5136  -21.3578  -49.6650 H         1 UNK         0.0600 
    200 H200       -3.3994  -22.7823  -49.8203 H         1 UNK         0.3000 
    201 H201       -5.1405  -24.1878  -48.0625 H         1 UNK         0.0600 
    202 H202       -6.9135  -23.1375  -49.4603 H         1 UNK         0.0600 
    203 H203       -5.6230  -23.7581  -50.4748 H         1 UNK         0.0600 
    204 H204       -5.7430  -22.0262  -50.1560 H         1 UNK         0.0600 
    205 H205       -3.8624  -20.9792  -47.8863 H         1 UNK         0.3000 
    206 H206       -3.9611  -19.2905  -46.4823 H         1 UNK         0.0600 
    207 H207       -3.9682  -20.9700  -44.6236 H         1 UNK         0.0600 
    208 H208       -4.8499  -19.5072  -44.2016 H         1 UNK         0.0600 
    209 H209       -5.7285  -20.9641  -44.6236 H         1 UNK         0.0600 
    210 H210       -7.1507  -20.6907  -47.0572 H         1 UNK         0.3000 
    211 H211       -8.6452  -18.2146  -46.8578 H         1 UNK         0.0600 
    212 H212       -9.3489  -20.9322  -48.0966 H         1 UNK         0.0600 
    213 H213      -10.4931  -19.6406  -47.7483 H         1 UNK         0.0600 
    214 H214       -9.6612  -20.4486  -46.4297 H         1 UNK         0.0600 
    215 H215       -6.4604  -19.2703  -49.1949 H         1 UNK         0.3000 
    216 H216       -7.3940  -17.2996  -51.1567 H         1 UNK         0.0600 
    217 H217       -8.1771  -19.4804  -52.1015 H         1 UNK         0.0600 
    218 H218       -6.5841  -20.1891  -51.8555 H         1 UNK         0.0600 
    219 H219       -6.8025  -18.8937  -53.0261 H         1 UNK         0.0600 
    220 H220       -5.5979  -16.5559  -52.4405 H         1 UNK         0.3000 
    221 H221       -3.0316  -16.5546  -50.9847 H         1 UNK         0.0600 
    222 H222       -2.5770  -14.5315  -52.3081 H         1 UNK         0.0600 
    223 H223       -4.0123  -14.8004  -53.3010 H         1 UNK         0.0600 
    224 H224       -4.1713  -14.3908  -51.5991 H         1 UNK         0.0600 
    225 H225       -1.9501  -15.7152  -53.7957 H         1 UNK         0.3000 
    226 H226       -0.2303  -17.7911  -54.1307 H         1 UNK         0.0600 
    227 H227        0.1247  -15.5299  -55.0359 H         1 UNK         0.0600 
    228 H228        0.3327  -16.7116  -56.3170 H         1 UNK         0.0600 
    229 H229       -1.1499  -15.7675  -56.2325 H         1 UNK         0.0600 
    230 H230       -3.4151  -17.6105  -55.5885 H         1 UNK         0.3000 
    231 H231       -3.2126  -19.5920  -57.5989 H         1 UNK         0.0600 
    232 H232       -5.7089  -19.6275  -57.4013 H         1 UNK         0.0600 
    233 H233       -5.0958  -17.9824  -57.4320 H         1 UNK         0.0600 
    234 H234       -5.6128  -18.7037  -55.9068 H         1 UNK         0.0600 
    235 H235       -3.4168  -19.9372  -54.0874 H         1 UNK         0.3000 
    236 H236       -4.4439  -22.5873  -53.9355 H         1 UNK         0.0600 
    237 H237       -4.3242  -20.9722  -52.0093 H         1 UNK         0.0600 
    238 H238       -3.5585  -22.5112  -51.6350 H         1 UNK         0.0600 
    239 H239       -2.5680  -21.1078  -52.0127 H         1 UNK         0.0600 
    240 H240       -1.2777  -21.3878  -54.8140 H         1 UNK         0.3000 
    241 H241        0.0247  -24.0239  -54.4933 H         1 UNK         0.0600 
    242 H242       -2.0453  -22.8460  -56.8753 H         1 UNK         0.3800 
    243 H243       -1.2868  -23.6432  -58.2291 H         1 UNK         0.3800 
    244 H244        1.2312  -21.3679  -55.3871 H         1 UNK         0.0800 
    245 H245        2.1086  -22.8533  -55.1382 H         1 UNK         0.0800 
    246 H246        0.1239  -19.9886  -53.4409 H         1 UNK         0.0800 
    247 H247        1.8201  -19.6123  -53.6698 H         1 UNK         0.0800 
@<TRIPOS>BOND
     1    1    2 1    
     2    1  127 1    
     3    1  128 1    
     4    1  129 1    
     5    2    3 2    
     6    2    4 am   BACKBONE|DICT|INTERRES
     7    4    5 1    
     8    4  130 1    
     9    5    6 1    
    10    5   65 1    
    11    5  131 1    
    12    6    7 1    
    13    6  132 1    
    14    6  133 1    
    15    7    8 1    
    16    8    9 1    
    17    8  134 1    
    18    8  135 1    
    19    9   10 ar   
    20    9   14 ar   
    21   10   11 ar   
    22   10  136 1    
    23   11   12 ar   
    24   11  126 1    
    25   12   13 ar   
    26   12  137 1    
    27   13   14 ar   
    28   13   15 1    
    29   14  138 1    
    30   15   16 1    
    31   15  139 1    
    32   15  140 1    
    33   16   17 1    
    34   17   18 1    
    35   17  141 1    
    36   17  142 1    
    37   18   19 1    
    38   18   67 1    
    39   18  143 1    
    40   19   20 am   BACKBONE|DICT|INTERRES
    41   19  144 1    
    42   20   21 2    
    43   20   22 1    
    44   22   23 1    
    45   22   24 1    
    46   22  145 1    
    47   23  146 1    
    48   23  147 1    
    49   23  148 1    
    50   24   25 am   BACKBONE|DICT|INTERRES
    51   24  149 1    
    52   25   26 2    
    53   25   27 1    
    54   27   28 1    
    55   27   29 1    
    56   27  150 1    
    57   28  151 1    
    58   28  152 1    
    59   28  153 1    
    60   29   30 am   BACKBONE|DICT|INTERRES
    61   29  154 1    
    62   30   31 2    
    63   30   32 1    
    64   32   33 1    
    65   32   34 1    
    66   32  155 1    
    67   33  156 1    
    68   33  157 1    
    69   33  158 1    
    70   34   35 am   BACKBONE|DICT|INTERRES
    71   34  159 1    
    72   35   36 2    
    73   35   37 1    
    74   37   38 1    
    75   37   39 1    
    76   37  160 1    
    77   38  161 1    
    78   38  162 1    
    79   38  163 1    
    80   39   40 am   BACKBONE|DICT|INTERRES
    81   39  164 1    
    82   40   41 2    
    83   40   42 1    
    84   42   43 1    
    85   42   44 1    
    86   42  165 1    
    87   43  166 1    
    88   43  167 1    
    89   43  168 1    
    90   44   45 am   BACKBONE|DICT|INTERRES
    91   44  169 1    
    92   45   46 2    
    93   45   47 1    
    94   47   48 1    
    95   47   49 1    
    96   47  170 1    
    97   48  171 1    
    98   48  172 1    
    99   48  173 1    
   100   49   50 am   BACKBONE|DICT|INTERRES
   101   49  174 1    
   102   50   51 2    
   103   50   52 1    
   104   52   53 1    
   105   52   54 1    
   106   52  175 1    
   107   53  176 1    
   108   53  177 1    
   109   53  178 1    
   110   54   55 am   BACKBONE|DICT|INTERRES
   111   54  179 1    
   112   55   56 2    
   113   55   57 1    
   114   57   58 1    
   115   57   59 1    
   116   57  180 1    
   117   58  181 1    
   118   58  182 1    
   119   58  183 1    
   120   59   60 am   BACKBONE|DICT|INTERRES
   121   59  184 1    
   122   60   61 2    
   123   60   62 1    
   124   62   63 1    
   125   62   64 1    
   126   62  185 1    
   127   63  186 1    
   128   63  187 1    
   129   63  188 1    
   130   64   65 am   BACKBONE|DICT|INTERRES
   131   64  189 1    
   132   65   66 2    
   133   67   68 2    
   134   67   69 am   BACKBONE|DICT|INTERRES
   135   69   70 1    
   136   69  190 1    
   137   70   71 1    
   138   70   72 1    
   139   70  191 1    
   140   71  192 1    
   141   71  193 1    
   142   71  194 1    
   143   72   73 2    
   144   72   74 am   BACKBONE|DICT|INTERRES
   145   74   75 1    
   146   74  195 1    
   147   75   76 1    
   148   75   77 1    
   149   75  196 1    
   150   76  197 1    
   151   76  198 1    
   152   76  199 1    
   153   77   78 2    
   154   77   79 am   BACKBONE|DICT|INTERRES
   155   79   80 1    
   156   79  200 1    
   157   80   81 1    
   158   80   82 1    
   159   80  201 1    
   160   81  202 1    
   161   81  203 1    
   162   81  204 1    
   163   82   83 2    
   164   82   84 am   BACKBONE|DICT|INTERRES
   165   84   85 1    
   166   84  205 1    
   167   85   86 1    
   168   85   87 1    
   169   85  206 1    
   170   86  207 1    
   171   86  208 1    
   172   86  209 1    
   173   87   88 2    
   174   87   89 am   BACKBONE|DICT|INTERRES
   175   89   90 1    
   176   89  210 1    
   177   90   91 1    
   178   90   92 1    
   179   90  211 1    
   180   91  212 1    
   181   91  213 1    
   182   91  214 1    
   183   92   93 2    
   184   92   94 am   BACKBONE|DICT|INTERRES
   185   94   95 1    
   186   94  215 1    
   187   95   96 1    
   188   95   97 1    
   189   95  216 1    
   190   96  217 1    
   191   96  218 1    
   192   96  219 1    
   193   97   98 2    
   194   97   99 am   BACKBONE|DICT|INTERRES
   195   99  100 1    
   196   99  220 1    
   197  100  101 1    
   198  100  102 1    
   199  100  221 1    
   200  101  222 1    
   201  101  223 1    
   202  101  224 1    
   203  102  103 2    
   204  102  104 am   BACKBONE|DICT|INTERRES
   205  104  105 1    
   206  104  225 1    
   207  105  106 1    
   208  105  107 1    
   209  105  226 1    
   210  106  227 1    
   211  106  228 1    
   212  106  229 1    
   213  107  108 2    
   214  107  109 am   BACKBONE|DICT|INTERRES
   215  109  110 1    
   216  109  230 1    
   217  110  111 1    
   218  110  112 1    
   219  110  231 1    
   220  111  232 1    
   221  111  233 1    
   222  111  234 1    
   223  112  113 2    
   224  112  114 am   BACKBONE|DICT|INTERRES
   225  114  115 1    
   226  114  235 1    
   227  115  116 1    
   228  115  117 1    
   229  115  236 1    
   230  116  237 1    
   231  116  238 1    
   232  116  239 1    
   233  117  118 2    
   234  117  119 am   BACKBONE|DICT|INTERRES
   235  119  120 1    
   236  119  240 1    
   237  120  121 1    
   238  120  124 1    
   239  120  241 1    
   240  121  122 am   BACKBONE|DICT|INTERRES
   241  121  123 2    
   242  122  242 1    
   243  122  243 1    
   244  124  125 1    
   245  124  244 1    
   246  124  245 1    
   247  125  126 1    
   248  126  246 1    
   249  126  247 1    
@<TRIPOS>SUBSTRUCTURE
     1 UNK         1 GROUP             0       ****    0 ROOT    
