@<TRIPOS>MOLECULE
3R540
247   249    1
SMALL
USER_CHARGES


@<TRIPOS>ATOM
      1 CA         -2.1194  -16.7890  -42.5164 C.3       0 UNK        -0.1800 
      2 C          -3.3945  -16.0741  -42.9367 C.2       0 UNK         0.5000 
      3 O          -4.2717  -15.8590  -42.1015 O.2       0 UNK        -0.5000 
      4 N          -3.4852  -15.6699  -44.2134 N.am      1 UNK        -0.5000 
      5 CA         -4.5638  -14.8222  -44.7482 C.3       1 UNK         0.1400 
      6 C6         -4.5268  -14.7287  -46.2987 C.3       23 UNK        -0.0398 
      7 S7         -3.0548  -13.8808  -46.9812 S.3       23 UNK        -0.2404 
      8 C8         -3.4568  -13.7921  -48.7520 C.3       23 UNK        -0.0205 
      9 C9         -2.9271  -15.0028  -49.5026 C.ar      23 UNK        -0.0193 
     10 C10        -1.6231  -14.9971  -50.0072 C.ar      23 UNK        -0.1150 
     11 C11        -1.1191  -16.0965  -50.7089 C.ar      23 UNK        -0.0193 
     12 C12        -1.9358  -17.2216  -50.8747 C.ar      23 UNK        -0.1150 
     13 C13        -3.2434  -17.2382  -50.3852 C.ar      23 UNK        -0.0193 
     14 C14        -3.7375  -16.1220  -49.7048 C.ar      23 UNK        -0.1150 
     15 C15        -4.1159  -18.4674  -50.5948 C.3       23 UNK        -0.0205 
     16 S16        -4.6002  -19.2392  -49.0209 S.3       23 UNK        -0.2404 
     17 C17        -2.9832  -19.5721  -48.2360 C.3       23 UNK        -0.0398 
     18 CA         -2.8305  -21.0137  -47.6919 C.3       11 UNK         0.1400 
     19 N          -1.4710  -21.2878  -47.2221 N.am      11 UNK        -0.5000 
     20 C          -1.0343  -22.4690  -46.7587 C.2       10 UNK         0.5000 
     21 O          -1.7162  -23.4926  -46.7395 O.2       10 UNK        -0.5000 
     22 CA          0.3828  -22.5020  -46.1602 C.3       10 UNK         0.1400 
     23 CB          1.4345  -22.6855  -47.2642 C.3       10 UNK        -0.1800 
     24 N           0.6879  -21.3072  -45.3701 N.am      10 UNK        -0.5000 
     25 C           0.0244  -20.9290  -44.2669 C.2       9 UNK         0.5000 
     26 O          -0.8863  -21.5832  -43.7588 O.2       9 UNK        -0.5000 
     27 CA          0.3932  -19.5572  -43.6718 C.3       9 UNK         0.1400 
     28 CB          1.6684  -19.6352  -42.8200 C.3       9 UNK        -0.1800 
     29 N           0.5431  -18.5330  -44.7075 N.am      9 UNK        -0.5000 
     30 C          -0.4636  -18.0897  -45.4744 C.2       8 UNK         0.5000 
     31 O          -1.6378  -18.4245  -45.3162 O.2       8 UNK        -0.5000 
     32 CA         -0.0940  -17.1379  -46.6266 C.3       8 UNK         0.1400 
     33 CB         -0.0456  -15.6817  -46.1407 C.3       8 UNK        -0.1800 
     34 N           1.1821  -17.5021  -47.2447 N.am      8 UNK        -0.5000 
     35 C           1.3574  -18.6017  -47.9921 C.2       7 UNK         0.5000 
     36 O           0.4452  -19.3749  -48.2764 O.2       7 UNK        -0.5000 
     37 CA          2.7942  -18.9265  -48.4452 C.3       7 UNK         0.1400 
     38 CB          3.1254  -18.2232  -49.7675 C.3       7 UNK        -0.1800 
     39 N           3.7974  -18.5686  -47.4418 N.am      7 UNK        -0.5000 
     40 C           3.9274  -19.1736  -46.2523 C.2       6 UNK         0.5000 
     41 O           3.2540  -20.1433  -45.9089 O.2       6 UNK        -0.5000 
     42 CA          4.9351  -18.5582  -45.2599 C.3       6 UNK         0.1400 
     43 CB          6.3101  -19.2262  -45.4047 C.3       6 UNK        -0.1800 
     44 N           5.0802  -17.1070  -45.4148 N.am      6 UNK        -0.5000 
     45 C           4.0890  -16.2238  -45.2369 C.2       5 UNK         0.5000 
     46 O           2.9585  -16.5376  -44.8537 O.2       5 UNK        -0.5000 
     47 CA          4.3917  -14.7719  -45.6324 C.3       5 UNK         0.1400 
     48 CB          4.6092  -14.6728  -47.1588 C.3       5 UNK        -0.1800 
     49 N           3.2749  -13.9198  -45.2316 N.am      5 UNK        -0.5000 
     50 C           3.2761  -12.5817  -45.2329 C.2       4 UNK         0.5000 
     51 O           4.2654  -11.9000  -45.5052 O.2       4 UNK        -0.5000 
     52 CA          1.9501  -11.8750  -44.8959 C.3       4 UNK         0.1400 
     53 CB          1.1541  -11.5945  -46.1807 C.3       4 UNK        -0.1800 
     54 N           1.0910  -12.6101  -43.9679 N.am      4 UNK        -0.5000 
     55 C           1.3243  -12.7521  -42.6557 C.2       3 UNK         0.5000 
     56 O           2.3649  -12.3872  -42.1060 O.2       3 UNK        -0.5000 
     57 CA          0.1807  -13.3826  -41.8266 C.3       3 UNK         0.1400 
     58 CB          0.3066  -13.1011  -40.3153 C.3       3 UNK        -0.1800 
     59 N          -1.1598  -13.0145  -42.3106 N.am      3 UNK        -0.5000 
     60 C          -1.6816  -11.7793  -42.4349 C.2       2 UNK         0.5000 
     61 O          -1.0952  -10.7523  -42.0919 O.2       2 UNK        -0.5000 
     62 CA         -3.0783  -11.6773  -43.0863 C.3       2 UNK         0.1400 
     63 CB         -3.2055  -10.4540  -44.0142 C.3       2 UNK        -0.1800 
     64 N          -3.3762  -12.8947  -43.8372 N.am      2 UNK        -0.5000 
     65 C          -4.5806  -13.4290  -44.0710 C.2       1 UNK         0.5000 
     66 O          -5.6471  -12.9082  -43.7419 O.2       1 UNK        -0.5000 
     67 C          -3.8780  -21.3222  -46.6053 C.2       11 UNK         0.5000 
     68 O          -4.8183  -22.0703  -46.8736 O.2       11 UNK        -0.5000 
     69 N          -3.6770  -20.7747  -45.3995 N.am      12 UNK        -0.5000 
     70 CA         -4.5565  -20.9898  -44.2512 C.3       12 UNK         0.1400 
     71 CB         -4.1507  -20.0406  -43.1159 C.3       12 UNK        -0.1800 
     72 C          -4.5772  -22.4525  -43.7683 C.2       12 UNK         0.5000 
     73 O          -5.6427  -22.9551  -43.4100 O.2       12 UNK        -0.5000 
     74 N          -3.4096  -23.1088  -43.7799 N.am      13 UNK        -0.5000 
     75 CA         -3.2379  -24.4991  -43.3632 C.3       13 UNK         0.1400 
     76 CB         -1.7408  -24.7941  -43.1813 C.3       13 UNK        -0.1800 
     77 C          -3.8753  -25.5103  -44.3341 C.2       13 UNK         0.5000 
     78 O          -4.5748  -26.4200  -43.8865 O.2       13 UNK        -0.5000 
     79 N          -3.6082  -25.3501  -45.6367 N.am      14 UNK        -0.5000 
     80 CA         -3.9832  -26.3118  -46.6771 C.3       14 UNK         0.1400 
     81 CB         -2.8568  -26.3597  -47.7191 C.3       14 UNK        -0.1800 
     82 C          -5.3211  -25.9949  -47.3680 C.2       14 UNK         0.5000 
     83 O          -5.7412  -26.7760  -48.2218 O.2       14 UNK        -0.5000 
     84 N          -5.9436  -24.8558  -47.0307 N.am      15 UNK        -0.5000 
     85 CA         -7.1269  -24.2756  -47.6781 C.3       15 UNK         0.1400 
     86 CB         -8.3698  -25.1721  -47.4962 C.3       15 UNK        -0.1800 
     87 C          -6.8298  -23.9217  -49.1503 C.2       15 UNK         0.5000 
     88 O          -7.4892  -24.4145  -50.0663 O.2       15 UNK        -0.5000 
     89 N          -5.7845  -23.1037  -49.3296 N.am      16 UNK        -0.5000 
     90 CA         -5.2194  -22.5684  -50.5756 C.3       16 UNK         0.1400 
     91 CB         -6.2712  -21.7800  -51.3789 C.3       16 UNK        -0.1800 
     92 C          -4.4784  -23.5823  -51.4682 C.2       16 UNK         0.5000 
     93 O          -3.7047  -23.1510  -52.3221 O.2       16 UNK        -0.5000 
     94 N          -4.6777  -24.8908  -51.2589 N.am      17 UNK        -0.5000 
     95 CA         -4.1480  -25.9723  -52.0982 C.3       17 UNK         0.1400 
     96 CB         -4.6853  -27.3150  -51.5816 C.3       17 UNK        -0.1800 
     97 C          -2.6103  -26.0146  -52.2073 C.2       17 UNK         0.5000 
     98 O          -2.0866  -26.3709  -53.2631 O.2       17 UNK        -0.5000 
     99 N          -1.9190  -25.6289  -51.1277 N.am      18 UNK        -0.5000 
    100 CA        -0.4571  -25.5651  -51.0519 C.3       18 UNK         0.1400 
    101 CB        -0.0249  -25.8950  -49.6136 C.3       18 UNK        -0.1800 
    102 C          0.1147  -24.1982  -51.4793 C.2       18 UNK         0.5000 
    103 O          1.3366  -24.0455  -51.4962 O.2       18 UNK        -0.5000 
    104 N         -0.7536  -23.2254  -51.7862 N.am      19 UNK        -0.5000 
    105 CA        -0.3926  -21.8288  -52.0315 C.3       19 UNK         0.1400 
    106 CB        -0.8265  -20.9969  -50.8183 C.3       19 UNK        -0.1800 
    107 C         -0.9964  -21.3009  -53.3443 C.2       19 UNK         0.5000 
    108 O         -1.1504  -20.0895  -53.5048 O.2       19 UNK        -0.5000 
    109 N         -1.3036  -22.2104  -54.2809 N.am      20 UNK        -0.5000 
    110 CA        -1.8804  -21.9105  -55.5962 C.3       20 UNK         0.1400 
    111 CB        -2.2077  -23.2312  -56.3083 C.3       20 UNK        -0.1800 
    112 C         -0.9835  -21.0200  -56.4820 C.2       20 UNK         0.5000 
    113 O         -1.4954  -20.3002  -57.3411 O.2       20 UNK        -0.5000 
    114 N          0.3319  -21.0453  -56.2203 N.am      21 UNK        -0.5000 
    115 CA         1.3545  -20.2006  -56.8418 C.3       21 UNK         0.1400 
    116 CB         2.7341  -20.6388  -56.3266 C.3       21 UNK        -0.1800 
    117 C          1.1523  -18.6865  -56.6174 C.2       21 UNK         0.5000 
    118 O          1.6761  -17.8931  -57.4009 O.2       21 UNK        -0.5000 
    119 N          0.3901  -18.3084  -55.5813 N.am      22 UNK        -0.5000 
    120 CA        -0.0447  -16.9248  -55.3291 C.3       22 UNK         0.1400 
    121 C         -1.1173  -16.4029  -56.3336 C.2       22 UNK         0.5000 
    122 N         -1.7463  -17.2441  -57.1485 N.am      22 UNK        -0.7600 
    123 O         -1.3799  -15.2043  -56.3791 O.2       22 UNK        -0.5000 
    124 C124       -0.5380  -16.7289  -53.8735 C.3       23 UNK        -0.0398 
    125 S125        0.7039  -17.1878  -52.6140 S.3       23 UNK        -0.2404 
    126 C126        0.3081  -16.0252  -51.2573 C.3       23 UNK        -0.0205 
    127 H127       -1.8506  -16.5161  -41.4959 H         1 UNK         0.0600 
    128 H128       -1.2818  -16.5255  -43.1608 H         1 UNK         0.0600 
    129 H129       -2.2638  -17.8670  -42.5518 H         1 UNK         0.0600 
    130 H130       -2.7722  -15.9408  -44.8744 H         1 UNK         0.3000 
    131 H131       -5.5047  -15.3088  -44.4819 H         1 UNK         0.0600 
    132 H132       -5.4196  -14.2120  -46.6547 H         1 UNK         0.0800 
    133 H133       -4.5741  -15.7312  -46.7264 H         1 UNK         0.0800 
    134 H134       -3.0128  -12.8849  -49.1644 H         1 UNK         0.0800 
    135 H135       -4.5338  -13.6909  -48.8932 H         1 UNK         0.0800 
    136 H136       -0.9988  -14.1277  -49.8548 H         1 UNK         0.1150 
    137 H137       -1.5650  -18.0893  -51.3981 H         1 UNK         0.1150 
    138 H138       -4.7483  -16.1326  -49.3221 H         1 UNK         0.1150 
    139 H139       -3.6092  -19.2082  -51.2154 H         1 UNK         0.0800 
    140 H140       -5.0160  -18.1773  -51.1380 H         1 UNK         0.0800 
    141 H141       -2.8558  -18.8370  -47.4442 H         1 UNK         0.0800 
    142 H142       -2.1868  -19.3696  -48.9504 H         1 UNK         0.0800 
    143 H143       -3.0042  -21.7055  -48.5165 H         1 UNK         0.0600 
    144 H144       -0.8114  -20.5179  -47.2739 H         1 UNK         0.3000 
    145 H145        0.4412  -23.3623  -45.4910 H         1 UNK         0.0600 
    146 H146        2.4402  -22.7390  -46.8471 H         1 UNK         0.0600 
    147 H147        1.2622  -23.6093  -47.8171 H         1 UNK         0.0600 
    148 H148        1.4131  -21.8678  -47.9837 H         1 UNK         0.0600 
    149 H149        1.4736  -20.7435  -45.6833 H         1 UNK         0.3000 
    150 H150       -0.4240  -19.2549  -43.0155 H         1 UNK         0.0600 
    151 H151        2.5264  -19.9751  -43.3983 H         1 UNK         0.0600 
    152 H152        1.5378  -20.3332  -41.9923 H         1 UNK         0.0600 
    153 H153        1.9164  -18.6639  -42.3915 H         1 UNK         0.0600 
    154 H154        1.4744  -18.1710  -44.8707 H         1 UNK         0.3000 
    155 H155       -0.8764  -17.2116  -47.3857 H         1 UNK         0.0600 
    156 H156        0.7238  -15.5215  -45.3891 H         1 UNK         0.0600 
    157 H157       -0.9914  -15.3961  -45.6852 H         1 UNK         0.0600 
    158 H158        0.1386  -14.9965  -46.9684 H         1 UNK         0.0600 
    159 H159        1.9850  -16.9451  -46.9940 H         1 UNK         0.3000 
    160 H160        2.8525  -20.0037  -48.6134 H         1 UNK         0.0600 
    161 H161        3.1102  -17.1377  -49.6648 H         1 UNK         0.0600 
    162 H162        2.4052  -18.4958  -50.5393 H         1 UNK         0.0600 
    163 H163        4.1115  -18.5118  -50.1314 H         1 UNK         0.0600 
    164 H164        4.4007  -17.7888  -47.6550 H         1 UNK         0.3000 
    165 H165        4.5645  -18.7521  -44.2513 H         1 UNK         0.0600 
    166 H166        7.0096  -18.8558  -44.6550 H         1 UNK         0.0600 
    167 H167        6.7446  -19.0464  -46.3888 H         1 UNK         0.0600 
    168 H168        6.2349  -20.3063  -45.2712 H         1 UNK         0.0600 
    169 H169        5.9820  -16.7771  -45.7278 H         1 UNK         0.3000 
    170 H170        5.2924  -14.4529  -45.1042 H         1 UNK         0.0600 
    171 H171        5.4306  -15.3090  -47.4896 H         1 UNK         0.0600 
    172 H172        3.7172  -14.9726  -47.7106 H         1 UNK         0.0600 
    173 H173        4.8606  -13.6576  -47.4646 H         1 UNK         0.0600 
    174 H174        2.4503  -14.4245  -44.9346 H         1 UNK         0.3000 
    175 H175        2.1987  -10.9157  -44.4367 H         1 UNK         0.0600 
    176 H176        0.8520  -12.5169  -46.6781 H         1 UNK         0.0600 
    177 H177        0.2540  -11.0164  -45.9697 H         1 UNK         0.0600 
    178 H178        1.7487  -11.0189  -46.8913 H         1 UNK         0.0600 
    179 H179        0.2084  -12.9295  -44.3343 H         1 UNK         0.3000 
    180 H180        0.2719  -14.4609  -41.9659 H         1 UNK         0.0600 
    181 H181        0.2806  -12.0327  -40.0989 H         1 UNK         0.0600 
    182 H182        1.2448  -13.4922  -39.9201 H         1 UNK         0.0600 
    183 H183       -0.5009  -13.5757  -39.7578 H         1 UNK         0.0600 
    184 H184       -1.7584  -13.7893  -42.5500 H         1 UNK         0.3000 
    185 H185       -3.7976  -11.5777  -42.2711 H         1 UNK         0.0600 
    186 H186       -4.2031  -10.3889  -44.4486 H         1 UNK         0.0600 
    187 H187       -3.0308   -9.5251  -43.4702 H         1 UNK         0.0600 
    188 H188       -2.4866  -10.4986  -44.8332 H         1 UNK         0.0600 
    189 H189       -2.5775  -13.3781  -44.2190 H         1 UNK         0.3000 
    190 H190       -2.8792  -20.1640  -45.2613 H         1 UNK         0.3000 
    191 H191       -5.5723  -20.7321  -44.5585 H         1 UNK         0.0600 
    192 H192       -4.2417  -19.0010  -43.4295 H         1 UNK         0.0600 
    193 H193       -3.1215  -20.2099  -42.7979 H         1 UNK         0.0600 
    194 H194       -4.7921  -20.1744  -42.2439 H         1 UNK         0.0600 
    195 H195       -2.5683  -22.6012  -44.0373 H         1 UNK         0.3000 
    196 H196       -3.7225  -24.6212  -42.3922 H         1 UNK         0.0600 
    197 H197       -1.1878  -24.6592  -44.1112 H         1 UNK         0.0600 
    198 H198       -1.2983  -24.1373  -42.4321 H         1 UNK         0.0600 
    199 H199       -1.5814  -25.8207  -42.8494 H         1 UNK         0.0600 
    200 H200       -3.0085  -24.5819  -45.9316 H         1 UNK         0.3000 
    201 H201       -4.0729  -27.3084  -46.2401 H         1 UNK         0.0600 
    202 H202       -2.7784  -25.4163  -48.2594 H         1 UNK         0.0600 
    203 H203       -3.0294  -27.1478  -48.4527 H         1 UNK         0.0600 
    204 H204       -1.8943  -26.5606  -47.2485 H         1 UNK         0.0600 
    205 H205       -5.4831  -24.2576  -46.3568 H         1 UNK         0.3000 
    206 H206       -7.3284  -23.3334  -47.1660 H         1 UNK         0.0600 
    207 H207       -8.5466  -25.3897  -46.4430 H         1 UNK         0.0600 
    208 H208       -9.2622  -24.6768  -47.8803 H         1 UNK         0.0600 
    209 H209       -8.2753  -26.1216  -48.0234 H         1 UNK         0.0600 
    210 H210       -5.3357  -22.7715  -48.4777 H         1 UNK         0.3000 
    211 H211       -4.4580  -21.8545  -50.2684 H         1 UNK         0.0600 
    212 H212       -5.8102  -21.2681  -52.2246 H         1 UNK         0.0600 
    213 H213       -6.7480  -21.0182  -50.7620 H         1 UNK         0.0600 
    214 H214       -7.0512  -22.4283  -51.7786 H         1 UNK         0.0600 
    215 H215       -5.3544  -25.1563  -50.5554 H         1 UNK         0.3000 
    216 H216       -4.5378  -25.8173  -53.1063 H         1 UNK         0.0600 
    217 H217       -4.3472  -27.5189  -50.5652 H         1 UNK         0.0600 
    218 H218       -4.3499  -28.1400  -52.2113 H         1 UNK         0.0600 
    219 H219       -5.7755  -27.3301  -51.5798 H         1 UNK         0.0600 
    220 H220       -2.4314  -25.3377  -50.3092 H         1 UNK         0.3000 
    221 H221       -0.0235  -26.3184  -51.7128 H         1 UNK         0.0600 
    222 H222       -0.3854  -26.8777  -49.3099 H         1 UNK         0.0600 
    223 H223       -0.4004  -25.1593  -48.9016 H         1 UNK         0.0600 
    224 H224        1.0619  -25.9110  -49.5226 H         1 UNK         0.0600 
    225 H225       -1.7464  -23.4329  -51.8218 H         1 UNK         0.3000 
    226 H226        0.6888  -21.7260  -52.1381 H         1 UNK         0.0600 
    227 H227       -1.9122  -20.9527  -50.7371 H         1 UNK         0.0600 
    228 H228       -0.4344  -21.4188  -49.8935 H         1 UNK         0.0600 
    229 H229       -0.4479  -19.9775  -50.8881 H         1 UNK         0.0600 
    230 H230       -1.1572  -23.1851  -54.0627 H         1 UNK         0.3000 
    231 H231       -2.8141  -21.3692  -55.4305 H         1 UNK         0.0600 
    232 H232       -1.3116  -23.8290  -56.4790 H         1 UNK         0.0600 
    233 H233       -2.6713  -23.0481  -57.2785 H         1 UNK         0.0600 
    234 H234       -2.9055  -23.8312  -55.7232 H         1 UNK         0.0600 
    235 H235        0.6496  -21.6676  -55.4925 H         1 UNK         0.3000 
    236 H236        1.3170  -20.3763  -57.9187 H         1 UNK         0.0600 
    237 H237        2.9276  -21.6869  -56.5558 H         1 UNK         0.0600 
    238 H238        3.5293  -20.0545  -56.7916 H         1 UNK         0.0600 
    239 H239        2.8193  -20.5080  -55.2470 H         1 UNK         0.0600 
    240 H240       -0.0063  -19.0122  -54.9692 H         1 UNK         0.3000 
    241 H241        0.8273  -16.2818  -55.4630 H         1 UNK         0.0600 
    242 H242       -2.4322  -16.8843  -57.7931 H         1 UNK         0.3800 
    243 H243       -1.5497  -18.2383  -57.1347 H         1 UNK         0.3800 
    244 H244       -1.4376  -17.3219  -53.7022 H         1 UNK         0.0800 
    245 H245       -0.8234  -15.6881  -53.7098 H         1 UNK         0.0800 
    246 H246        0.5131  -15.0130  -51.6093 H         1 UNK         0.0800 
    247 H247        0.9957  -16.2083  -50.4320 H         1 UNK         0.0800 
@<TRIPOS>BOND
     1    1    2 1    
     2    1  127 1    
     3    1  128 1    
     4    1  129 1    
     5    2    3 2    
     6    2    4 am   BACKBONE|DICT|INTERRES
     7    4    5 1    
     8    4  130 1    
     9    5    6 1    
    10    5   65 1    
    11    5  131 1    
    12    6    7 1    
    13    6  132 1    
    14    6  133 1    
    15    7    8 1    
    16    8    9 1    
    17    8  134 1    
    18    8  135 1    
    19    9   10 ar   
    20    9   14 ar   
    21   10   11 ar   
    22   10  136 1    
    23   11   12 ar   
    24   11  126 1    
    25   12   13 ar   
    26   12  137 1    
    27   13   14 ar   
    28   13   15 1    
    29   14  138 1    
    30   15   16 1    
    31   15  139 1    
    32   15  140 1    
    33   16   17 1    
    34   17   18 1    
    35   17  141 1    
    36   17  142 1    
    37   18   19 1    
    38   18   67 1    
    39   18  143 1    
    40   19   20 am   BACKBONE|DICT|INTERRES
    41   19  144 1    
    42   20   21 2    
    43   20   22 1    
    44   22   23 1    
    45   22   24 1    
    46   22  145 1    
    47   23  146 1    
    48   23  147 1    
    49   23  148 1    
    50   24   25 am   BACKBONE|DICT|INTERRES
    51   24  149 1    
    52   25   26 2    
    53   25   27 1    
    54   27   28 1    
    55   27   29 1    
    56   27  150 1    
    57   28  151 1    
    58   28  152 1    
    59   28  153 1    
    60   29   30 am   BACKBONE|DICT|INTERRES
    61   29  154 1    
    62   30   31 2    
    63   30   32 1    
    64   32   33 1    
    65   32   34 1    
    66   32  155 1    
    67   33  156 1    
    68   33  157 1    
    69   33  158 1    
    70   34   35 am   BACKBONE|DICT|INTERRES
    71   34  159 1    
    72   35   36 2    
    73   35   37 1    
    74   37   38 1    
    75   37   39 1    
    76   37  160 1    
    77   38  161 1    
    78   38  162 1    
    79   38  163 1    
    80   39   40 am   BACKBONE|DICT|INTERRES
    81   39  164 1    
    82   40   41 2    
    83   40   42 1    
    84   42   43 1    
    85   42   44 1    
    86   42  165 1    
    87   43  166 1    
    88   43  167 1    
    89   43  168 1    
    90   44   45 am   BACKBONE|DICT|INTERRES
    91   44  169 1    
    92   45   46 2    
    93   45   47 1    
    94   47   48 1    
    95   47   49 1    
    96   47  170 1    
    97   48  171 1    
    98   48  172 1    
    99   48  173 1    
   100   49   50 am   BACKBONE|DICT|INTERRES
   101   49  174 1    
   102   50   51 2    
   103   50   52 1    
   104   52   53 1    
   105   52   54 1    
   106   52  175 1    
   107   53  176 1    
   108   53  177 1    
   109   53  178 1    
   110   54   55 am   BACKBONE|DICT|INTERRES
   111   54  179 1    
   112   55   56 2    
   113   55   57 1    
   114   57   58 1    
   115   57   59 1    
   116   57  180 1    
   117   58  181 1    
   118   58  182 1    
   119   58  183 1    
   120   59   60 am   BACKBONE|DICT|INTERRES
   121   59  184 1    
   122   60   61 2    
   123   60   62 1    
   124   62   63 1    
   125   62   64 1    
   126   62  185 1    
   127   63  186 1    
   128   63  187 1    
   129   63  188 1    
   130   64   65 am   BACKBONE|DICT|INTERRES
   131   64  189 1    
   132   65   66 2    
   133   67   68 2    
   134   67   69 am   BACKBONE|DICT|INTERRES
   135   69   70 1    
   136   69  190 1    
   137   70   71 1    
   138   70   72 1    
   139   70  191 1    
   140   71  192 1    
   141   71  193 1    
   142   71  194 1    
   143   72   73 2    
   144   72   74 am   BACKBONE|DICT|INTERRES
   145   74   75 1    
   146   74  195 1    
   147   75   76 1    
   148   75   77 1    
   149   75  196 1    
   150   76  197 1    
   151   76  198 1    
   152   76  199 1    
   153   77   78 2    
   154   77   79 am   BACKBONE|DICT|INTERRES
   155   79   80 1    
   156   79  200 1    
   157   80   81 1    
   158   80   82 1    
   159   80  201 1    
   160   81  202 1    
   161   81  203 1    
   162   81  204 1    
   163   82   83 2    
   164   82   84 am   BACKBONE|DICT|INTERRES
   165   84   85 1    
   166   84  205 1    
   167   85   86 1    
   168   85   87 1    
   169   85  206 1    
   170   86  207 1    
   171   86  208 1    
   172   86  209 1    
   173   87   88 2    
   174   87   89 am   BACKBONE|DICT|INTERRES
   175   89   90 1    
   176   89  210 1    
   177   90   91 1    
   178   90   92 1    
   179   90  211 1    
   180   91  212 1    
   181   91  213 1    
   182   91  214 1    
   183   92   93 2    
   184   92   94 am   BACKBONE|DICT|INTERRES
   185   94   95 1    
   186   94  215 1    
   187   95   96 1    
   188   95   97 1    
   189   95  216 1    
   190   96  217 1    
   191   96  218 1    
   192   96  219 1    
   193   97   98 2    
   194   97   99 am   BACKBONE|DICT|INTERRES
   195   99  100 1    
   196   99  220 1    
   197  100  101 1    
   198  100  102 1    
   199  100  221 1    
   200  101  222 1    
   201  101  223 1    
   202  101  224 1    
   203  102  103 2    
   204  102  104 am   BACKBONE|DICT|INTERRES
   205  104  105 1    
   206  104  225 1    
   207  105  106 1    
   208  105  107 1    
   209  105  226 1    
   210  106  227 1    
   211  106  228 1    
   212  106  229 1    
   213  107  108 2    
   214  107  109 am   BACKBONE|DICT|INTERRES
   215  109  110 1    
   216  109  230 1    
   217  110  111 1    
   218  110  112 1    
   219  110  231 1    
   220  111  232 1    
   221  111  233 1    
   222  111  234 1    
   223  112  113 2    
   224  112  114 am   BACKBONE|DICT|INTERRES
   225  114  115 1    
   226  114  235 1    
   227  115  116 1    
   228  115  117 1    
   229  115  236 1    
   230  116  237 1    
   231  116  238 1    
   232  116  239 1    
   233  117  118 2    
   234  117  119 am   BACKBONE|DICT|INTERRES
   235  119  120 1    
   236  119  240 1    
   237  120  121 1    
   238  120  124 1    
   239  120  241 1    
   240  121  122 am   BACKBONE|DICT|INTERRES
   241  121  123 2    
   242  122  242 1    
   243  122  243 1    
   244  124  125 1    
   245  124  244 1    
   246  124  245 1    
   247  125  126 1    
   248  126  246 1    
   249  126  247 1    
@<TRIPOS>SUBSTRUCTURE
     1 UNK         1 GROUP             0       ****    0 ROOT    
