@<TRIPOS>MOLECULE
3R540
247   249    1
SMALL
USER_CHARGES


@<TRIPOS>ATOM
      1 CA         -6.1503  -16.6576  -51.1478 C.3       0 UNK        -0.1800 
      2 C          -5.5017  -15.2939  -50.9653 C.2       0 UNK         0.5000 
      3 O          -6.1802  -14.2753  -51.0951 O.2       0 UNK        -0.5000 
      4 N          -4.2001  -15.2693  -50.6462 N.am      1 UNK        -0.5000 
      5 CA         -3.4844  -14.0640  -50.2082 C.3       1 UNK         0.1400 
      6 C6         -1.9613  -14.1145  -50.4916 C.3       23 UNK        -0.0398 
      7 S7         -1.0713  -15.5547  -49.8063 S.3       23 UNK        -0.2404 
      8 C8          0.4791  -15.4422  -50.7594 C.3       23 UNK        -0.0205 
      9 C9          1.4055  -16.6213  -50.4956 C.ar      23 UNK        -0.0193 
     10 C10         1.3963  -17.7303  -51.3469 C.ar      23 UNK        -0.1150 
     11 C11         2.2410  -18.8174  -51.1069 C.ar      23 UNK        -0.0193 
     12 C12         3.1195  -18.7778  -50.0228 C.ar      23 UNK        -0.1150 
     13 C13         3.1298  -17.6847  -49.1519 C.ar      23 UNK        -0.0193 
     14 C14         2.2807  -16.6027  -49.4059 C.ar      23 UNK        -0.1150 
     15 C15         4.0419  -17.6658  -47.9284 C.3       23 UNK        -0.0205 
     16 S16         4.0713  -19.2357  -46.9901 S.3       23 UNK        -0.2404 
     17 C17         2.2974  -19.6043  -46.7432 C.3       23 UNK        -0.0398 
     18 CA          1.8887  -20.9561  -47.3875 C.3       11 UNK         0.1400 
     19 N           2.5881  -22.0790  -46.7637 N.am      11 UNK        -0.5000 
     20 C           2.8341  -23.2719  -47.3184 C.2       10 UNK         0.5000 
     21 O           2.5055  -23.5731  -48.4663 O.2       10 UNK        -0.5000 
     22 CA          3.5211  -24.3107  -46.4187 C.3       10 UNK         0.1400 
     23 CB          5.0151  -23.9876  -46.2551 C.3       10 UNK        -0.1800 
     24 N           2.8834  -24.3346  -45.1030 N.am      10 UNK        -0.5000 
     25 C           1.9254  -25.1949  -44.7314 C.2       9 UNK         0.5000 
     26 O           1.5444  -26.1384  -45.4250 O.2       9 UNK        -0.5000 
     27 CA          1.2707  -24.9584  -43.3540 C.3       9 UNK         0.1400 
     28 CB          2.0238  -25.7299  -42.2597 C.3       9 UNK        -0.1800 
     29 N           1.2108  -23.5425  -42.9856 N.am      9 UNK        -0.5000 
     30 C           0.4552  -22.6263  -43.6075 C.2       8 UNK         0.5000 
     31 O          -0.3692  -22.9111  -44.4753 O.2       8 UNK        -0.5000 
     32 CA          0.6592  -21.1469  -43.2115 C.3       8 UNK         0.1400 
     33 CB         -0.5021  -20.6721  -42.3264 C.3       8 UNK        -0.1800 
     34 N           1.9313  -20.8392  -42.5390 N.am      8 UNK        -0.5000 
     35 C           3.1601  -21.0656  -43.0301 C.2       7 UNK         0.5000 
     36 O           3.3626  -21.6333  -44.1041 O.2       7 UNK        -0.5000 
     37 CA          4.3559  -20.6323  -42.1548 C.3       7 UNK         0.1400 
     38 CB          5.6812  -20.5645  -42.9439 C.3       7 UNK        -0.1800 
     39 N           4.1139  -19.3888  -41.4139 N.am      7 UNK        -0.5000 
     40 C           3.9016  -18.1716  -41.9332 C.2       6 UNK         0.5000 
     41 O           3.9174  -17.9129  -43.1377 O.2       6 UNK        -0.5000 
     42 CA          3.6022  -17.0477  -40.9253 C.3       6 UNK         0.1400 
     43 CB          4.6205  -15.9026  -41.0447 C.3       6 UNK        -0.1800 
     44 N           2.2590  -16.5236  -41.1504 N.am      6 UNK        -0.5000 
     45 C           1.1283  -17.1909  -40.8839 C.2       5 UNK         0.5000 
     46 O           1.0959  -18.2708  -40.2915 O.2       5 UNK        -0.5000 
     47 CA         -0.1826  -16.5549  -41.3858 C.3       5 UNK         0.1400 
     48 CB         -0.7847  -15.6355  -40.3131 C.3       5 UNK        -0.1800 
     49 N          -0.0220  -15.7974  -42.6292 N.am      5 UNK        -0.5000 
     50 C           0.3327  -16.3109  -43.8142 C.2       4 UNK         0.5000 
     51 O           0.5785  -17.5050  -43.9813 O.2       4 UNK        -0.5000 
     52 CA          0.4262  -15.3247  -45.0023 C.3       4 UNK         0.1400 
     53 CB          0.6146  -16.0414  -46.3483 C.3       4 UNK        -0.1800 
     54 N          -0.7270  -14.4305  -45.1282 N.am      4 UNK        -0.5000 
     55 C          -1.0178  -13.3807  -44.3499 C.2       3 UNK         0.5000 
     56 O          -0.3472  -13.0609  -43.3672 O.2       3 UNK        -0.5000 
     57 CA         -2.2556  -12.5418  -44.7240 C.3       3 UNK         0.1400 
     58 CB         -1.8273  -11.1715  -45.2717 C.3       3 UNK        -0.1800 
     59 N          -3.1403  -13.1755  -45.7044 N.am      3 UNK        -0.5000 
     60 C          -3.9510  -14.2128  -45.4743 C.2       2 UNK         0.5000 
     61 O          -3.9895  -14.8198  -44.4047 O.2       2 UNK        -0.5000 
     62 CA         -4.8743  -14.6587  -46.6248 C.3       2 UNK         0.1400 
     63 CB         -6.1668  -13.8224  -46.6480 C.3       2 UNK        -0.1800 
     64 N          -4.2620  -14.7167  -47.9609 N.am      2 UNK        -0.5000 
     65 C          -3.8107  -13.7164  -48.7377 C.2       1 UNK         0.5000 
     66 O          -3.6882  -12.5516  -48.3566 O.2       1 UNK        -0.5000 
     67 C           0.3651  -21.1959  -47.3422 C.2       11 UNK         0.5000 
     68 O          -0.3621  -20.4396  -46.6995 O.2       11 UNK        -0.5000 
     69 N          -0.0948  -22.2594  -48.0183 N.am      12 UNK        -0.5000 
     70 CA         -1.4852  -22.7295  -48.0376 C.3       12 UNK         0.1400 
     71 CB         -1.5699  -24.0244  -48.8566 C.3       12 UNK        -0.1800 
     72 C          -2.4971  -21.6956  -48.5662 C.2       12 UNK         0.5000 
     73 O          -3.6718  -21.7529  -48.2051 O.2       12 UNK        -0.5000 
     74 N          -2.0192  -20.7302  -49.3614 N.am      13 UNK        -0.5000 
     75 CA         -2.7632  -19.5596  -49.8266 C.3       13 UNK         0.1400 
     76 CB         -1.9246  -18.8432  -50.8880 C.3       13 UNK        -0.1800 
     77 C          -3.1967  -18.5857  -48.7052 C.2       13 UNK         0.5000 
     78 O          -3.8952  -17.6115  -48.9910 O.2       13 UNK        -0.5000 
     79 N          -2.8364  -18.8604  -47.4432 N.am      14 UNK        -0.5000 
     80 CA         -3.3653  -18.2412  -46.2257 C.3       14 UNK         0.1400 
     81 CB         -2.4617  -18.6337  -45.0471 C.3       14 UNK        -0.1800 
     82 C          -4.8495  -18.6031  -45.9640 C.2       14 UNK         0.5000 
     83 O          -5.1916  -19.0893  -44.8860 O.2       14 UNK        -0.5000 
     84 N          -5.6993  -18.3723  -46.9733 N.am      15 UNK        -0.5000 
     85 CA         -7.1532  -18.5526  -47.0369 C.3       15 UNK         0.1400 
     86 CB         -7.8609  -17.6993  -45.9647 C.3       15 UNK        -0.1800 
     87 C          -7.6535  -20.0136  -47.0302 C.2       15 UNK         0.5000 
     88 O          -8.8527  -20.2211  -47.2236 O.2       15 UNK        -0.5000 
     89 N          -6.7672  -21.0010  -46.8366 N.am      16 UNK        -0.5000 
     90 CA         -7.1021  -22.4242  -46.9281 C.3       16 UNK         0.1400 
     91 CB         -6.0687  -23.2617  -46.1577 C.3       16 UNK        -0.1800 
     92 C          -7.2179  -22.8685  -48.3971 C.2       16 UNK         0.5000 
     93 O          -8.2153  -23.4860  -48.7734 O.2       16 UNK        -0.5000 
     94 N          -6.2130  -22.5051  -49.2002 N.am      17 UNK        -0.5000 
     95 CA         -6.1960  -22.6214  -50.6546 C.3       17 UNK         0.1400 
     96 CB         -4.8555  -23.2444  -51.0830 C.3       17 UNK        -0.1800 
     97 C          -6.3760  -21.2302  -51.2894 C.2       17 UNK         0.5000 
     98 O          -6.3659  -20.2128  -50.5896 O.2       17 UNK        -0.5000 
     99 N          -6.5285  -21.2169  -52.6189 N.am      18 UNK        -0.5000 
    100 CA        -6.5827  -20.0105  -53.4454 C.3       18 UNK         0.1400 
    101 CB        -7.0881  -20.4001  -54.8444 C.3       18 UNK        -0.1800 
    102 C         -5.2214  -19.2884  -53.5299 C.2       18 UNK         0.5000 
    103 O         -4.1922  -19.8391  -53.1291 O.2       18 UNK        -0.5000 
    104 N         -5.2430  -18.0581  -54.0600 N.am      19 UNK        -0.5000 
    105 CA        -4.0795  -17.1844  -54.2156 C.3       19 UNK         0.1400 
    106 CB        -4.5257  -15.8437  -54.8186 C.3       19 UNK        -0.1800 
    107 C         -2.9725  -17.8395  -55.0624 C.2       19 UNK         0.5000 
    108 O         -3.1991  -18.1429  -56.2351 O.2       19 UNK        -0.5000 
    109 N         -1.8186  -18.0713  -54.4225 N.am      20 UNK        -0.5000 
    110 CA        -0.6233  -18.7442  -54.9418 C.3       20 UNK         0.1400 
    111 CB        -0.0216  -17.9705  -56.1331 C.3       20 UNK        -0.1800 
    112 C         -0.8005  -20.2486  -55.2459 C.2       20 UNK         0.5000 
    113 O          0.1051  -20.8490  -55.8266 O.2       20 UNK        -0.5000 
    114 N         -1.9132  -20.8637  -54.8182 N.am      21 UNK        -0.5000 
    115 CA        -2.2177  -22.2830  -55.0272 C.3       21 UNK         0.1400 
    116 CB        -3.7416  -22.4654  -55.1270 C.3       21 UNK        -0.1800 
    117 C         -1.5782  -23.1775  -53.9439 C.2       21 UNK         0.5000 
    118 O         -2.2470  -24.0417  -53.3751 O.2       21 UNK        -0.5000 
    119 N         -0.2884  -22.9489  -53.6753 N.am      22 UNK        -0.5000 
    120 CA         0.5142  -23.6863  -52.6866 C.3       22 UNK         0.1400 
    121 C          1.0628  -25.0521  -53.1962 C.2       22 UNK         0.5000 
    122 N          0.9258  -25.3956  -54.4714 N.am      22 UNK        -0.7600 
    123 O          1.6166  -25.8221  -52.4167 O.2       22 UNK        -0.5000 
    124 C124        1.6543  -22.8126  -52.1067 C.3       23 UNK        -0.0398 
    125 S125        1.0484  -21.2870  -51.3058 S.3       23 UNK        -0.2404 
    126 C126        2.1970  -20.0524  -51.9900 C.3       23 UNK        -0.0205 
    127 H127       -5.4089  -17.4548  -51.1943 H         1 UNK         0.0600 
    128 H128       -6.7362  -16.6780  -52.0660 H         1 UNK         0.0600 
    129 H129       -6.8181  -16.8685  -50.3129 H         1 UNK         0.0600 
    130 H130       -3.7240  -16.1465  -50.4704 H         1 UNK         0.3000 
    131 H131       -3.8665  -13.2255  -50.7948 H         1 UNK         0.0600 
    132 H132       -1.4767  -13.2050  -50.1319 H         1 UNK         0.0800 
    133 H133       -1.8154  -14.1137  -51.5725 H         1 UNK         0.0800 
    134 H134        0.9878  -14.5102  -50.5084 H         1 UNK         0.0800 
    135 H135        0.2478  -15.3879  -51.8243 H         1 UNK         0.0800 
    136 H136        0.7143  -17.7527  -52.1824 H         1 UNK         0.1150 
    137 H137        3.7740  -19.6177  -49.8373 H         1 UNK         0.1150 
    138 H138        2.2942  -15.7441  -48.7508 H         1 UNK         0.1150 
    139 H139        3.7506  -16.8667  -47.2457 H         1 UNK         0.0800 
    140 H140        5.0566  -17.4348  -48.2541 H         1 UNK         0.0800 
    141 H141        1.6966  -18.7947  -47.1575 H         1 UNK         0.0800 
    142 H142        2.0966  -19.6029  -45.6713 H         1 UNK         0.0800 
    143 H143        2.1667  -20.9205  -48.4419 H         1 UNK         0.0600 
    144 H144        2.9002  -21.9160  -45.8086 H         1 UNK         0.3000 
    145 H145        3.4368  -25.2873  -46.8998 H         1 UNK         0.0600 
    146 H146        5.5159  -23.9612  -47.2236 H         1 UNK         0.0600 
    147 H147        5.5157  -24.7434  -45.6499 H         1 UNK         0.0600 
    148 H148        5.1726  -23.0195  -45.7775 H         1 UNK         0.0600 
    149 H149        3.0944  -23.5507  -44.4949 H         1 UNK         0.3000 
    150 H150        0.2491  -25.3415  -43.4015 H         1 UNK         0.0600 
    151 H151        3.0503  -25.3770  -42.1515 H         1 UNK         0.0600 
    152 H152        2.0657  -26.7949  -42.4920 H         1 UNK         0.0600 
    153 H153        1.5292  -25.6285  -41.2935 H         1 UNK         0.0600 
    154 H154        1.8471  -23.2297  -42.2680 H         1 UNK         0.3000 
    155 H155        0.6307  -20.5663  -44.1342 H         1 UNK         0.0600 
    156 H156       -0.4683  -19.5929  -42.1893 H         1 UNK         0.0600 
    157 H157       -0.4784  -21.1410  -41.3422 H         1 UNK         0.0600 
    158 H158       -1.4660  -20.9046  -42.7813 H         1 UNK         0.0600 
    159 H159        1.8561  -20.3495  -41.6578 H         1 UNK         0.3000 
    160 H160        4.4693  -21.4132  -41.4017 H         1 UNK         0.0600 
    161 H161        5.6211  -19.8672  -43.7802 H         1 UNK         0.0600 
    162 H162        5.9404  -21.5406  -43.3559 H         1 UNK         0.0600 
    163 H163        6.5074  -20.2537  -42.3047 H         1 UNK         0.0600 
    164 H164        4.0589  -19.4906  -40.4096 H         1 UNK         0.3000 
    165 H165        3.6561  -17.4451  -39.9094 H         1 UNK         0.0600 
    166 H166        4.4275  -15.1247  -40.3057 H         1 UNK         0.0600 
    167 H167        5.6351  -16.2660  -40.8771 H         1 UNK         0.0600 
    168 H168        4.5964  -15.4404  -42.0324 H         1 UNK         0.0600 
    169 H169        2.1910  -15.6655  -41.6765 H         1 UNK         0.3000 
    170 H170       -0.8923  -17.3613  -41.5780 H         1 UNK         0.0600 
    171 H171       -1.7529  -15.2450  -40.6273 H         1 UNK         0.0600 
    172 H172       -0.1338  -14.7867  -40.0992 H         1 UNK         0.0600 
    173 H173       -0.9402  -16.1754  -39.3781 H         1 UNK         0.0600 
    174 H174       -0.1938  -14.7970  -42.5890 H         1 UNK         0.3000 
    175 H175        1.3118  -14.7101  -44.8295 H         1 UNK         0.0600 
    176 H176        1.5335  -16.6259  -46.3464 H         1 UNK         0.0600 
    177 H177       -0.2108  -16.7187  -46.5710 H         1 UNK         0.0600 
    178 H178        0.6851  -15.3239  -47.1650 H         1 UNK         0.0600 
    179 H179       -1.3540  -14.6220  -45.8949 H         1 UNK         0.3000 
    180 H180       -2.8249  -12.3809  -43.8063 H         1 UNK         0.0600 
    181 H181       -1.2674  -11.2694  -46.2027 H         1 UNK         0.0600 
    182 H182       -1.1924  -10.6433  -44.5591 H         1 UNK         0.0600 
    183 H183       -2.6923  -10.5370  -45.4662 H         1 UNK         0.0600 
    184 H184       -3.1917  -12.7463  -46.6263 H         1 UNK         0.3000 
    185 H185       -5.1734  -15.6803  -46.3968 H         1 UNK         0.0600 
    186 H186       -6.6762  -13.8660  -45.6845 H         1 UNK         0.0600 
    187 H187       -5.9698  -12.7721  -46.8649 H         1 UNK         0.0600 
    188 H188       -6.8625  -14.1954  -47.3999 H         1 UNK         0.0600 
    189 H189       -4.2527  -15.6395  -48.3818 H         1 UNK         0.3000 
    190 H190        0.5899  -22.8381  -48.4933 H         1 UNK         0.3000 
    191 H191       -1.7635  -22.9562  -47.0065 H         1 UNK         0.0600 
    192 H192       -0.8859  -24.7824  -48.4742 H         1 UNK         0.0600 
    193 H193       -2.5762  -24.4439  -48.8176 H         1 UNK         0.0600 
    194 H194       -1.3309  -23.8488  -49.9047 H         1 UNK         0.0600 
    195 H195       -1.0396  -20.7645  -49.6054 H         1 UNK         0.3000 
    196 H196       -3.6769  -19.9160  -50.3044 H         1 UNK         0.0600 
    197 H197       -2.4574  -17.9865  -51.2996 H         1 UNK         0.0600 
    198 H198       -1.6816  -19.5094  -51.7162 H         1 UNK         0.0600 
    199 H199       -0.9934  -18.4834  -50.4557 H         1 UNK         0.0600 
    200 H200       -2.2016  -19.6363  -47.2908 H         1 UNK         0.3000 
    201 H201       -3.2996  -17.1598  -46.3454 H         1 UNK         0.0600 
    202 H202       -2.7365  -18.0960  -44.1388 H         1 UNK         0.0600 
    203 H203       -1.4223  -18.3989  -45.2641 H         1 UNK         0.0600 
    204 H204       -2.5165  -19.7023  -44.8348 H         1 UNK         0.0600 
    205 H205       -5.2772  -18.0376  -47.8359 H         1 UNK         0.3000 
    206 H206       -7.4447  -18.1539  -48.0098 H         1 UNK         0.0600 
    207 H207       -7.5508  -16.6560  -46.0210 H         1 UNK         0.0600 
    208 H208       -8.9429  -17.7210  -46.0992 H         1 UNK         0.0600 
    209 H209       -7.6533  -18.0587  -44.9567 H         1 UNK         0.0600 
    210 H210       -5.7973  -20.7625  -46.6880 H         1 UNK         0.3000 
    211 H211       -8.0721  -22.5869  -46.4531 H         1 UNK         0.0600 
    212 H212       -5.0639  -23.1545  -46.5638 H         1 UNK         0.0600 
    213 H213       -6.3236  -24.3214  -46.1956 H         1 UNK         0.0600 
    214 H214       -6.0352  -22.9731  -45.1070 H         1 UNK         0.0600 
    215 H215       -5.4230  -22.0074  -48.7969 H         1 UNK         0.3000 
    216 H216       -7.0091  -23.2655  -50.9951 H         1 UNK         0.0600 
    217 H217       -4.8674  -23.5143  -52.1391 H         1 UNK         0.0600 
    218 H218       -4.6419  -24.1545  -50.5224 H         1 UNK         0.0600 
    219 H219       -4.0222  -22.5568  -50.9365 H         1 UNK         0.0600 
    220 H220       -6.5020  -22.0933  -53.1175 H         1 UNK         0.3000 
    221 H221       -7.2995  -19.3207  -52.9948 H         1 UNK         0.0600 
    222 H222       -6.4126  -21.0983  -55.3383 H         1 UNK         0.0600 
    223 H223       -8.0709  -20.8689  -54.7904 H         1 UNK         0.0600 
    224 H224       -7.1855  -19.5271  -55.4907 H         1 UNK         0.0600 
    225 H225       -6.1176  -17.6947  -54.4084 H         1 UNK         0.3000 
    226 H226       -3.6875  -16.9832  -53.2169 H         1 UNK         0.0600 
    227 H227       -3.6784  -15.1659  -54.9303 H         1 UNK         0.0600 
    228 H228       -4.9743  -15.9743  -55.8042 H         1 UNK         0.0600 
    229 H229       -5.2559  -15.3459  -54.1802 H         1 UNK         0.0600 
    230 H230       -1.7636  -17.8052  -53.4507 H         1 UNK         0.3000 
    231 H231        0.1073  -18.7031  -54.1363 H         1 UNK         0.0600 
    232 H232       -0.6544  -18.0308  -57.0188 H         1 UNK         0.0600 
    233 H233        0.9560  -18.3694  -56.4059 H         1 UNK         0.0600 
    234 H234        0.1176  -16.9171  -55.8898 H         1 UNK         0.0600 
    235 H235       -2.5983  -20.3373  -54.2848 H         1 UNK         0.3000 
    236 H236       -1.7965  -22.5980  -55.9841 H         1 UNK         0.0600 
    237 H237       -4.2345  -22.2461  -54.1810 H         1 UNK         0.0600 
    238 H238       -4.1649  -21.8131  -55.8906 H         1 UNK         0.0600 
    239 H239       -3.9961  -23.4907  -55.3979 H         1 UNK         0.0600 
    240 H240        0.1894  -22.2337  -54.2089 H         1 UNK         0.3000 
    241 H241       -0.1430  -23.9394  -51.8546 H         1 UNK         0.0600 
    242 H242        0.4736  -24.7765  -55.1245 H         1 UNK         0.3800 
    243 H243        1.2808  -26.2850  -54.7867 H         1 UNK         0.3800 
    244 H244        2.3654  -22.5608  -52.8951 H         1 UNK         0.0800 
    245 H245        2.2178  -23.3675  -51.3543 H         1 UNK         0.0800 
    246 H246        3.1988  -20.4791  -52.0603 H         1 UNK         0.0800 
    247 H247        1.8997  -19.7944  -53.0066 H         1 UNK         0.0800 
@<TRIPOS>BOND
     1    1    2 1    
     2    1  127 1    
     3    1  128 1    
     4    1  129 1    
     5    2    3 2    
     6    2    4 am   BACKBONE|DICT|INTERRES
     7    4    5 1    
     8    4  130 1    
     9    5    6 1    
    10    5   65 1    
    11    5  131 1    
    12    6    7 1    
    13    6  132 1    
    14    6  133 1    
    15    7    8 1    
    16    8    9 1    
    17    8  134 1    
    18    8  135 1    
    19    9   10 ar   
    20    9   14 ar   
    21   10   11 ar   
    22   10  136 1    
    23   11   12 ar   
    24   11  126 1    
    25   12   13 ar   
    26   12  137 1    
    27   13   14 ar   
    28   13   15 1    
    29   14  138 1    
    30   15   16 1    
    31   15  139 1    
    32   15  140 1    
    33   16   17 1    
    34   17   18 1    
    35   17  141 1    
    36   17  142 1    
    37   18   19 1    
    38   18   67 1    
    39   18  143 1    
    40   19   20 am   BACKBONE|DICT|INTERRES
    41   19  144 1    
    42   20   21 2    
    43   20   22 1    
    44   22   23 1    
    45   22   24 1    
    46   22  145 1    
    47   23  146 1    
    48   23  147 1    
    49   23  148 1    
    50   24   25 am   BACKBONE|DICT|INTERRES
    51   24  149 1    
    52   25   26 2    
    53   25   27 1    
    54   27   28 1    
    55   27   29 1    
    56   27  150 1    
    57   28  151 1    
    58   28  152 1    
    59   28  153 1    
    60   29   30 am   BACKBONE|DICT|INTERRES
    61   29  154 1    
    62   30   31 2    
    63   30   32 1    
    64   32   33 1    
    65   32   34 1    
    66   32  155 1    
    67   33  156 1    
    68   33  157 1    
    69   33  158 1    
    70   34   35 am   BACKBONE|DICT|INTERRES
    71   34  159 1    
    72   35   36 2    
    73   35   37 1    
    74   37   38 1    
    75   37   39 1    
    76   37  160 1    
    77   38  161 1    
    78   38  162 1    
    79   38  163 1    
    80   39   40 am   BACKBONE|DICT|INTERRES
    81   39  164 1    
    82   40   41 2    
    83   40   42 1    
    84   42   43 1    
    85   42   44 1    
    86   42  165 1    
    87   43  166 1    
    88   43  167 1    
    89   43  168 1    
    90   44   45 am   BACKBONE|DICT|INTERRES
    91   44  169 1    
    92   45   46 2    
    93   45   47 1    
    94   47   48 1    
    95   47   49 1    
    96   47  170 1    
    97   48  171 1    
    98   48  172 1    
    99   48  173 1    
   100   49   50 am   BACKBONE|DICT|INTERRES
   101   49  174 1    
   102   50   51 2    
   103   50   52 1    
   104   52   53 1    
   105   52   54 1    
   106   52  175 1    
   107   53  176 1    
   108   53  177 1    
   109   53  178 1    
   110   54   55 am   BACKBONE|DICT|INTERRES
   111   54  179 1    
   112   55   56 2    
   113   55   57 1    
   114   57   58 1    
   115   57   59 1    
   116   57  180 1    
   117   58  181 1    
   118   58  182 1    
   119   58  183 1    
   120   59   60 am   BACKBONE|DICT|INTERRES
   121   59  184 1    
   122   60   61 2    
   123   60   62 1    
   124   62   63 1    
   125   62   64 1    
   126   62  185 1    
   127   63  186 1    
   128   63  187 1    
   129   63  188 1    
   130   64   65 am   BACKBONE|DICT|INTERRES
   131   64  189 1    
   132   65   66 2    
   133   67   68 2    
   134   67   69 am   BACKBONE|DICT|INTERRES
   135   69   70 1    
   136   69  190 1    
   137   70   71 1    
   138   70   72 1    
   139   70  191 1    
   140   71  192 1    
   141   71  193 1    
   142   71  194 1    
   143   72   73 2    
   144   72   74 am   BACKBONE|DICT|INTERRES
   145   74   75 1    
   146   74  195 1    
   147   75   76 1    
   148   75   77 1    
   149   75  196 1    
   150   76  197 1    
   151   76  198 1    
   152   76  199 1    
   153   77   78 2    
   154   77   79 am   BACKBONE|DICT|INTERRES
   155   79   80 1    
   156   79  200 1    
   157   80   81 1    
   158   80   82 1    
   159   80  201 1    
   160   81  202 1    
   161   81  203 1    
   162   81  204 1    
   163   82   83 2    
   164   82   84 am   BACKBONE|DICT|INTERRES
   165   84   85 1    
   166   84  205 1    
   167   85   86 1    
   168   85   87 1    
   169   85  206 1    
   170   86  207 1    
   171   86  208 1    
   172   86  209 1    
   173   87   88 2    
   174   87   89 am   BACKBONE|DICT|INTERRES
   175   89   90 1    
   176   89  210 1    
   177   90   91 1    
   178   90   92 1    
   179   90  211 1    
   180   91  212 1    
   181   91  213 1    
   182   91  214 1    
   183   92   93 2    
   184   92   94 am   BACKBONE|DICT|INTERRES
   185   94   95 1    
   186   94  215 1    
   187   95   96 1    
   188   95   97 1    
   189   95  216 1    
   190   96  217 1    
   191   96  218 1    
   192   96  219 1    
   193   97   98 2    
   194   97   99 am   BACKBONE|DICT|INTERRES
   195   99  100 1    
   196   99  220 1    
   197  100  101 1    
   198  100  102 1    
   199  100  221 1    
   200  101  222 1    
   201  101  223 1    
   202  101  224 1    
   203  102  103 2    
   204  102  104 am   BACKBONE|DICT|INTERRES
   205  104  105 1    
   206  104  225 1    
   207  105  106 1    
   208  105  107 1    
   209  105  226 1    
   210  106  227 1    
   211  106  228 1    
   212  106  229 1    
   213  107  108 2    
   214  107  109 am   BACKBONE|DICT|INTERRES
   215  109  110 1    
   216  109  230 1    
   217  110  111 1    
   218  110  112 1    
   219  110  231 1    
   220  111  232 1    
   221  111  233 1    
   222  111  234 1    
   223  112  113 2    
   224  112  114 am   BACKBONE|DICT|INTERRES
   225  114  115 1    
   226  114  235 1    
   227  115  116 1    
   228  115  117 1    
   229  115  236 1    
   230  116  237 1    
   231  116  238 1    
   232  116  239 1    
   233  117  118 2    
   234  117  119 am   BACKBONE|DICT|INTERRES
   235  119  120 1    
   236  119  240 1    
   237  120  121 1    
   238  120  124 1    
   239  120  241 1    
   240  121  122 am   BACKBONE|DICT|INTERRES
   241  121  123 2    
   242  122  242 1    
   243  122  243 1    
   244  124  125 1    
   245  124  244 1    
   246  124  245 1    
   247  125  126 1    
   248  126  246 1    
   249  126  247 1    
@<TRIPOS>SUBSTRUCTURE
     1 UNK         1 GROUP             0       ****    0 ROOT    
