@<TRIPOS>MOLECULE
3R540
247   249    1
SMALL
USER_CHARGES


@<TRIPOS>ATOM
      1 CA          2.0500   -9.8515  -48.4992 C.3       0 UNK        -0.1800 
      2 C           1.6462  -10.8285  -47.4044 C.2       0 UNK         0.5000 
      3 O           2.5066  -11.4858  -46.8190 O.2       0 UNK        -0.5000 
      4 N           0.3430  -10.9209  -47.1154 N.am      1 UNK        -0.5000 
      5 CA         -0.2500  -11.8061  -46.1047 C.3       1 UNK         0.1400 
      6 C6         -1.7072  -12.1987  -46.4694 C.3       23 UNK        -0.0398 
      7 S7         -1.8231  -13.0347  -48.0881 S.3       23 UNK        -0.2404 
      8 C8         -2.0778  -14.7606  -47.5786 C.3       23 UNK        -0.0205 
      9 C9         -1.8683  -15.7090  -48.7464 C.ar      23 UNK        -0.0193 
     10 C10        -2.9565  -16.2029  -49.4734 C.ar      23 UNK        -0.1150 
     11 C11        -2.7531  -17.0992  -50.5282 C.ar      23 UNK        -0.0193 
     12 C12        -1.4521  -17.4800  -50.8642 C.ar      23 UNK        -0.1150 
     13 C13        -0.3599  -16.9973  -50.1423 C.ar      23 UNK        -0.0193 
     14 C14        -0.5734  -16.1091  -49.0857 C.ar      23 UNK        -0.1150 
     15 C15         1.0468  -17.4571  -50.4907 C.3       23 UNK        -0.0205 
     16 S16         1.2948  -19.2279  -50.1411 S.3       23 UNK        -0.2404 
     17 C17         0.9968  -19.3005  -48.3415 C.3       23 UNK        -0.0398 
     18 CA          0.0310  -20.4355  -47.9283 C.3       11 UNK         0.1400 
     19 N           0.1751  -20.7512  -46.5069 N.am      11 UNK        -0.5000 
     20 C          -0.3042  -21.8517  -45.9148 C.2       10 UNK         0.5000 
     21 O          -0.9038  -22.7441  -46.5137 O.2       10 UNK        -0.5000 
     22 CA         -0.1139  -21.9503  -44.3902 C.3       10 UNK         0.1400 
     23 CB          1.3117  -22.4057  -44.0453 C.3       10 UNK        -0.1800 
     24 N          -0.4101  -20.6913  -43.7032 N.am      10 UNK        -0.5000 
     25 C          -1.6219  -20.1180  -43.6758 C.2       9 UNK         0.5000 
     26 O          -2.6201  -20.6102  -44.1997 O.2       9 UNK        -0.5000 
     27 CA         -1.7378  -18.7505  -42.9814 C.3       9 UNK         0.1400 
     28 CB         -1.8120  -18.9208  -41.4569 C.3       9 UNK        -0.1800 
     29 N          -0.6458  -17.8409  -43.3283 N.am      9 UNK        -0.5000 
     30 C          -0.4061  -17.3754  -44.5628 C.2       8 UNK         0.5000 
     31 O          -1.0981  -17.6432  -45.5428 O.2       8 UNK        -0.5000 
     32 CA          0.8511  -16.5089  -44.7489 C.3       8 UNK         0.1400 
     33 CB          0.6213  -15.0832  -44.2245 C.3       8 UNK        -0.1800 
     34 N           2.0268  -17.0888  -44.1021 N.am      8 UNK        -0.5000 
     35 C           2.5466  -18.2906  -44.3901 C.2       7 UNK         0.5000 
     36 O           2.1211  -19.0296  -45.2770 O.2       7 UNK        -0.5000 
     37 CA          3.7024  -18.7701  -43.4987 C.3       7 UNK         0.1400 
     38 CB          5.0321  -18.1382  -43.9357 C.3       7 UNK        -0.1800 
     39 N           3.4516  -18.4774  -42.0878 N.am      7 UNK        -0.5000 
     40 C           2.5171  -19.0887  -41.3461 C.2       6 UNK         0.5000 
     41 O           1.7866  -19.9860  -41.7673 O.2       6 UNK        -0.5000 
     42 CA          2.3462  -18.5825  -39.9024 C.3       6 UNK         0.1400 
     43 CB          3.4101  -19.1964  -38.9802 C.3       6 UNK        -0.1800 
     44 N           2.4023  -17.1224  -39.8083 N.am      6 UNK        -0.5000 
     45 C           1.4788  -16.3013  -40.3265 C.2       5 UNK         0.5000 
     46 O           0.4770  -16.6906  -40.9244 O.2       5 UNK        -0.5000 
     47 CA          1.7337  -14.7900  -40.1922 C.3       5 UNK         0.1400 
     48 CB          1.2275  -14.2726  -38.8380 C.3       5 UNK        -0.1800 
     49 N           3.1328  -14.3943  -40.3674 N.am      5 UNK        -0.5000 
     50 C           3.8854  -14.6345  -41.4496 C.2       4 UNK         0.5000 
     51 O           3.5166  -15.3306  -42.3964 O.2       4 UNK        -0.5000 
     52 CA          5.2542  -13.9290  -41.4863 C.3       4 UNK         0.1400 
     53 CB          6.1022  -14.3335  -42.7047 C.3       4 UNK        -0.1800 
     54 N           5.0538  -12.4819  -41.5119 N.am      4 UNK        -0.5000 
     55 C           4.8559  -11.7035  -40.4431 C.2       3 UNK         0.5000 
     56 O           4.8952  -12.1191  -39.2842 O.2       3 UNK        -0.5000 
     57 CA          4.4918  -10.2326  -40.7134 C.3       3 UNK         0.1400 
     58 CB          5.6189   -9.4800  -41.4491 C.3       3 UNK        -0.1800 
     59 N           3.1951  -10.0778  -41.3875 N.am      3 UNK        -0.5000 
     60 C           2.8464  -10.4389  -42.6309 C.2       2 UNK         0.5000 
     61 O           3.6131  -10.9633  -43.4436 O.2       2 UNK        -0.5000 
     62 CA          1.3907  -10.1500  -43.0270 C.3       2 UNK         0.1400 
     63 CB          1.1516   -8.6372  -43.1960 C.3       2 UNK        -0.1800 
     64 N           1.0747  -10.8365  -44.2755 N.am      2 UNK        -0.5000 
     65 C          -0.1496  -11.1668  -44.6994 C.2       1 UNK         0.5000 
     66 O          -1.1697  -10.9523  -44.0417 O.2       1 UNK        -0.5000 
     67 C          -1.4428  -20.1634  -48.3109 C.2       11 UNK         0.5000 
     68 O          -1.8879  -20.6224  -49.3619 O.2       11 UNK        -0.5000 
     69 N          -2.2001  -19.4931  -47.4296 N.am      12 UNK        -0.5000 
     70 CA         -3.6432  -19.2986  -47.5737 C.3       12 UNK         0.1400 
     71 CB         -4.1460  -18.2888  -46.5318 C.3       12 UNK        -0.1800 
     72 C          -4.4292  -20.6193  -47.4895 C.2       12 UNK         0.5000 
     73 O          -5.3141  -20.8479  -48.3134 O.2       12 UNK        -0.5000 
     74 N          -4.0738  -21.4817  -46.5261 N.am      13 UNK        -0.5000 
     75 CA         -4.6642  -22.8096  -46.3378 C.3       13 UNK         0.1400 
     76 CB         -4.1497  -23.4237  -45.0277 C.3       13 UNK        -0.1800 
     77 C          -4.4111  -23.7622  -47.5212 C.2       13 UNK         0.5000 
     78 O          -5.2866  -24.5629  -47.8514 O.2       13 UNK        -0.5000 
     79 N          -3.2467  -23.6295  -48.1734 N.am      14 UNK        -0.5000 
     80 CA         -2.8542  -24.3914  -49.3622 C.3       14 UNK         0.1400 
     81 CB         -1.3844  -24.1027  -49.7012 C.3       14 UNK        -0.1800 
     82 C          -3.7565  -24.1644  -50.5923 C.2       14 UNK         0.5000 
     83 O          -3.7506  -25.0004  -51.4944 O.2       14 UNK        -0.5000 
     84 N          -4.5640  -23.0913  -50.6007 N.am      15 UNK        -0.5000 
     85 CA         -5.5751  -22.8244  -51.6292 C.3       15 UNK         0.1400 
     86 CB         -6.1569  -21.4196  -51.4257 C.3       15 UNK        -0.1800 
     87 C          -6.6999  -23.8802  -51.6736 C.2       15 UNK         0.5000 
     88 O          -7.3641  -24.0072  -52.7020 O.2       15 UNK        -0.5000 
     89 N          -6.8605  -24.6653  -50.5957 N.am      16 UNK        -0.5000 
     90 CA         -7.7174  -25.8535  -50.5490 C.3       16 UNK         0.1400 
     91 CB         -7.7993  -26.3600  -49.1017 C.3       16 UNK        -0.1800 
     92 C          -7.2443  -26.9835  -51.4898 C.2       16 UNK         0.5000 
     93 O          -8.0618  -27.8111  -51.8927 O.2       16 UNK        -0.5000 
     94 N          -5.9525  -26.9790  -51.8518 N.am      17 UNK        -0.5000 
     95 CA         -5.3460  -27.8535  -52.8565 C.3       17 UNK         0.1400 
     96 CB         -3.9851  -28.3478  -52.3353 C.3       17 UNK        -0.1800 
     97 C          -5.2347  -27.1544  -54.2305 C.2       17 UNK         0.5000 
     98 O          -4.4534  -27.5949  -55.0752 O.2       17 UNK        -0.5000 
     99 N          -6.0278  -26.0912  -54.4391 N.am      18 UNK        -0.5000 
    100 CA        -6.1884  -25.3127  -55.6670 C.3       18 UNK         0.1400 
    101 CB        -6.8867  -26.1592  -56.7556 C.3       18 UNK        -0.1800 
    102 C         -4.8679  -24.6620  -56.1194 C.2       18 UNK         0.5000 
    103 O         -4.3910  -23.7444  -55.4477 O.2       18 UNK        -0.5000 
    104 N         -4.3047  -25.1485  -57.2346 N.am      19 UNK        -0.5000 
    105 CA        -3.1138  -24.6423  -57.9263 C.3       19 UNK         0.1400 
    106 CB        -2.9184  -25.4554  -59.2160 C.3       19 UNK        -0.1800 
    107 C         -1.8136  -24.6227  -57.0957 C.2       19 UNK         0.5000 
    108 O         -0.8368  -24.0074  -57.5254 O.2       19 UNK        -0.5000 
    109 N         -1.8215  -25.2631  -55.9188 N.am      20 UNK        -0.5000 
    110 CA        -0.7864  -25.1443  -54.8916 C.3       20 UNK         0.1400 
    111 CB        -1.0946  -26.1385  -53.7639 C.3       20 UNK        -0.1800 
    112 C         -0.6508  -23.7134  -54.3248 C.2       20 UNK         0.5000 
    113 O          0.4333  -23.3559  -53.8620 O.2       20 UNK        -0.5000 
    114 N         -1.7289  -22.9199  -54.3902 N.am      21 UNK        -0.5000 
    115 CA        -1.7578  -21.5087  -54.0243 C.3       21 UNK         0.1400 
    116 CB        -1.8420  -21.3488  -52.4938 C.3       21 UNK        -0.1800 
    117 C         -2.8804  -20.8059  -54.8097 C.2       21 UNK         0.5000 
    118 O         -2.8862  -20.8758  -56.0396 O.2       21 UNK        -0.5000 
    119 N         -3.7918  -20.1271  -54.1025 N.am      22 UNK        -0.5000 
    120 CA        -4.8654  -19.2839  -54.6613 C.3       22 UNK         0.1400 
    121 C         -6.0791  -20.0494  -55.2726 C.2       22 UNK         0.5000 
    122 N         -6.0870  -21.3727  -55.3468 N.am      22 UNK        -0.7600 
    123 O         -7.0472  -19.4244  -55.6974 O.2       22 UNK        -0.5000 
    124 C124       -5.3473  -18.2137  -53.6422 C.3       23 UNK        -0.0398 
    125 S125       -4.0027  -17.1564  -53.0028 S.3       23 UNK        -0.2404 
    126 C126       -3.9302  -17.7096  -51.2713 C.3       23 UNK        -0.0205 
    127 H127        2.5648  -10.3799  -49.3016 H         1 UNK         0.0600 
    128 H128        1.1861   -9.3421  -48.9269 H         1 UNK         0.0600 
    129 H129        2.7259   -9.0967  -48.0974 H         1 UNK         0.0600 
    130 H130       -0.3139  -10.3440  -47.6212 H         1 UNK         0.3000 
    131 H131        0.3335  -12.7280  -46.0709 H         1 UNK         0.0600 
    132 H132       -2.3437  -11.3128  -46.5035 H         1 UNK         0.0800 
    133 H133       -2.1351  -12.8468  -45.7024 H         1 UNK         0.0800 
    134 H134       -1.3819  -15.0176  -46.7795 H         1 UNK         0.0800 
    135 H135       -3.0808  -14.8746  -47.1650 H         1 UNK         0.0800 
    136 H136       -3.9601  -15.9060  -49.2037 H         1 UNK         0.1150 
    137 H137       -1.2878  -18.1740  -51.6748 H         1 UNK         0.1150 
    138 H138        0.2665  -15.7330  -48.5187 H         1 UNK         0.1150 
    139 H139        1.2300  -17.2758  -51.5506 H         1 UNK         0.0800 
    140 H140        1.7932  -16.8770  -49.9458 H         1 UNK         0.0800 
    141 H141        0.6544  -18.3421  -47.9508 H         1 UNK         0.0800 
    142 H142        1.9733  -19.4683  -47.8858 H         1 UNK         0.0800 
    143 H143        0.3333  -21.3337  -48.4717 H         1 UNK         0.0600 
    144 H144        0.6936  -20.0794  -45.9462 H         1 UNK         0.3000 
    145 H145       -0.8093  -22.7053  -44.0180 H         1 UNK         0.0600 
    146 H146        1.4261  -22.5608  -42.9724 H         1 UNK         0.0600 
    147 H147        1.5507  -23.3490  -44.5380 H         1 UNK         0.0600 
    148 H148        2.0563  -21.6730  -44.3576 H         1 UNK         0.0600 
    149 H149        0.3589  -20.2455  -43.2135 H         1 UNK         0.3000 
    150 H150       -2.6697  -18.2896  -43.3147 H         1 UNK         0.0600 
    151 H151       -2.6186  -19.5997  -41.1773 H         1 UNK         0.0600 
    152 H152       -2.0045  -17.9679  -40.9639 H         1 UNK         0.0600 
    153 H153       -0.8844  -19.3257  -41.0510 H         1 UNK         0.0600 
    154 H154       -0.0525  -17.5359  -42.5614 H         1 UNK         0.3000 
    155 H155        1.0564  -16.4493  -45.8198 H         1 UNK         0.0600 
    156 H156        0.4702  -15.0716  -43.1459 H         1 UNK         0.0600 
    157 H157       -0.2625  -14.6359  -44.6785 H         1 UNK         0.0600 
    158 H158        1.4713  -14.4381  -44.4487 H         1 UNK         0.0600 
    159 H159        2.4748  -16.5279  -43.3811 H         1 UNK         0.3000 
    160 H160        3.7884  -19.8529  -43.6121 H         1 UNK         0.0600 
    161 H161        5.8580  -18.4818  -43.3128 H         1 UNK         0.0600 
    162 H162        4.9996  -17.0501  -43.8830 H         1 UNK         0.0600 
    163 H163        5.2678  -18.4069  -44.9661 H         1 UNK         0.0600 
    164 H164        3.9608  -17.7037  -41.6869 H         1 UNK         0.3000 
    165 H165        1.3642  -18.9074  -39.5515 H         1 UNK         0.0600 
    166 H166        3.2460  -18.9070  -37.9421 H         1 UNK         0.0600 
    167 H167        3.3794  -20.2861  -39.0214 H         1 UNK         0.0600 
    168 H168        4.4172  -18.8854  -39.2607 H         1 UNK         0.0600 
    169 H169        3.1994  -16.7191  -39.3384 H         1 UNK         0.3000 
    170 H170        1.1596  -14.2928  -40.9760 H         1 UNK         0.0600 
    171 H171        0.1787  -14.5320  -38.6874 H         1 UNK         0.0600 
    172 H172        1.7938  -14.6964  -38.0078 H         1 UNK         0.0600 
    173 H173        1.3043  -13.1868  -38.7770 H         1 UNK         0.0600 
    174 H174        3.5248  -13.7930  -39.6528 H         1 UNK         0.3000 
    175 H175        5.8029  -14.2112  -40.5854 H         1 UNK         0.0600 
    176 H176        5.5972  -14.1041  -43.6441 H         1 UNK         0.0600 
    177 H177        7.0610  -13.8147  -42.7058 H         1 UNK         0.0600 
    178 H178        6.3140  -15.4029  -42.6936 H         1 UNK         0.0600 
    179 H179        4.8745  -12.0660  -42.4213 H         1 UNK         0.3000 
    180 H180        4.3760   -9.7572  -39.7380 H         1 UNK         0.0600 
    181 H181        5.8135   -9.8865  -42.4416 H         1 UNK         0.0600 
    182 H182        6.5523   -9.5374  -40.8878 H         1 UNK         0.0600 
    183 H183        5.3743   -8.4241  -41.5642 H         1 UNK         0.0600 
    184 H184        2.4751   -9.6708  -40.8065 H         1 UNK         0.3000 
    185 H185        0.7468  -10.5362  -42.2339 H         1 UNK         0.0600 
    186 H186        1.3770   -8.0932  -42.2782 H         1 UNK         0.0600 
    187 H187        1.7765   -8.2208  -43.9871 H         1 UNK         0.0600 
    188 H188        0.1120   -8.4246  -43.4460 H         1 UNK         0.0600 
    189 H189        1.8794  -11.0675  -44.8528 H         1 UNK         0.3000 
    190 H190       -1.7644  -19.0758  -46.6119 H         1 UNK         0.3000 
    191 H191       -3.8251  -18.8768  -48.5625 H         1 UNK         0.0600 
    192 H192       -3.9739  -18.6383  -45.5140 H         1 UNK         0.0600 
    193 H193       -5.2163  -18.1127  -46.6437 H         1 UNK         0.0600 
    194 H194       -3.6449  -17.3277  -46.6432 H         1 UNK         0.0600 
    195 H195       -3.3708  -21.1976  -45.8484 H         1 UNK         0.3000 
    196 H196       -5.7447  -22.6803  -46.2488 H         1 UNK         0.0600 
    197 H197       -3.0669  -23.5485  -45.0392 H         1 UNK         0.0600 
    198 H198       -4.5922  -24.4057  -44.8558 H         1 UNK         0.0600 
    199 H199       -4.4053  -22.7982  -44.1723 H         1 UNK         0.0600 
    200 H200       -2.5602  -22.9813  -47.8034 H         1 UNK         0.3000 
    201 H201       -2.9345  -25.4500  -49.1076 H         1 UNK         0.0600 
    202 H202       -0.7291  -24.3617  -48.8695 H         1 UNK         0.0600 
    203 H203       -1.2241  -23.0524  -49.9378 H         1 UNK         0.0600 
    204 H204       -1.0595  -24.6842  -50.5652 H         1 UNK         0.0600 
    205 H205       -4.5331  -22.4519  -49.8162 H         1 UNK         0.3000 
    206 H206       -5.0725  -22.8465  -52.5988 H         1 UNK         0.0600 
    207 H207       -5.3692  -20.6702  -51.3637 H         1 UNK         0.0600 
    208 H208       -6.8082  -21.1452  -52.2564 H         1 UNK         0.0600 
    209 H209       -6.7495  -21.3598  -50.5123 H         1 UNK         0.0600 
    210 H210       -6.2814  -24.4987  -49.7802 H         1 UNK         0.3000 
    211 H211       -8.7195  -25.5576  -50.8661 H         1 UNK         0.0600 
    212 H212       -6.8255  -26.6881  -48.7360 H         1 UNK         0.0600 
    213 H213       -8.4819  -27.2070  -49.0221 H         1 UNK         0.0600 
    214 H214       -8.1650  -25.5829  -48.4304 H         1 UNK         0.0600 
    215 H215       -5.3472  -26.2406  -51.5070 H         1 UNK         0.3000 
    216 H216       -5.9743  -28.7329  -53.0098 H         1 UNK         0.0600 
    217 H217       -3.5120  -29.0285  -53.0439 H         1 UNK         0.0600 
    218 H218       -4.1003  -28.8899  -51.3967 H         1 UNK         0.0600 
    219 H219       -3.2946  -27.5248  -52.1588 H         1 UNK         0.0600 
    220 H220       -6.5848  -25.7592  -53.6617 H         1 UNK         0.3000 
    221 H221       -6.8580  -24.4879  -55.4196 H         1 UNK         0.0600 
    222 H222       -6.3114  -27.0440  -57.0297 H         1 UNK         0.0600 
    223 H223       -7.8635  -26.4994  -56.4116 H         1 UNK         0.0600 
    224 H224       -7.0543  -25.5751  -57.6615 H         1 UNK         0.0600 
    225 H225       -4.7608  -25.9349  -57.6740 H         1 UNK         0.3000 
    226 H226       -3.3205  -23.6066  -58.2031 H         1 UNK         0.0600 
    227 H227       -3.7939  -25.3888  -59.8623 H         1 UNK         0.0600 
    228 H228       -2.0669  -25.0863  -59.7894 H         1 UNK         0.0600 
    229 H229       -2.7374  -26.5092  -59.0009 H         1 UNK         0.0600 
    230 H230       -2.6647  -25.7551  -55.6564 H         1 UNK         0.3000 
    231 H231        0.1701  -25.4164  -55.3422 H         1 UNK         0.0600 
    232 H232       -1.1382  -27.1623  -54.1356 H         1 UNK         0.0600 
    233 H233       -2.0504  -25.9107  -53.2936 H         1 UNK         0.0600 
    234 H234       -0.3292  -26.1032  -52.9876 H         1 UNK         0.0600 
    235 H235       -2.5809  -23.2774  -54.8154 H         1 UNK         0.3000 
    236 H236       -0.8273  -21.0456  -54.3592 H         1 UNK         0.0600 
    237 H237       -1.8401  -20.3002  -52.2010 H         1 UNK         0.0600 
    238 H238       -2.7413  -21.8065  -52.0892 H         1 UNK         0.0600 
    239 H239       -0.9862  -21.8093  -52.0010 H         1 UNK         0.0600 
    240 H240       -3.7115  -20.1282  -53.0980 H         1 UNK         0.3000 
    241 H241       -4.4295  -18.7412  -55.5022 H         1 UNK         0.0600 
    242 H242       -6.8955  -21.8220  -55.7431 H         1 UNK         0.3800 
    243 H243       -5.2735  -21.9275  -55.1119 H         1 UNK         0.3800 
    244 H244       -6.0731  -17.5463  -54.1101 H         1 UNK         0.0800 
    245 H245       -5.8740  -18.6865  -52.8123 H         1 UNK         0.0800 
    246 H246       -4.8703  -17.4634  -50.7752 H         1 UNK         0.0800 
    247 H247       -3.8346  -18.7953  -51.2354 H         1 UNK         0.0800 
@<TRIPOS>BOND
     1    1    2 1    
     2    1  127 1    
     3    1  128 1    
     4    1  129 1    
     5    2    3 2    
     6    2    4 am   BACKBONE|DICT|INTERRES
     7    4    5 1    
     8    4  130 1    
     9    5    6 1    
    10    5   65 1    
    11    5  131 1    
    12    6    7 1    
    13    6  132 1    
    14    6  133 1    
    15    7    8 1    
    16    8    9 1    
    17    8  134 1    
    18    8  135 1    
    19    9   10 ar   
    20    9   14 ar   
    21   10   11 ar   
    22   10  136 1    
    23   11   12 ar   
    24   11  126 1    
    25   12   13 ar   
    26   12  137 1    
    27   13   14 ar   
    28   13   15 1    
    29   14  138 1    
    30   15   16 1    
    31   15  139 1    
    32   15  140 1    
    33   16   17 1    
    34   17   18 1    
    35   17  141 1    
    36   17  142 1    
    37   18   19 1    
    38   18   67 1    
    39   18  143 1    
    40   19   20 am   BACKBONE|DICT|INTERRES
    41   19  144 1    
    42   20   21 2    
    43   20   22 1    
    44   22   23 1    
    45   22   24 1    
    46   22  145 1    
    47   23  146 1    
    48   23  147 1    
    49   23  148 1    
    50   24   25 am   BACKBONE|DICT|INTERRES
    51   24  149 1    
    52   25   26 2    
    53   25   27 1    
    54   27   28 1    
    55   27   29 1    
    56   27  150 1    
    57   28  151 1    
    58   28  152 1    
    59   28  153 1    
    60   29   30 am   BACKBONE|DICT|INTERRES
    61   29  154 1    
    62   30   31 2    
    63   30   32 1    
    64   32   33 1    
    65   32   34 1    
    66   32  155 1    
    67   33  156 1    
    68   33  157 1    
    69   33  158 1    
    70   34   35 am   BACKBONE|DICT|INTERRES
    71   34  159 1    
    72   35   36 2    
    73   35   37 1    
    74   37   38 1    
    75   37   39 1    
    76   37  160 1    
    77   38  161 1    
    78   38  162 1    
    79   38  163 1    
    80   39   40 am   BACKBONE|DICT|INTERRES
    81   39  164 1    
    82   40   41 2    
    83   40   42 1    
    84   42   43 1    
    85   42   44 1    
    86   42  165 1    
    87   43  166 1    
    88   43  167 1    
    89   43  168 1    
    90   44   45 am   BACKBONE|DICT|INTERRES
    91   44  169 1    
    92   45   46 2    
    93   45   47 1    
    94   47   48 1    
    95   47   49 1    
    96   47  170 1    
    97   48  171 1    
    98   48  172 1    
    99   48  173 1    
   100   49   50 am   BACKBONE|DICT|INTERRES
   101   49  174 1    
   102   50   51 2    
   103   50   52 1    
   104   52   53 1    
   105   52   54 1    
   106   52  175 1    
   107   53  176 1    
   108   53  177 1    
   109   53  178 1    
   110   54   55 am   BACKBONE|DICT|INTERRES
   111   54  179 1    
   112   55   56 2    
   113   55   57 1    
   114   57   58 1    
   115   57   59 1    
   116   57  180 1    
   117   58  181 1    
   118   58  182 1    
   119   58  183 1    
   120   59   60 am   BACKBONE|DICT|INTERRES
   121   59  184 1    
   122   60   61 2    
   123   60   62 1    
   124   62   63 1    
   125   62   64 1    
   126   62  185 1    
   127   63  186 1    
   128   63  187 1    
   129   63  188 1    
   130   64   65 am   BACKBONE|DICT|INTERRES
   131   64  189 1    
   132   65   66 2    
   133   67   68 2    
   134   67   69 am   BACKBONE|DICT|INTERRES
   135   69   70 1    
   136   69  190 1    
   137   70   71 1    
   138   70   72 1    
   139   70  191 1    
   140   71  192 1    
   141   71  193 1    
   142   71  194 1    
   143   72   73 2    
   144   72   74 am   BACKBONE|DICT|INTERRES
   145   74   75 1    
   146   74  195 1    
   147   75   76 1    
   148   75   77 1    
   149   75  196 1    
   150   76  197 1    
   151   76  198 1    
   152   76  199 1    
   153   77   78 2    
   154   77   79 am   BACKBONE|DICT|INTERRES
   155   79   80 1    
   156   79  200 1    
   157   80   81 1    
   158   80   82 1    
   159   80  201 1    
   160   81  202 1    
   161   81  203 1    
   162   81  204 1    
   163   82   83 2    
   164   82   84 am   BACKBONE|DICT|INTERRES
   165   84   85 1    
   166   84  205 1    
   167   85   86 1    
   168   85   87 1    
   169   85  206 1    
   170   86  207 1    
   171   86  208 1    
   172   86  209 1    
   173   87   88 2    
   174   87   89 am   BACKBONE|DICT|INTERRES
   175   89   90 1    
   176   89  210 1    
   177   90   91 1    
   178   90   92 1    
   179   90  211 1    
   180   91  212 1    
   181   91  213 1    
   182   91  214 1    
   183   92   93 2    
   184   92   94 am   BACKBONE|DICT|INTERRES
   185   94   95 1    
   186   94  215 1    
   187   95   96 1    
   188   95   97 1    
   189   95  216 1    
   190   96  217 1    
   191   96  218 1    
   192   96  219 1    
   193   97   98 2    
   194   97   99 am   BACKBONE|DICT|INTERRES
   195   99  100 1    
   196   99  220 1    
   197  100  101 1    
   198  100  102 1    
   199  100  221 1    
   200  101  222 1    
   201  101  223 1    
   202  101  224 1    
   203  102  103 2    
   204  102  104 am   BACKBONE|DICT|INTERRES
   205  104  105 1    
   206  104  225 1    
   207  105  106 1    
   208  105  107 1    
   209  105  226 1    
   210  106  227 1    
   211  106  228 1    
   212  106  229 1    
   213  107  108 2    
   214  107  109 am   BACKBONE|DICT|INTERRES
   215  109  110 1    
   216  109  230 1    
   217  110  111 1    
   218  110  112 1    
   219  110  231 1    
   220  111  232 1    
   221  111  233 1    
   222  111  234 1    
   223  112  113 2    
   224  112  114 am   BACKBONE|DICT|INTERRES
   225  114  115 1    
   226  114  235 1    
   227  115  116 1    
   228  115  117 1    
   229  115  236 1    
   230  116  237 1    
   231  116  238 1    
   232  116  239 1    
   233  117  118 2    
   234  117  119 am   BACKBONE|DICT|INTERRES
   235  119  120 1    
   236  119  240 1    
   237  120  121 1    
   238  120  124 1    
   239  120  241 1    
   240  121  122 am   BACKBONE|DICT|INTERRES
   241  121  123 2    
   242  122  242 1    
   243  122  243 1    
   244  124  125 1    
   245  124  244 1    
   246  124  245 1    
   247  125  126 1    
   248  126  246 1    
   249  126  247 1    
@<TRIPOS>SUBSTRUCTURE
     1 UNK         1 GROUP             0       ****    0 ROOT    
