@<TRIPOS>MOLECULE
3R540
247   249    1
SMALL
USER_CHARGES


@<TRIPOS>ATOM
      1 CA          1.9110  -11.6797  -47.2968 C.3       0 UNK        -0.1800 
      2 C           0.8041  -12.6134  -47.7634 C.2       0 UNK         0.5000 
      3 O          -0.2692  -12.1428  -48.1426 O.2       0 UNK        -0.5000 
      4 N           1.0555  -13.9288  -47.7092 N.am      1 UNK        -0.5000 
      5 CA          0.2227  -15.0576  -48.1663 C.3       1 UNK         0.1400 
      6 C6         -0.0092  -15.0754  -49.6973 C.3       23 UNK        -0.0398 
      7 S7          1.5467  -15.2882  -50.6312 S.3       23 UNK        -0.2404 
      8 C8          1.9570  -17.0420  -50.3297 C.3       23 UNK        -0.0205 
      9 C9          0.8814  -17.9831  -50.8481 C.ar      23 UNK        -0.0193 
     10 C10         0.8607  -18.3432  -52.1979 C.ar      23 UNK        -0.1150 
     11 C11        -0.1406  -19.1822  -52.6922 C.ar      23 UNK        -0.0193 
     12 C12        -1.1293  -19.6560  -51.8259 C.ar      23 UNK        -0.1150 
     13 C13        -1.1095  -19.3176  -50.4698 C.ar      23 UNK        -0.0193 
     14 C14        -0.0960  -18.4879  -49.9837 C.ar      23 UNK        -0.1150 
     15 C15        -2.2024  -19.8276  -49.5441 C.3       23 UNK        -0.0205 
     16 S16        -1.8477  -21.5030  -48.9371 S.3       23 UNK        -0.2404 
     17 C17        -0.8797  -21.1405  -47.4346 C.3       23 UNK        -0.0398 
     18 CA         -0.1532  -22.3830  -46.8667 C.3       11 UNK         0.1400 
     19 N           0.8421  -22.0127  -45.8597 N.am      11 UNK        -0.5000 
     20 C           1.7634  -22.8434  -45.3526 C.2       10 UNK         0.5000 
     21 O           1.9329  -23.9978  -45.7446 O.2       10 UNK        -0.5000 
     22 CA          2.6039  -22.3107  -44.1767 C.3       10 UNK         0.1400 
     23 CB          3.7954  -21.4853  -44.6837 C.3       10 UNK        -0.1800 
     24 N           1.8138  -21.5157  -43.2329 N.am      10 UNK        -0.5000 
     25 C           0.7999  -22.0023  -42.5022 C.2       9 UNK         0.5000 
     26 O           0.4629  -23.1854  -42.5098 O.2       9 UNK        -0.5000 
     27 CA         -0.0047  -20.9990  -41.6572 C.3       9 UNK         0.1400 
     28 CB          0.7146  -20.6999  -40.3338 C.3       9 UNK        -0.1800 
     29 N          -0.2792  -19.7506  -42.3694 N.am      9 UNK        -0.5000 
     30 C          -1.0265  -19.6524  -43.4787 C.2       8 UNK         0.5000 
     31 O          -1.6066  -20.6060  -43.9964 O.2       8 UNK        -0.5000 
     32 CA         -1.0857  -18.2732  -44.1608 C.3       8 UNK         0.1400 
     33 CB         -2.0864  -17.3448  -43.4577 C.3       8 UNK        -0.1800 
     34 N           0.2267  -17.6312  -44.2186 N.am      8 UNK        -0.5000 
     35 C           1.2735  -18.1158  -44.9016 C.2       7 UNK         0.5000 
     36 O           1.2245  -19.1231  -45.6076 O.2       7 UNK        -0.5000 
     37 CA          2.6143  -17.3853  -44.7179 C.3       7 UNK         0.1400 
     38 CB          2.7143  -16.1732  -45.6515 C.3       7 UNK        -0.1800 
     39 N           2.8103  -16.9534  -43.3349 N.am      7 UNK        -0.5000 
     40 C           3.0705  -17.7876  -42.3190 C.2       6 UNK         0.5000 
     41 O           3.1988  -19.0047  -42.4497 O.2       6 UNK        -0.5000 
     42 CA          3.1611  -17.1571  -40.9178 C.3       6 UNK         0.1400 
     43 CB          4.5591  -16.5685  -40.6769 C.3       6 UNK        -0.1800 
     44 N           2.1518  -16.1181  -40.7040 N.am      6 UNK        -0.5000 
     45 C           0.8327  -16.3493  -40.6471 C.2       5 UNK         0.5000 
     46 O           0.3316  -17.4675  -40.7475 O.2       5 UNK        -0.5000 
     47 CA         -0.0843  -15.1237  -40.4926 C.3       5 UNK         0.1400 
     48 CB         -0.2800  -14.7809  -39.0084 C.3       5 UNK        -0.1800 
     49 N           0.3988  -13.9391  -41.2058 N.am      5 UNK        -0.5000 
     50 C           0.5374  -13.8528  -42.5345 C.2       4 UNK         0.5000 
     51 O           0.3252  -14.7849  -43.3146 O.2       4 UNK        -0.5000 
     52 CA          1.0001  -12.5003  -43.0857 C.3       4 UNK         0.1400 
     53 CB          2.3528  -12.6364  -43.8025 C.3       4 UNK        -0.1800 
     54 N          -0.0056  -12.0316  -44.0318 N.am      4 UNK        -0.5000 
     55 C          -0.8010  -10.9692  -43.8518 C.2       3 UNK         0.5000 
     56 O          -0.7229  -10.2127  -42.8830 O.2       3 UNK        -0.5000 
     57 CA         -1.8667  -10.6968  -44.9319 C.3       3 UNK         0.1400 
     58 CB         -1.4310   -9.5337  -45.8368 C.3       3 UNK        -0.1800 
     59 N          -2.1460  -11.8647  -45.7696 N.am      3 UNK        -0.5000 
     60 C          -2.9297  -12.8935  -45.4076 C.2       2 UNK         0.5000 
     61 O          -3.5251  -12.9468  -44.3315 O.2       2 UNK        -0.5000 
     62 CA         -3.0540  -14.0675  -46.3943 C.3       2 UNK         0.1400 
     63 CB         -4.2861  -13.8973  -47.2964 C.3       2 UNK        -0.1800 
     64 N          -1.8585  -14.1658  -47.2265 N.am      2 UNK        -0.5000 
     65 C          -1.0993  -15.2480  -47.3930 C.2       1 UNK         0.5000 
     66 O          -1.3893  -16.3620  -46.9596 O.2       1 UNK        -0.5000 
     67 C          -1.1318  -23.4462  -46.3200 C.2       11 UNK         0.5000 
     68 O          -1.3447  -24.4655  -46.9760 O.2       11 UNK        -0.5000 
     69 N          -1.6699  -23.2287  -45.1109 N.am      12 UNK        -0.5000 
     70 CA         -2.5684  -24.1585  -44.4196 C.3       12 UNK         0.1400 
     71 CB         -3.0869  -23.5144  -43.1262 C.3       12 UNK        -0.1800 
     72 C          -1.9232  -25.5277  -44.1309 C.2       12 UNK         0.5000 
     73 O          -2.5798  -26.5545  -44.3044 O.2       12 UNK        -0.5000 
     74 N          -0.6342  -25.5280  -43.7627 N.am      13 UNK        -0.5000 
     75 CA          0.1889  -26.7278  -43.5814 C.3       13 UNK         0.1400 
     76 CB          1.5315  -26.3321  -42.9490 C.3       13 UNK        -0.1800 
     77 C           0.4145  -27.5240  -44.8843 C.2       13 UNK         0.5000 
     78 O           0.6233  -28.7358  -44.8229 O.2       13 UNK        -0.5000 
     79 N           0.3259  -26.8447  -46.0356 N.am      14 UNK        -0.5000 
     80 CA          0.3536  -27.4278  -47.3784 C.3       14 UNK         0.1400 
     81 CB          1.0787  -26.4557  -48.3261 C.3       14 UNK        -0.1800 
     82 C          -1.0590  -27.7886  -47.8953 C.2       14 UNK         0.5000 
     83 O          -1.2126  -28.0502  -49.0887 O.2       14 UNK        -0.5000 
     84 N          -2.0567  -27.8035  -46.9969 N.am      15 UNK        -0.5000 
     85 CA         -3.4735  -28.1221  -47.2104 C.3       15 UNK         0.1400 
     86 CB         -3.6604  -29.5247  -47.8283 C.3       15 UNK        -0.1800 
     87 C          -4.2666  -27.0218  -47.9470 C.2       15 UNK         0.5000 
     88 O          -5.3510  -27.3044  -48.4603 O.2       15 UNK        -0.5000 
     89 N          -3.7418  -25.7872  -47.9324 N.am      16 UNK        -0.5000 
     90 CA         -4.2932  -24.5509  -48.4966 C.3       16 UNK         0.1400 
     91 CB         -5.6708  -24.2243  -47.8828 C.3       16 UNK        -0.1800 
     92 C          -4.3246  -24.5142  -50.0384 C.2       16 UNK         0.5000 
     93 O          -4.1474  -25.5319  -50.7118 O.2       16 UNK        -0.5000 
     94 N          -4.5463  -23.3093  -50.5692 N.am      17 UNK        -0.5000 
     95 CA         -4.6381  -22.9841  -51.9866 C.3       17 UNK         0.1400 
     96 CB         -3.2401  -23.0183  -52.6339 C.3       17 UNK        -0.1800 
     97 C          -5.2847  -21.5972  -52.1169 C.2       17 UNK         0.5000 
     98 O          -5.3348  -20.8470  -51.1376 O.2       17 UNK        -0.5000 
     99 N          -5.7709  -21.2762  -53.3205 N.am      18 UNK        -0.5000 
    100 CA        -6.3681  -19.9855  -53.6550 C.3       18 UNK         0.1400 
    101 CB        -7.2647  -20.1563  -54.8944 C.3       18 UNK        -0.1800 
    102 C         -5.2679  -18.9359  -53.8881 C.2       18 UNK         0.5000 
    103 O         -4.8044  -18.7859  -55.0191 O.2       18 UNK        -0.5000 
    104 N         -4.8648  -18.2356  -52.8189 N.am      19 UNK        -0.5000 
    105 CA        -3.7801  -17.2422  -52.7905 C.3       19 UNK         0.1400 
    106 CB        -3.6438  -16.6963  -51.3599 C.3       19 UNK        -0.1800 
    107 C         -3.9297  -16.0700  -53.7833 C.2       19 UNK         0.5000 
    108 O         -2.9328  -15.4421  -54.1395 O.2       19 UNK        -0.5000 
    109 N         -5.1676  -15.7947  -54.2121 N.am      20 UNK        -0.5000 
    110 CA        -5.5014  -14.7833  -55.2130 C.3       20 UNK         0.1400 
    111 CB        -7.0018  -14.4679  -55.1038 C.3       20 UNK        -0.1800 
    112 C         -5.1443  -15.1945  -56.6573 C.2       20 UNK         0.5000 
    113 O         -5.1068  -14.3200  -57.5246 O.2       20 UNK        -0.5000 
    114 N         -4.9186  -16.4931  -56.9042 N.am      21 UNK        -0.5000 
    115 CA        -4.6727  -17.0526  -58.2341 C.3       21 UNK         0.1400 
    116 CB        -5.8980  -17.8749  -58.6679 C.3       21 UNK        -0.1800 
    117 C         -3.4001  -17.9116  -58.2753 C.2       21 UNK         0.5000 
    118 O         -2.5929  -17.7455  -59.1906 O.2       21 UNK        -0.5000 
    119 N         -3.2502  -18.8186  -57.3007 N.am      22 UNK        -0.5000 
    120 CA        -2.1532  -19.7961  -57.1712 C.3       22 UNK         0.1400 
    121 C         -2.0567  -20.8372  -58.3312 C.2       22 UNK         0.5000 
    122 N         -3.1159  -21.0705  -59.0969 N.am      22 UNK        -0.7600 
    123 O         -1.0231  -21.4719  -58.5245 O.2       22 UNK        -0.5000 
    124 C124       -0.7898  -19.1314  -56.8322 C.3       23 UNK        -0.0398 
    125 S125       -0.8313  -18.2815  -55.2184 S.3       23 UNK        -0.2404 
    126 C126       -0.1427  -19.5875  -54.1567 C.3       23 UNK        -0.0205 
    127 H127        2.8125  -12.2251  -47.0170 H         1 UNK         0.0600 
    128 H128        1.5796  -11.1038  -46.4333 H         1 UNK         0.0600 
    129 H129        2.1704  -10.9819  -48.0927 H         1 UNK         0.0600 
    130 H130        1.9653  -14.2082  -47.3729 H         1 UNK         0.3000 
    131 H131        0.8016  -15.9461  -47.9203 H         1 UNK         0.0600 
    132 H132       -0.7044  -15.8629  -49.9873 H         1 UNK         0.0800 
    133 H133       -0.4763  -14.1449  -50.0226 H         1 UNK         0.0800 
    134 H134        2.1351  -17.2115  -49.2676 H         1 UNK         0.0800 
    135 H135        2.9025  -17.2663  -50.8258 H         1 UNK         0.0800 
    136 H136        1.6182  -17.9608  -52.8678 H         1 UNK         0.1150 
    137 H137       -1.9189  -20.2852  -52.2082 H         1 UNK         0.1150 
    138 H138       -0.0829  -18.2157  -48.9373 H         1 UNK         0.1150 
    139 H139       -2.3489  -19.1458  -48.7045 H         1 UNK         0.0800 
    140 H140       -3.1491  -19.8489  -50.0833 H         1 UNK         0.0800 
    141 H141       -1.5355  -20.6906  -46.6881 H         1 UNK         0.0800 
    142 H142       -0.1430  -20.3779  -47.6897 H         1 UNK         0.0800 
    143 H143        0.3956  -22.8460  -47.6900 H         1 UNK         0.0600 
    144 H144        0.8139  -21.0552  -45.5225 H         1 UNK         0.3000 
    145 H145        2.9973  -23.1732  -43.6348 H         1 UNK         0.0600 
    146 H146        4.4299  -21.1611  -43.8587 H         1 UNK         0.0600 
    147 H147        4.4166  -22.0731  -45.3606 H         1 UNK         0.0600 
    148 H148        3.4708  -20.5970  -45.2251 H         1 UNK         0.0600 
    149 H149        2.0721  -20.5399  -43.1279 H         1 UNK         0.3000 
    150 H150       -0.9647  -21.4613  -41.4200 H         1 UNK         0.0600 
    151 H151        0.9178  -21.6191  -39.7831 H         1 UNK         0.0600 
    152 H152        0.1063  -20.0637  -39.6907 H         1 UNK         0.0600 
    153 H153        1.6676  -20.1965  -40.4968 H         1 UNK         0.0600 
    154 H154        0.1149  -18.9046  -41.9667 H         1 UNK         0.3000 
    155 H155       -1.4274  -18.4251  -45.1866 H         1 UNK         0.0600 
    156 H156       -1.8160  -17.1726  -42.4164 H         1 UNK         0.0600 
    157 H157       -3.0890  -17.7735  -43.4703 H         1 UNK         0.0600 
    158 H158       -2.1388  -16.3757  -43.9543 H         1 UNK         0.0600 
    159 H159        0.3342  -16.7615  -43.7071 H         1 UNK         0.3000 
    160 H160        3.4170  -18.0789  -44.9767 H         1 UNK         0.0600 
    161 H161        3.6377  -15.6182  -45.4853 H         1 UNK         0.0600 
    162 H162        1.8770  -15.4912  -45.5050 H         1 UNK         0.0600 
    163 H163        2.7123  -16.4927  -46.6936 H         1 UNK         0.0600 
    164 H164        2.6682  -15.9746  -43.1366 H         1 UNK         0.3000 
    165 H165        2.9935  -17.9495  -40.1851 H         1 UNK         0.0600 
    166 H166        4.6570  -16.1895  -39.6594 H         1 UNK         0.0600 
    167 H167        5.3305  -17.3273  -40.8153 H         1 UNK         0.0600 
    168 H168        4.7772  -15.7493  -41.3632 H         1 UNK         0.0600 
    169 H169        2.4808  -15.1687  -40.6093 H         1 UNK         0.3000 
    170 H170       -1.0579  -15.3872  -40.9105 H         1 UNK         0.0600 
    171 H171       -0.6598  -15.6415  -38.4560 H         1 UNK         0.0600 
    172 H172        0.6553  -14.4754  -38.5377 H         1 UNK         0.0600 
    173 H173       -1.0002  -13.9724  -38.8817 H         1 UNK         0.0600 
    174 H174        0.5925  -13.1252  -40.6400 H         1 UNK         0.3000 
    175 H175        1.1218  -11.7969  -42.2594 H         1 UNK         0.0600 
    176 H176        2.2921  -13.3019  -44.6629 H         1 UNK         0.0600 
    177 H177        2.7059  -11.6677  -44.1561 H         1 UNK         0.0600 
    178 H178        3.1147  -13.0336  -43.1307 H         1 UNK         0.0600 
    179 H179       -0.1983  -12.6474  -44.8077 H         1 UNK         0.3000 
    180 H180       -2.7853  -10.4018  -44.4201 H         1 UNK         0.0600 
    181 H181       -0.5207   -9.7694  -46.3886 H         1 UNK         0.0600 
    182 H182       -1.2369   -8.6336  -45.2520 H         1 UNK         0.0600 
    183 H183       -2.2069   -9.2871  -46.5618 H         1 UNK         0.0600 
    184 H184       -1.6896  -11.8742  -46.6731 H         1 UNK         0.3000 
    185 H185       -3.1788  -14.9760  -45.8014 H         1 UNK         0.0600 
    186 H186       -4.2156  -12.9975  -47.9087 H         1 UNK         0.0600 
    187 H187       -4.4023  -14.7497  -47.9660 H         1 UNK         0.0600 
    188 H188       -5.1980  -13.8225  -46.7026 H         1 UNK         0.0600 
    189 H189       -1.5054  -13.3050  -47.6379 H         1 UNK         0.3000 
    190 H190       -1.4808  -22.3471  -44.6390 H         1 UNK         0.3000 
    191 H191       -3.4238  -24.3322  -45.0759 H         1 UNK         0.0600 
    192 H192       -2.2767  -23.3032  -42.4287 H         1 UNK         0.0600 
    193 H193       -3.7938  -24.1720  -42.6189 H         1 UNK         0.0600 
    194 H194       -3.6042  -22.5771  -43.3321 H         1 UNK         0.0600 
    195 H195       -0.1840  -24.6364  -43.5714 H         1 UNK         0.3000 
    196 H196       -0.3336  -27.3858  -42.8841 H         1 UNK         0.0600 
    197 H197        2.1539  -27.2097  -42.7700 H         1 UNK         0.0600 
    198 H198        1.3846  -25.8367  -41.9892 H         1 UNK         0.0600 
    199 H199        2.0947  -25.6556  -43.5919 H         1 UNK         0.0600 
    200 H200        0.1423  -25.8495  -45.9955 H         1 UNK         0.3000 
    201 H201        0.9283  -28.3557  -47.3556 H         1 UNK         0.0600 
    202 H202        2.0655  -26.1947  -47.9430 H         1 UNK         0.0600 
    203 H203        0.5203  -25.5302  -48.4646 H         1 UNK         0.0600 
    204 H204        1.2218  -26.9011  -49.3112 H         1 UNK         0.0600 
    205 H205       -1.8342  -27.5266  -46.0481 H         1 UNK         0.3000 
    206 H206       -3.9067  -28.1612  -46.2101 H         1 UNK         0.0600 
    207 H207       -3.0831  -30.2752  -47.2885 H         1 UNK         0.0600 
    208 H208       -4.7060  -29.8319  -47.7878 H         1 UNK         0.0600 
    209 H209       -3.3568  -29.5524  -48.8748 H         1 UNK         0.0600 
    210 H210       -2.8210  -25.6720  -47.5199 H         1 UNK         0.3000 
    211 H211       -3.6084  -23.7637  -48.1840 H         1 UNK         0.0600 
    212 H212       -6.4433  -24.9148  -48.2221 H         1 UNK         0.0600 
    213 H213       -5.9947  -23.2195  -48.1554 H         1 UNK         0.0600 
    214 H214       -5.6370  -24.2658  -46.7941 H         1 UNK         0.0600 
    215 H215       -4.7025  -22.5087  -49.9681 H         1 UNK         0.3000 
    216 H216       -5.2897  -23.7093  -52.4782 H         1 UNK         0.0600 
    217 H217       -3.2542  -22.6154  -53.6473 H         1 UNK         0.0600 
    218 H218       -2.8633  -24.0389  -52.6998 H         1 UNK         0.0600 
    219 H219       -2.5194  -22.4417  -52.0553 H         1 UNK         0.0600 
    220 H220       -5.6718  -21.9321  -54.0819 H         1 UNK         0.3000 
    221 H221       -7.0001  -19.6506  -52.8295 H         1 UNK         0.0600 
    222 H222       -6.7078  -20.5374  -55.7516 H         1 UNK         0.0600 
    223 H223       -8.0834  -20.8477  -54.6946 H         1 UNK         0.0600 
    224 H224       -7.7084  -19.2044  -55.1893 H         1 UNK         0.0600 
    225 H225       -5.2765  -18.4666  -51.9249 H         1 UNK         0.3000 
    226 H226       -2.8577  -17.7628  -53.0493 H         1 UNK         0.0600 
    227 H227       -4.5440  -16.1674  -51.0447 H         1 UNK         0.0600 
    228 H228       -3.4578  -17.4939  -50.6431 H         1 UNK         0.0600 
    229 H229       -2.8099  -15.9971  -51.2873 H         1 UNK         0.0600 
    230 H230       -5.9297  -16.3538  -53.8591 H         1 UNK         0.3000 
    231 H231       -4.9441  -13.8723  -54.9847 H         1 UNK         0.0600 
    232 H232       -7.2591  -14.1118  -54.1060 H         1 UNK         0.0600 
    233 H233       -7.6137  -15.3453  -55.3169 H         1 UNK         0.0600 
    234 H234       -7.2905  -13.6875  -55.8092 H         1 UNK         0.0600 
    235 H235       -4.9204  -17.1490  -56.1301 H         1 UNK         0.3000 
    236 H236       -4.5327  -16.2541  -58.9657 H         1 UNK         0.0600 
    237 H237       -5.7404  -18.3272  -59.6479 H         1 UNK         0.0600 
    238 H238       -6.1158  -18.6784  -57.9630 H         1 UNK         0.0600 
    239 H239       -6.7855  -17.2460  -58.7398 H         1 UNK         0.0600 
    240 H240       -3.9402  -18.8592  -56.5533 H         1 UNK         0.3000 
    241 H241       -2.4270  -20.4065  -56.3098 H         1 UNK         0.0600 
    242 H242       -3.9780  -20.5727  -58.9449 H         1 UNK         0.3800 
    243 H243       -3.0524  -21.7514  -59.8376 H         1 UNK         0.3800 
    244 H244        0.0153  -19.8673  -56.8096 H         1 UNK         0.0800 
    245 H245       -0.5105  -18.4111  -57.6016 H         1 UNK         0.0800 
    246 H246        0.8770  -19.8129  -54.4729 H         1 UNK         0.0800 
    247 H247       -0.7181  -20.5047  -54.2920 H         1 UNK         0.0800 
@<TRIPOS>BOND
     1    1    2 1    
     2    1  127 1    
     3    1  128 1    
     4    1  129 1    
     5    2    3 2    
     6    2    4 am   BACKBONE|DICT|INTERRES
     7    4    5 1    
     8    4  130 1    
     9    5    6 1    
    10    5   65 1    
    11    5  131 1    
    12    6    7 1    
    13    6  132 1    
    14    6  133 1    
    15    7    8 1    
    16    8    9 1    
    17    8  134 1    
    18    8  135 1    
    19    9   10 ar   
    20    9   14 ar   
    21   10   11 ar   
    22   10  136 1    
    23   11   12 ar   
    24   11  126 1    
    25   12   13 ar   
    26   12  137 1    
    27   13   14 ar   
    28   13   15 1    
    29   14  138 1    
    30   15   16 1    
    31   15  139 1    
    32   15  140 1    
    33   16   17 1    
    34   17   18 1    
    35   17  141 1    
    36   17  142 1    
    37   18   19 1    
    38   18   67 1    
    39   18  143 1    
    40   19   20 am   BACKBONE|DICT|INTERRES
    41   19  144 1    
    42   20   21 2    
    43   20   22 1    
    44   22   23 1    
    45   22   24 1    
    46   22  145 1    
    47   23  146 1    
    48   23  147 1    
    49   23  148 1    
    50   24   25 am   BACKBONE|DICT|INTERRES
    51   24  149 1    
    52   25   26 2    
    53   25   27 1    
    54   27   28 1    
    55   27   29 1    
    56   27  150 1    
    57   28  151 1    
    58   28  152 1    
    59   28  153 1    
    60   29   30 am   BACKBONE|DICT|INTERRES
    61   29  154 1    
    62   30   31 2    
    63   30   32 1    
    64   32   33 1    
    65   32   34 1    
    66   32  155 1    
    67   33  156 1    
    68   33  157 1    
    69   33  158 1    
    70   34   35 am   BACKBONE|DICT|INTERRES
    71   34  159 1    
    72   35   36 2    
    73   35   37 1    
    74   37   38 1    
    75   37   39 1    
    76   37  160 1    
    77   38  161 1    
    78   38  162 1    
    79   38  163 1    
    80   39   40 am   BACKBONE|DICT|INTERRES
    81   39  164 1    
    82   40   41 2    
    83   40   42 1    
    84   42   43 1    
    85   42   44 1    
    86   42  165 1    
    87   43  166 1    
    88   43  167 1    
    89   43  168 1    
    90   44   45 am   BACKBONE|DICT|INTERRES
    91   44  169 1    
    92   45   46 2    
    93   45   47 1    
    94   47   48 1    
    95   47   49 1    
    96   47  170 1    
    97   48  171 1    
    98   48  172 1    
    99   48  173 1    
   100   49   50 am   BACKBONE|DICT|INTERRES
   101   49  174 1    
   102   50   51 2    
   103   50   52 1    
   104   52   53 1    
   105   52   54 1    
   106   52  175 1    
   107   53  176 1    
   108   53  177 1    
   109   53  178 1    
   110   54   55 am   BACKBONE|DICT|INTERRES
   111   54  179 1    
   112   55   56 2    
   113   55   57 1    
   114   57   58 1    
   115   57   59 1    
   116   57  180 1    
   117   58  181 1    
   118   58  182 1    
   119   58  183 1    
   120   59   60 am   BACKBONE|DICT|INTERRES
   121   59  184 1    
   122   60   61 2    
   123   60   62 1    
   124   62   63 1    
   125   62   64 1    
   126   62  185 1    
   127   63  186 1    
   128   63  187 1    
   129   63  188 1    
   130   64   65 am   BACKBONE|DICT|INTERRES
   131   64  189 1    
   132   65   66 2    
   133   67   68 2    
   134   67   69 am   BACKBONE|DICT|INTERRES
   135   69   70 1    
   136   69  190 1    
   137   70   71 1    
   138   70   72 1    
   139   70  191 1    
   140   71  192 1    
   141   71  193 1    
   142   71  194 1    
   143   72   73 2    
   144   72   74 am   BACKBONE|DICT|INTERRES
   145   74   75 1    
   146   74  195 1    
   147   75   76 1    
   148   75   77 1    
   149   75  196 1    
   150   76  197 1    
   151   76  198 1    
   152   76  199 1    
   153   77   78 2    
   154   77   79 am   BACKBONE|DICT|INTERRES
   155   79   80 1    
   156   79  200 1    
   157   80   81 1    
   158   80   82 1    
   159   80  201 1    
   160   81  202 1    
   161   81  203 1    
   162   81  204 1    
   163   82   83 2    
   164   82   84 am   BACKBONE|DICT|INTERRES
   165   84   85 1    
   166   84  205 1    
   167   85   86 1    
   168   85   87 1    
   169   85  206 1    
   170   86  207 1    
   171   86  208 1    
   172   86  209 1    
   173   87   88 2    
   174   87   89 am   BACKBONE|DICT|INTERRES
   175   89   90 1    
   176   89  210 1    
   177   90   91 1    
   178   90   92 1    
   179   90  211 1    
   180   91  212 1    
   181   91  213 1    
   182   91  214 1    
   183   92   93 2    
   184   92   94 am   BACKBONE|DICT|INTERRES
   185   94   95 1    
   186   94  215 1    
   187   95   96 1    
   188   95   97 1    
   189   95  216 1    
   190   96  217 1    
   191   96  218 1    
   192   96  219 1    
   193   97   98 2    
   194   97   99 am   BACKBONE|DICT|INTERRES
   195   99  100 1    
   196   99  220 1    
   197  100  101 1    
   198  100  102 1    
   199  100  221 1    
   200  101  222 1    
   201  101  223 1    
   202  101  224 1    
   203  102  103 2    
   204  102  104 am   BACKBONE|DICT|INTERRES
   205  104  105 1    
   206  104  225 1    
   207  105  106 1    
   208  105  107 1    
   209  105  226 1    
   210  106  227 1    
   211  106  228 1    
   212  106  229 1    
   213  107  108 2    
   214  107  109 am   BACKBONE|DICT|INTERRES
   215  109  110 1    
   216  109  230 1    
   217  110  111 1    
   218  110  112 1    
   219  110  231 1    
   220  111  232 1    
   221  111  233 1    
   222  111  234 1    
   223  112  113 2    
   224  112  114 am   BACKBONE|DICT|INTERRES
   225  114  115 1    
   226  114  235 1    
   227  115  116 1    
   228  115  117 1    
   229  115  236 1    
   230  116  237 1    
   231  116  238 1    
   232  116  239 1    
   233  117  118 2    
   234  117  119 am   BACKBONE|DICT|INTERRES
   235  119  120 1    
   236  119  240 1    
   237  120  121 1    
   238  120  124 1    
   239  120  241 1    
   240  121  122 am   BACKBONE|DICT|INTERRES
   241  121  123 2    
   242  122  242 1    
   243  122  243 1    
   244  124  125 1    
   245  124  244 1    
   246  124  245 1    
   247  125  126 1    
   248  126  246 1    
   249  126  247 1    
@<TRIPOS>SUBSTRUCTURE
     1 UNK         1 GROUP             0       ****    0 ROOT    
