@<TRIPOS>MOLECULE
3R540
247   249    1
SMALL
USER_CHARGES


@<TRIPOS>ATOM
      1 CA          4.5950  -22.3702  -44.7237 C.3       0 UNK        -0.1800 
      2 C           3.9366  -21.0128  -44.9219 C.2       0 UNK         0.5000 
      3 O           2.7412  -20.8758  -44.6737 O.2       0 UNK        -0.5000 
      4 N           4.7086  -20.0194  -45.3807 N.am      1 UNK        -0.5000 
      5 CA          4.2824  -18.6330  -45.5990 C.3       1 UNK         0.1400 
      6 C6          5.3494  -17.8617  -46.4275 C.3       23 UNK        -0.0398 
      7 S7          4.6513  -16.5234  -47.4537 S.3       23 UNK        -0.2404 
      8 C8          5.2878  -16.8855  -49.1222 C.3       23 UNK        -0.0205 
      9 C9          4.3906  -17.8414  -49.8964 C.ar      23 UNK        -0.0193 
     10 C10         3.4432  -17.3497  -50.8035 C.ar      23 UNK        -0.1150 
     11 C11         2.6506  -18.2264  -51.5540 C.ar      23 UNK        -0.0193 
     12 C12         2.8046  -19.6041  -51.3734 C.ar      23 UNK        -0.1150 
     13 C13         3.7228  -20.1064  -50.4505 C.ar      23 UNK        -0.0193 
     14 C14         4.5297  -19.2214  -49.7316 C.ar      23 UNK        -0.1150 
     15 C15         3.8016  -21.6058  -50.2043 C.3       23 UNK        -0.0205 
     16 S16         3.4623  -22.0390  -48.4670 S.3       23 UNK        -0.2404 
     17 C17         1.9627  -21.0626  -48.0880 C.3       23 UNK        -0.0398 
     18 CA          0.8350  -21.9309  -47.4897 C.3       11 UNK         0.1400 
     19 N           0.0866  -21.2176  -46.4560 N.am      11 UNK        -0.5000 
     20 C          -0.7096  -21.8125  -45.5604 C.2       10 UNK         0.5000 
     21 O          -0.9643  -23.0159  -45.5639 O.2       10 UNK        -0.5000 
     22 CA         -1.3479  -20.9102  -44.4919 C.3       10 UNK         0.1400 
     23 CB         -0.4239  -20.7815  -43.2731 C.3       10 UNK        -0.1800 
     24 N          -1.6943  -19.5807  -44.9960 N.am      10 UNK        -0.5000 
     25 C          -2.6508  -19.3680  -45.9097 C.2       9 UNK         0.5000 
     26 O          -3.3031  -20.2629  -46.4523 O.2       9 UNK        -0.5000 
     27 CA         -2.9141  -17.9080  -46.3029 C.3       9 UNK         0.1400 
     28 CB         -3.3424  -17.0615  -45.0967 C.3       9 UNK        -0.1800 
     29 N          -1.8082  -17.2483  -46.9983 N.am      9 UNK        -0.5000 
     30 C          -1.1073  -17.7100  -48.0462 C.2       8 UNK         0.5000 
     31 O          -1.2516  -18.8300  -48.5353 O.2       8 UNK        -0.5000 
     32 CA         -0.0918  -16.7366  -48.6821 C.3       8 UNK         0.1400 
     33 CB         -0.6768  -16.1095  -49.9570 C.3       8 UNK        -0.1800 
     34 N           0.3179  -15.6528  -47.7872 N.am      8 UNK        -0.5000 
     35 C           1.0606  -15.8169  -46.6872 C.2       7 UNK         0.5000 
     36 O           1.4773  -16.9180  -46.3343 O.2       7 UNK        -0.5000 
     37 CA          1.3141  -14.5812  -45.7945 C.3       7 UNK         0.1400 
     38 CB          2.7987  -14.3763  -45.4445 C.3       7 UNK        -0.1800 
     39 N           0.7294  -13.3204  -46.2679 N.am      7 UNK        -0.5000 
     40 C           1.0366  -12.5988  -47.3569 C.2       6 UNK         0.5000 
     41 O           1.8311  -12.9581  -48.2243 O.2       6 UNK        -0.5000 
     42 CA          0.3081  -11.2473  -47.5055 C.3       6 UNK         0.1400 
     43 CB         -0.8794  -11.3892  -48.4707 C.3       6 UNK        -0.1800 
     44 N          -0.1825  -10.7323  -46.2233 N.am      6 UNK        -0.5000 
     45 C           0.5874  -10.1664  -45.2811 C.2       5 UNK         0.5000 
     46 O           1.7796   -9.9017  -45.4366 O.2       5 UNK        -0.5000 
     47 CA         -0.0858   -9.8990  -43.9198 C.3       5 UNK         0.1400 
     48 CB         -0.7991   -8.5384  -43.9231 C.3       5 UNK        -0.1800 
     49 N          -1.0423  -10.9513  -43.5573 N.am      5 UNK        -0.5000 
     50 C          -0.6981  -12.2102  -43.2552 C.2       4 UNK         0.5000 
     51 O           0.4680  -12.6021  -43.1686 O.2       4 UNK        -0.5000 
     52 CA         -1.8456  -13.2128  -43.0871 C.3       4 UNK         0.1400 
     53 CB         -2.4957  -13.5384  -44.4475 C.3       4 UNK        -0.1800 
     54 N          -1.3247  -14.4287  -42.4679 N.am      4 UNK        -0.5000 
     55 C          -2.0626  -15.3856  -41.8977 C.2       3 UNK         0.5000 
     56 O          -3.2943  -15.3629  -41.8780 O.2       3 UNK        -0.5000 
     57 CA         -1.3169  -16.5339  -41.1882 C.3       3 UNK         0.1400 
     58 CB         -2.0598  -17.8816  -41.3029 C.3       3 UNK        -0.1800 
     59 N           0.1079  -16.6721  -41.5272 N.am      3 UNK        -0.5000 
     60 C           0.6537  -17.1585  -42.6523 C.2       2 UNK         0.5000 
     61 O           0.0127  -17.4573  -43.6639 O.2       2 UNK        -0.5000 
     62 CA          2.1774  -17.3913  -42.5937 C.3       2 UNK         0.1400 
     63 CB          2.5125  -18.4538  -41.5211 C.3       2 UNK        -0.1800 
     64 N           2.6875  -17.8208  -43.8951 N.am      2 UNK        -0.5000 
     65 C           3.9758  -17.9709  -44.2329 C.2       1 UNK         0.5000 
     66 O           4.9130  -17.6656  -43.4914 O.2       1 UNK        -0.5000 
     67 C          -0.0921  -22.4941  -48.5813 C.2       11 UNK         0.5000 
     68 O           0.0464  -23.6592  -48.9528 O.2       11 UNK        -0.5000 
     69 N          -1.0507  -21.6779  -49.0443 N.am      12 UNK        -0.5000 
     70 CA         -2.0635  -22.0875  -50.0161 C.3       12 UNK         0.1400 
     71 CB         -2.8182  -20.8538  -50.5253 C.3       12 UNK        -0.1800 
     72 C          -3.0298  -23.1356  -49.4349 C.2       12 UNK         0.5000 
     73 O          -3.3804  -24.0860  -50.1341 O.2       12 UNK        -0.5000 
     74 N          -3.3867  -22.9850  -48.1500 N.am      13 UNK        -0.5000 
     75 CA         -4.1816  -23.9594  -47.4027 C.3       13 UNK         0.1400 
     76 CB         -4.5762  -23.3715  -46.0401 C.3       13 UNK        -0.1800 
     77 C          -3.4583  -25.3116  -47.2431 C.2       13 UNK         0.5000 
     78 O          -4.0698  -26.3544  -47.4758 O.2       13 UNK        -0.5000 
     79 N          -2.1595  -25.2764  -46.9067 N.am      14 UNK        -0.5000 
     80 CA         -1.2858  -26.4517  -46.8165 C.3       14 UNK         0.1400 
     81 CB          0.0637  -26.0475  -46.2040 C.3       14 UNK        -0.1800 
     82 C          -1.0772  -27.1608  -48.1694 C.2       14 UNK         0.5000 
     83 O          -0.9652  -28.3864  -48.2017 O.2       14 UNK        -0.5000 
     84 N          -1.0763  -26.3861  -49.2626 N.am      15 UNK        -0.5000 
     85 CA         -1.0420  -26.8667  -50.6464 C.3       15 UNK         0.1400 
     86 CB         -0.5514  -25.7276  -51.5556 C.3       15 UNK        -0.1800 
     87 C          -2.3932  -27.4291  -51.1451 C.2       15 UNK         0.5000 
     88 O          -2.4626  -27.8840  -52.2877 O.2       15 UNK        -0.5000 
     89 N          -3.4320  -27.3930  -50.2963 N.am      16 UNK        -0.5000 
     90 CA         -4.8009  -27.8655  -50.5247 C.3       16 UNK         0.1400 
     91 CB         -4.8341  -29.3770  -50.8365 C.3       16 UNK        -0.1800 
     92 C          -5.5921  -27.0162  -51.5407 C.2       16 UNK         0.5000 
     93 O          -6.5505  -27.5113  -52.1379 O.2       16 UNK        -0.5000 
     94 N          -5.2092  -25.7429  -51.6897 N.am      17 UNK        -0.5000 
     95 CA         -5.9867  -24.7121  -52.3712 C.3       17 UNK         0.1400 
     96 CB         -5.0156  -23.7761  -53.1150 C.3       17 UNK        -0.1800 
     97 C          -6.8328  -23.9440  -51.3361 C.2       17 UNK         0.5000 
     98 O          -6.8206  -24.2736  -50.1457 O.2       17 UNK        -0.5000 
     99 N          -7.5542  -22.9165  -51.8001 N.am      18 UNK        -0.5000 
    100 CA        -8.2172  -21.9400  -50.9344 C.3       18 UNK         0.1400 
    101 CB        -9.1555  -21.0687  -51.7837 C.3       18 UNK        -0.1800 
    102 C         -7.1823  -21.0685  -50.1954 C.2       18 UNK         0.5000 
    103 O         -6.0773  -20.8618  -50.7066 O.2       18 UNK        -0.5000 
    104 N         -7.5589  -20.5580  -49.0154 N.am      19 UNK        -0.5000 
    105 CA        -6.7191  -19.6878  -48.1914 C.3       19 UNK         0.1400 
    106 CB        -7.4398  -19.3738  -46.8691 C.3       19 UNK        -0.1800 
    107 C         -6.3387  -18.3973  -48.9432 C.2       19 UNK         0.5000 
    108 O         -7.2208  -17.6146  -49.3026 O.2       19 UNK        -0.5000 
    109 N         -5.0315  -18.2363  -49.1810 N.am      20 UNK        -0.5000 
    110 CA        -4.3836  -17.1384  -49.9007 C.3       20 UNK         0.1400 
    111 CB        -4.5954  -15.7869  -49.1839 C.3       20 UNK        -0.1800 
    112 C         -4.7193  -17.0909  -51.4043 C.2       20 UNK         0.5000 
    113 O         -4.6907  -16.0109  -51.9965 O.2       20 UNK        -0.5000 
    114 N         -4.9737  -18.2593  -52.0171 N.am      21 UNK        -0.5000 
    115 CA        -5.2330  -18.4154  -53.4553 C.3       21 UNK         0.1400 
    116 CB        -5.4935  -19.8961  -53.7730 C.3       21 UNK        -0.1800 
    117 C         -4.1123  -17.8724  -54.3667 C.2       21 UNK         0.5000 
    118 O         -4.4053  -17.3860  -55.4598 O.2       21 UNK        -0.5000 
    119 N         -2.8624  -17.9468  -53.8924 N.am      22 UNK        -0.5000 
    120 CA        -1.6764  -17.3687  -54.5414 C.3       22 UNK         0.1400 
    121 C         -1.3859  -15.8847  -54.1626 C.2       22 UNK         0.5000 
    122 N         -2.2073  -15.2183  -53.3595 N.am      22 UNK        -0.7600 
    123 O         -0.4005  -15.3158  -54.6246 O.2       22 UNK        -0.5000 
    124 C124       -0.4375  -18.2857  -54.3796 C.3       23 UNK        -0.0398 
    125 S125        0.0843  -18.5754  -52.6509 S.3       23 UNK        -0.2404 
    126 C126        1.6819  -17.6862  -52.6027 C.3       23 UNK        -0.0205 
    127 H127        4.0924  -23.1202  -45.3342 H         1 UNK         0.0600 
    128 H128        4.5216  -22.6737  -43.6796 H         1 UNK         0.0600 
    129 H129        5.6485  -22.3557  -45.0025 H         1 UNK         0.0600 
    130 H130        5.6893  -20.2010  -45.5356 H         1 UNK         0.3000 
    131 H131        3.3627  -18.6735  -46.1829 H         1 UNK         0.0600 
    132 H132        5.8681  -18.5507  -47.0931 H         1 UNK         0.0800 
    133 H133        6.1325  -17.4444  -45.7923 H         1 UNK         0.0800 
    134 H134        6.3022  -17.2820  -49.0608 H         1 UNK         0.0800 
    135 H135        5.3712  -15.9435  -49.6662 H         1 UNK         0.0800 
    136 H136        3.3401  -16.2825  -50.9415 H         1 UNK         0.1150 
    137 H137        2.1980  -20.2910  -51.9462 H         1 UNK         0.1150 
    138 H138        5.2508  -19.6133  -49.0294 H         1 UNK         0.1150 
    139 H139        3.0947  -22.1425  -50.8389 H         1 UNK         0.0800 
    140 H140        4.7956  -21.9635  -50.4750 H         1 UNK         0.0800 
    141 H141        1.6088  -20.5056  -48.9563 H         1 UNK         0.0800 
    142 H142        2.2715  -20.3000  -47.3749 H         1 UNK         0.0800 
    143 H143        1.2945  -22.7856  -46.9874 H         1 UNK         0.0600 
    144 H144        0.2226  -20.2199  -46.3906 H         1 UNK         0.3000 
    145 H145       -2.2687  -21.3968  -44.1637 H         1 UNK         0.0600 
    146 H146       -0.9297  -20.2922  -42.4432 H         1 UNK         0.0600 
    147 H147       -0.0981  -21.7608  -42.9203 H         1 UNK         0.0600 
    148 H148        0.4698  -20.2047  -43.5092 H         1 UNK         0.0600 
    149 H149       -1.1775  -18.7923  -44.6159 H         1 UNK         0.3000 
    150 H150       -3.7596  -17.9234  -46.9842 H         1 UNK         0.0600 
    151 H151       -4.0853  -17.5795  -44.4885 H         1 UNK         0.0600 
    152 H152       -3.7934  -16.1257  -45.4241 H         1 UNK         0.0600 
    153 H153       -2.4978  -16.8208  -44.4524 H         1 UNK         0.0600 
    154 H154       -1.5743  -16.3246  -46.6698 H         1 UNK         0.3000 
    155 H155        0.7924  -17.3175  -48.9550 H         1 UNK         0.0600 
    156 H156       -1.5020  -15.4330  -49.7333 H         1 UNK         0.0600 
    157 H157        0.0810  -15.5451  -50.5009 H         1 UNK         0.0600 
    158 H158       -1.0578  -16.8726  -50.6346 H         1 UNK         0.0600 
    159 H159        0.0402  -14.7167  -48.0403 H         1 UNK         0.3000 
    160 H160        0.7991  -14.8077  -44.8601 H         1 UNK         0.0600 
    161 H161        3.3885  -14.1071  -46.3203 H         1 UNK         0.0600 
    162 H162        3.2349  -15.2775  -45.0181 H         1 UNK         0.0600 
    163 H163        2.9183  -13.5830  -44.7065 H         1 UNK         0.0600 
    164 H164        0.0812  -12.8950  -45.6238 H         1 UNK         0.3000 
    165 H165        1.0148  -10.5304  -47.9291 H         1 UNK         0.0600 
    166 H166       -1.3740  -10.4309  -48.6303 H         1 UNK         0.0600 
    167 H167       -0.5493  -11.7485  -49.4465 H         1 UNK         0.0600 
    168 H168       -1.6238  -12.0933  -48.0965 H         1 UNK         0.0600 
    169 H169       -1.1617  -10.8722  -46.0234 H         1 UNK         0.3000 
    170 H170        0.6981   -9.8718  -43.1597 H         1 UNK         0.0600 
    171 H171       -0.1046   -7.7349  -44.1719 H         1 UNK         0.0600 
    172 H172       -1.6104   -8.5082  -44.6515 H         1 UNK         0.0600 
    173 H173       -1.2189   -8.3113  -42.9430 H         1 UNK         0.0600 
    174 H174       -2.0207  -10.7019  -43.5927 H         1 UNK         0.3000 
    175 H175       -2.5873  -12.7629  -42.4238 H         1 UNK         0.0600 
    176 H176       -1.8350  -14.1295  -45.0817 H         1 UNK         0.0600 
    177 H177       -3.4175  -14.1019  -44.3097 H         1 UNK         0.0600 
    178 H178       -2.7634  -12.6349  -44.9962 H         1 UNK         0.0600 
    179 H179       -0.3148  -14.4723  -42.4148 H         1 UNK         0.3000 
    180 H180       -1.3292  -16.2619  -40.1319 H         1 UNK         0.0600 
    181 H181       -2.1726  -18.1967  -42.3399 H         1 UNK         0.0600 
    182 H182       -3.0611  -17.8159  -40.8761 H         1 UNK         0.0600 
    183 H183       -1.5335  -18.6678  -40.7622 H         1 UNK         0.0600 
    184 H184        0.7361  -16.4404  -40.7702 H         1 UNK         0.3000 
    185 H185        2.6517  -16.4433  -42.3337 H         1 UNK         0.0600 
    186 H186        2.1238  -18.1784  -40.5405 H         1 UNK         0.0600 
    187 H187        2.0896  -19.4254  -41.7794 H         1 UNK         0.0600 
    188 H188        3.5874  -18.5842  -41.4008 H         1 UNK         0.0600 
    189 H189        1.9665  -17.9988  -44.5887 H         1 UNK         0.3000 
    190 H190       -1.1068  -20.7196  -48.7066 H         1 UNK         0.3000 
    191 H191       -1.5493  -22.5397  -50.8665 H         1 UNK         0.0600 
    192 H192       -3.3864  -20.3822  -49.7249 H         1 UNK         0.0600 
    193 H193       -3.5168  -21.1274  -51.3156 H         1 UNK         0.0600 
    194 H194       -2.1346  -20.1116  -50.9374 H         1 UNK         0.0600 
    195 H195       -3.0646  -22.1707  -47.6412 H         1 UNK         0.3000 
    196 H196       -5.0984  -24.1406  -47.9676 H         1 UNK         0.0600 
    197 H197       -5.1897  -24.0742  -45.4751 H         1 UNK         0.0600 
    198 H198       -5.1564  -22.4563  -46.1604 H         1 UNK         0.0600 
    199 H199       -3.7026  -23.1353  -45.4327 H         1 UNK         0.0600 
    200 H200       -1.7352  -24.3830  -46.6715 H         1 UNK         0.3000 
    201 H201       -1.7621  -27.1667  -46.1427 H         1 UNK         0.0600 
    202 H202       -0.0659  -25.6338  -45.2039 H         1 UNK         0.0600 
    203 H203        0.5743  -25.3001  -46.8117 H         1 UNK         0.0600 
    204 H204        0.7272  -26.9085  -46.1155 H         1 UNK         0.0600 
    205 H205       -1.0994  -25.3796  -49.1380 H         1 UNK         0.3000 
    206 H206       -0.3161  -27.6798  -50.7072 H         1 UNK         0.0600 
    207 H207        0.4145  -25.3456  -51.2246 H         1 UNK         0.0600 
    208 H208       -0.4284  -26.0704  -52.5835 H         1 UNK         0.0600 
    209 H209       -1.2538  -24.8949  -51.5713 H         1 UNK         0.0600 
    210 H210       -3.2811  -26.9687  -49.3889 H         1 UNK         0.3000 
    211 H211       -5.3153  -27.7264  -49.5730 H         1 UNK         0.0600 
    212 H212       -4.4250  -29.5991  -51.8221 H         1 UNK         0.0600 
    213 H213       -5.8562  -29.7568  -50.8171 H         1 UNK         0.0600 
    214 H214       -4.2655  -29.9444  -50.0996 H         1 UNK         0.0600 
    215 H215       -4.4569  -25.3902  -51.1036 H         1 UNK         0.3000 
    216 H216       -6.6625  -25.1634  -53.1002 H         1 UNK         0.0600 
    217 H217       -5.5524  -23.0742  -53.7534 H         1 UNK         0.0600 
    218 H218       -4.3383  -24.3397  -53.7569 H         1 UNK         0.0600 
    219 H219       -4.4093  -23.1897  -52.4244 H         1 UNK         0.0600 
    220 H220       -7.5034  -22.6851  -52.7806 H         1 UNK         0.3000 
    221 H221       -8.8145  -22.4788  -50.1954 H         1 UNK         0.0600 
    222 H222       -8.6119  -20.5036  -52.5411 H         1 UNK         0.0600 
    223 H223       -9.9050  -21.6760  -52.2921 H         1 UNK         0.0600 
    224 H224       -9.6899  -20.3493  -51.1615 H         1 UNK         0.0600 
    225 H225       -8.4911  -20.7410  -48.6720 H         1 UNK         0.3000 
    226 H226       -5.8072  -20.2420  -47.9496 H         1 UNK         0.0600 
    227 H227       -7.6491  -20.2848  -46.3071 H         1 UNK         0.0600 
    228 H228       -6.8236  -18.7362  -46.2326 H         1 UNK         0.0600 
    229 H229       -8.3865  -18.8560  -47.0378 H         1 UNK         0.0600 
    230 H230       -4.4085  -18.9708  -48.8745 H         1 UNK         0.3000 
    231 H231       -3.3186  -17.3598  -49.8621 H         1 UNK         0.0600 
    232 H232       -3.9863  -15.0033  -49.6364 H         1 UNK         0.0600 
    233 H233       -4.3140  -15.8436  -48.1331 H         1 UNK         0.0600 
    234 H234       -5.6339  -15.4588  -49.2357 H         1 UNK         0.0600 
    235 H235       -5.0435  -19.1013  -51.4568 H         1 UNK         0.3000 
    236 H236       -6.1395  -17.8523  -53.6859 H         1 UNK         0.0600 
    237 H237       -6.3834  -20.2583  -53.2623 H         1 UNK         0.0600 
    238 H238       -5.6549  -20.0477  -54.8411 H         1 UNK         0.0600 
    239 H239       -4.6547  -20.5257  -53.4745 H         1 UNK         0.0600 
    240 H240       -2.7096  -18.3568  -52.9833 H         1 UNK         0.3000 
    241 H241       -1.8745  -17.3333  -55.6142 H         1 UNK         0.0600 
    242 H242       -3.0558  -15.6368  -52.9939 H         1 UNK         0.3800 
    243 H243       -2.0006  -14.2574  -53.1411 H         1 UNK         0.3800 
    244 H244       -0.6593  -19.2602  -54.8161 H         1 UNK         0.0800 
    245 H245        0.3957  -17.8981  -54.9670 H         1 UNK         0.0800 
    246 H246        2.1788  -17.7635  -53.5701 H         1 UNK         0.0800 
    247 H247        1.4831  -16.6261  -52.4380 H         1 UNK         0.0800 
@<TRIPOS>BOND
     1    1    2 1    
     2    1  127 1    
     3    1  128 1    
     4    1  129 1    
     5    2    3 2    
     6    2    4 am   BACKBONE|DICT|INTERRES
     7    4    5 1    
     8    4  130 1    
     9    5    6 1    
    10    5   65 1    
    11    5  131 1    
    12    6    7 1    
    13    6  132 1    
    14    6  133 1    
    15    7    8 1    
    16    8    9 1    
    17    8  134 1    
    18    8  135 1    
    19    9   10 ar   
    20    9   14 ar   
    21   10   11 ar   
    22   10  136 1    
    23   11   12 ar   
    24   11  126 1    
    25   12   13 ar   
    26   12  137 1    
    27   13   14 ar   
    28   13   15 1    
    29   14  138 1    
    30   15   16 1    
    31   15  139 1    
    32   15  140 1    
    33   16   17 1    
    34   17   18 1    
    35   17  141 1    
    36   17  142 1    
    37   18   19 1    
    38   18   67 1    
    39   18  143 1    
    40   19   20 am   BACKBONE|DICT|INTERRES
    41   19  144 1    
    42   20   21 2    
    43   20   22 1    
    44   22   23 1    
    45   22   24 1    
    46   22  145 1    
    47   23  146 1    
    48   23  147 1    
    49   23  148 1    
    50   24   25 am   BACKBONE|DICT|INTERRES
    51   24  149 1    
    52   25   26 2    
    53   25   27 1    
    54   27   28 1    
    55   27   29 1    
    56   27  150 1    
    57   28  151 1    
    58   28  152 1    
    59   28  153 1    
    60   29   30 am   BACKBONE|DICT|INTERRES
    61   29  154 1    
    62   30   31 2    
    63   30   32 1    
    64   32   33 1    
    65   32   34 1    
    66   32  155 1    
    67   33  156 1    
    68   33  157 1    
    69   33  158 1    
    70   34   35 am   BACKBONE|DICT|INTERRES
    71   34  159 1    
    72   35   36 2    
    73   35   37 1    
    74   37   38 1    
    75   37   39 1    
    76   37  160 1    
    77   38  161 1    
    78   38  162 1    
    79   38  163 1    
    80   39   40 am   BACKBONE|DICT|INTERRES
    81   39  164 1    
    82   40   41 2    
    83   40   42 1    
    84   42   43 1    
    85   42   44 1    
    86   42  165 1    
    87   43  166 1    
    88   43  167 1    
    89   43  168 1    
    90   44   45 am   BACKBONE|DICT|INTERRES
    91   44  169 1    
    92   45   46 2    
    93   45   47 1    
    94   47   48 1    
    95   47   49 1    
    96   47  170 1    
    97   48  171 1    
    98   48  172 1    
    99   48  173 1    
   100   49   50 am   BACKBONE|DICT|INTERRES
   101   49  174 1    
   102   50   51 2    
   103   50   52 1    
   104   52   53 1    
   105   52   54 1    
   106   52  175 1    
   107   53  176 1    
   108   53  177 1    
   109   53  178 1    
   110   54   55 am   BACKBONE|DICT|INTERRES
   111   54  179 1    
   112   55   56 2    
   113   55   57 1    
   114   57   58 1    
   115   57   59 1    
   116   57  180 1    
   117   58  181 1    
   118   58  182 1    
   119   58  183 1    
   120   59   60 am   BACKBONE|DICT|INTERRES
   121   59  184 1    
   122   60   61 2    
   123   60   62 1    
   124   62   63 1    
   125   62   64 1    
   126   62  185 1    
   127   63  186 1    
   128   63  187 1    
   129   63  188 1    
   130   64   65 am   BACKBONE|DICT|INTERRES
   131   64  189 1    
   132   65   66 2    
   133   67   68 2    
   134   67   69 am   BACKBONE|DICT|INTERRES
   135   69   70 1    
   136   69  190 1    
   137   70   71 1    
   138   70   72 1    
   139   70  191 1    
   140   71  192 1    
   141   71  193 1    
   142   71  194 1    
   143   72   73 2    
   144   72   74 am   BACKBONE|DICT|INTERRES
   145   74   75 1    
   146   74  195 1    
   147   75   76 1    
   148   75   77 1    
   149   75  196 1    
   150   76  197 1    
   151   76  198 1    
   152   76  199 1    
   153   77   78 2    
   154   77   79 am   BACKBONE|DICT|INTERRES
   155   79   80 1    
   156   79  200 1    
   157   80   81 1    
   158   80   82 1    
   159   80  201 1    
   160   81  202 1    
   161   81  203 1    
   162   81  204 1    
   163   82   83 2    
   164   82   84 am   BACKBONE|DICT|INTERRES
   165   84   85 1    
   166   84  205 1    
   167   85   86 1    
   168   85   87 1    
   169   85  206 1    
   170   86  207 1    
   171   86  208 1    
   172   86  209 1    
   173   87   88 2    
   174   87   89 am   BACKBONE|DICT|INTERRES
   175   89   90 1    
   176   89  210 1    
   177   90   91 1    
   178   90   92 1    
   179   90  211 1    
   180   91  212 1    
   181   91  213 1    
   182   91  214 1    
   183   92   93 2    
   184   92   94 am   BACKBONE|DICT|INTERRES
   185   94   95 1    
   186   94  215 1    
   187   95   96 1    
   188   95   97 1    
   189   95  216 1    
   190   96  217 1    
   191   96  218 1    
   192   96  219 1    
   193   97   98 2    
   194   97   99 am   BACKBONE|DICT|INTERRES
   195   99  100 1    
   196   99  220 1    
   197  100  101 1    
   198  100  102 1    
   199  100  221 1    
   200  101  222 1    
   201  101  223 1    
   202  101  224 1    
   203  102  103 2    
   204  102  104 am   BACKBONE|DICT|INTERRES
   205  104  105 1    
   206  104  225 1    
   207  105  106 1    
   208  105  107 1    
   209  105  226 1    
   210  106  227 1    
   211  106  228 1    
   212  106  229 1    
   213  107  108 2    
   214  107  109 am   BACKBONE|DICT|INTERRES
   215  109  110 1    
   216  109  230 1    
   217  110  111 1    
   218  110  112 1    
   219  110  231 1    
   220  111  232 1    
   221  111  233 1    
   222  111  234 1    
   223  112  113 2    
   224  112  114 am   BACKBONE|DICT|INTERRES
   225  114  115 1    
   226  114  235 1    
   227  115  116 1    
   228  115  117 1    
   229  115  236 1    
   230  116  237 1    
   231  116  238 1    
   232  116  239 1    
   233  117  118 2    
   234  117  119 am   BACKBONE|DICT|INTERRES
   235  119  120 1    
   236  119  240 1    
   237  120  121 1    
   238  120  124 1    
   239  120  241 1    
   240  121  122 am   BACKBONE|DICT|INTERRES
   241  121  123 2    
   242  122  242 1    
   243  122  243 1    
   244  124  125 1    
   245  124  244 1    
   246  124  245 1    
   247  125  126 1    
   248  126  246 1    
   249  126  247 1    
@<TRIPOS>SUBSTRUCTURE
     1 UNK         1 GROUP             0       ****    0 ROOT    
