@<TRIPOS>MOLECULE
3R540
247   249    1
SMALL
USER_CHARGES


@<TRIPOS>ATOM
      1 CA          5.0863  -11.1871  -47.8713 C.3       0 UNK        -0.1800 
      2 C           3.8133  -11.8088  -47.3179 C.2       0 UNK         0.5000 
      3 O           3.3537  -11.4098  -46.2486 O.2       0 UNK        -0.5000 
      4 N           3.2301  -12.7677  -48.0492 N.am      1 UNK        -0.5000 
      5 CA          2.0391  -13.5507  -47.6771 C.3       1 UNK         0.1400 
      6 C6          1.7396  -14.6551  -48.7227 C.3       23 UNK        -0.0398 
      7 S7          3.1192  -15.8395  -48.8826 S.3       23 UNK        -0.2404 
      8 C8          2.7995  -16.5611  -50.5231 C.3       23 UNK        -0.0205 
      9 C9          1.8848  -17.7742  -50.4413 C.ar      23 UNK        -0.0193 
     10 C10         0.4968  -17.6280  -50.5231 C.ar      23 UNK        -0.1150 
     11 C11        -0.3378  -18.7495  -50.4788 C.ar      23 UNK        -0.0193 
     12 C12         0.2231  -20.0210  -50.3318 C.ar      23 UNK        -0.1150 
     13 C13         1.6093  -20.1807  -50.2555 C.ar      23 UNK        -0.0193 
     14 C14         2.4340  -19.0535  -50.3133 C.ar      23 UNK        -0.1150 
     15 C15         2.2107  -21.5743  -50.1319 C.3       23 UNK        -0.0205 
     16 S16         3.2139  -21.7959  -48.6247 S.3       23 UNK        -0.2404 
     17 C17         2.0508  -21.3369  -47.2955 C.3       23 UNK        -0.0398 
     18 CA          1.3158  -22.5478  -46.6754 C.3       11 UNK         0.1400 
     19 N           0.8591  -22.2615  -45.3151 N.am      11 UNK        -0.5000 
     20 C           0.3290  -23.1564  -44.4711 C.2       10 UNK         0.5000 
     21 O           0.2083  -24.3542  -44.7290 O.2       10 UNK        -0.5000 
     22 CA         -0.2049  -22.6052  -43.1356 C.3       10 UNK         0.1400 
     23 CB          0.9364  -22.3766  -42.1335 C.3       10 UNK        -0.1800 
     24 N          -0.9618  -21.3644  -43.3139 N.am      10 UNK        -0.5000 
     25 C          -2.1182  -21.2834  -43.9878 C.2       9 UNK         0.5000 
     26 O          -2.6954  -22.2584  -44.4705 O.2       9 UNK        -0.5000 
     27 CA         -2.7067  -19.8760  -44.1951 C.3       9 UNK         0.1400 
     28 CB         -3.4693  -19.4148  -42.9444 C.3       9 UNK        -0.1800 
     29 N          -1.6927  -18.8817  -44.5501 N.am      9 UNK        -0.5000 
     30 C          -0.9572  -18.9092  -45.6711 C.2       8 UNK         0.5000 
     31 O          -1.0801  -19.7603  -46.5468 O.2       8 UNK        -0.5000 
     32 CA          0.1359  -17.8394  -45.8226 C.3       8 UNK         0.1400 
     33 CB         -0.4730  -16.5120  -46.2865 C.3       8 UNK        -0.1800 
     34 N           0.8899  -17.6306  -44.5879 N.am      8 UNK        -0.5000 
     35 C           1.6149  -18.5712  -43.9664 C.2       7 UNK         0.5000 
     36 O           1.7612  -19.7162  -44.3902 O.2       7 UNK        -0.5000 
     37 CA          2.2318  -18.1839  -42.6140 C.3       7 UNK         0.1400 
     38 CB          3.5447  -17.4118  -42.8105 C.3       7 UNK        -0.1800 
     39 N           1.3005  -17.3925  -41.8110 N.am      7 UNK        -0.5000 
     40 C           0.1843  -17.8839  -41.2539 C.2       6 UNK         0.5000 
     41 O          -0.1465  -19.0691  -41.3145 O.2       6 UNK        -0.5000 
     42 CA         -0.7343  -16.8686  -40.5490 C.3       6 UNK         0.1400 
     43 CB         -0.2356  -16.5803  -39.1253 C.3       6 UNK        -0.1800 
     44 N          -0.8496  -15.6098  -41.2895 N.am      6 UNK        -0.5000 
     45 C          -1.4579  -15.4901  -42.4780 C.2       5 UNK         0.5000 
     46 O          -2.0157  -16.4240  -43.0520 O.2       5 UNK        -0.5000 
     47 CA         -1.4053  -14.1092  -43.1586 C.3       5 UNK         0.1400 
     48 CB         -2.5957  -13.2439  -42.7211 C.3       5 UNK        -0.1800 
     49 N          -0.1628  -13.3721  -42.9211 N.am      5 UNK        -0.5000 
     50 C           1.0628  -13.7829  -43.2698 C.2       4 UNK         0.5000 
     51 O           1.2944  -14.8884  -43.7617 O.2       4 UNK        -0.5000 
     52 CA          2.2076  -12.7784  -43.0336 C.3       4 UNK         0.1400 
     53 CB          3.5856  -13.3501  -43.4116 C.3       4 UNK        -0.1800 
     54 N           1.9914  -11.5459  -43.7890 N.am      4 UNK        -0.5000 
     55 C           1.1943  -10.5323  -43.4270 C.2       3 UNK         0.5000 
     56 O           0.5271  -10.5279  -42.3914 O.2       3 UNK        -0.5000 
     57 CA          1.1042   -9.3474  -44.4003 C.3       3 UNK         0.1400 
     58 CB          2.3856   -8.5000  -44.3502 C.3       3 UNK        -0.1800 
     59 N           0.8916   -9.8235  -45.7659 N.am      3 UNK        -0.5000 
     60 C          -0.3010   -9.8930  -46.3732 C.2       2 UNK         0.5000 
     61 O          -1.3524   -9.5020  -45.8647 O.2       2 UNK        -0.5000 
     62 CA         -0.3324  -10.5015  -47.7907 C.3       2 UNK         0.1400 
     63 CB         -0.2169   -9.3966  -48.8518 C.3       2 UNK        -0.1800 
     64 N           0.7219  -11.4914  -48.0180 N.am      2 UNK        -0.5000 
     65 C           0.7779  -12.6921  -47.4243 C.2       1 UNK         0.5000 
     66 O          -0.1066  -13.1194  -46.6834 O.2       1 UNK        -0.5000 
     67 C           0.1613  -23.0380  -47.5727 C.2       11 UNK         0.5000 
     68 O           0.3202  -24.0445  -48.2596 O.2       11 UNK        -0.5000 
     69 N          -0.9892  -22.3526  -47.5180 N.am      12 UNK        -0.5000 
     70 CA         -2.2196  -22.6982  -48.2303 C.3       12 UNK         0.1400 
     71 CB         -3.2902  -21.6300  -47.9528 C.3       12 UNK        -0.1800 
     72 C          -2.7501  -24.0946  -47.8669 C.2       12 UNK         0.5000 
     73 O          -3.1290  -24.8534  -48.7599 O.2       12 UNK        -0.5000 
     74 N          -2.7295  -24.4213  -46.5670 N.am      13 UNK        -0.5000 
     75 CA         -3.0931  -25.7349  -46.0388 C.3       13 UNK         0.1400 
     76 CB         -3.1761  -25.6683  -44.5064 C.3       13 UNK        -0.1800 
     77 C          -2.1267  -26.8451  -46.4918 C.2       13 UNK         0.5000 
     78 O          -2.5839  -27.9253  -46.8657 O.2       13 UNK        -0.5000 
     79 N          -0.8178  -26.5546  -46.4767 N.am      14 UNK        -0.5000 
     80 CA          0.2402  -27.4629  -46.9242 C.3       14 UNK         0.1400 
     81 CB          1.6070  -26.9130  -46.4879 C.3       14 UNK        -0.1800 
     82 C           0.2104  -27.7161  -48.4437 C.2       14 UNK         0.5000 
     83 O           0.3616  -28.8605  -48.8731 O.2       14 UNK        -0.5000 
     84 N           0.0007  -26.6493  -49.2263 N.am      15 UNK        -0.5000 
     85 CA         -0.1185  -26.6855  -50.6853 C.3       15 UNK         0.1400 
     86 CB          0.0430  -25.2578  -51.2332 C.3       15 UNK        -0.1800 
     87 C          -1.4490  -27.2878  -51.1746 C.2       15 UNK         0.5000 
     88 O          -1.5168  -27.7407  -52.3179 O.2       15 UNK        -0.5000 
     89 N          -2.4751  -27.2587  -50.3116 N.am      16 UNK        -0.5000 
     90 CA         -3.8718  -27.6196  -50.5666 C.3       16 UNK         0.1400 
     91 CB         -4.0134  -29.1238  -50.8798 C.3       16 UNK        -0.1800 
     92 C          -4.5145  -26.7024  -51.6285 C.2       16 UNK         0.5000 
     93 O          -5.2207  -27.1772  -52.5205 O.2       16 UNK        -0.5000 
     94 N          -4.2444  -25.3974  -51.5114 N.am      17 UNK        -0.5000 
     95 CA         -4.7395  -24.3472  -52.3920 C.3       17 UNK         0.1400 
     96 CB         -3.7188  -24.0752  -53.5112 C.3       17 UNK        -0.1800 
     97 C          -4.9791  -23.0996  -51.5384 C.2       17 UNK         0.5000 
     98 O          -4.0301  -22.5893  -50.9444 O.2       17 UNK        -0.5000 
     99 N          -6.2381  -22.6485  -51.4798 N.am      18 UNK        -0.5000 
    100 CA        -6.6914  -21.4725  -50.7323 C.3       18 UNK         0.1400 
    101 CB        -8.2253  -21.4108  -50.8257 C.3       18 UNK        -0.1800 
    102 C         -6.0722  -20.1521  -51.2327 C.2       18 UNK         0.5000 
    103 O         -5.4852  -20.1142  -52.3143 O.2       18 UNK        -0.5000 
    104 N         -6.2715  -19.0711  -50.4666 N.am      19 UNK        -0.5000 
    105 CA        -5.7489  -17.7229  -50.7299 C.3       19 UNK         0.1400 
    106 CB        -6.2044  -16.7868  -49.6002 C.3       19 UNK        -0.1800 
    107 C         -6.1143  -17.1217  -52.1062 C.2       19 UNK         0.5000 
    108 O         -5.3794  -16.2715  -52.6086 O.2       19 UNK        -0.5000 
    109 N         -7.2317  -17.5724  -52.6906 N.am      20 UNK        -0.5000 
    110 CA        -7.6852  -17.1901  -54.0285 C.3       20 UNK         0.1400 
    111 CB        -9.2222  -17.2215  -54.0435 C.3       20 UNK        -0.1800 
    112 C         -7.1237  -18.0952  -55.1463 C.2       20 UNK         0.5000 
    113 O         -7.2391  -17.7299  -56.3172 O.2       20 UNK        -0.5000 
    114 N         -6.5665  -19.2602  -54.7886 N.am      21 UNK        -0.5000 
    115 CA        -6.1139  -20.2974  -55.7180 C.3       21 UNK         0.1400 
    116 CB        -6.7343  -21.6389  -55.2936 C.3       21 UNK        -0.1800 
    117 C         -4.5815  -20.4227  -55.7744 C.2       21 UNK         0.5000 
    118 O         -4.0572  -20.8327  -56.8113 O.2       21 UNK        -0.5000 
    119 N         -3.8932  -20.1023  -54.6711 N.am      22 UNK        -0.5000 
    120 CA        -2.4308  -20.1679  -54.5341 C.3       22 UNK         0.1400 
    121 C         -1.6445  -19.2310  -55.5006 C.2       22 UNK         0.5000 
    122 N         -0.3931  -19.5557  -55.7996 N.am      22 UNK        -0.7600 
    123 O         -2.1402  -18.2057  -55.9645 O.2       22 UNK        -0.5000 
    124 C124       -1.9885  -19.9950  -53.0567 C.3       23 UNK        -0.0398 
    125 S125       -2.3498  -18.3517  -52.3424 S.3       23 UNK        -0.2404 
    126 C126       -1.8444  -18.5905  -50.6097 C.3       23 UNK        -0.0205 
    127 H127        4.9477  -10.1156  -48.0149 H         1 UNK         0.0600 
    128 H128        5.3698  -11.6262  -48.8280 H         1 UNK         0.0600 
    129 H129        5.9085  -11.3349  -47.1712 H         1 UNK         0.0600 
    130 H130        3.6681  -13.0495  -48.9148 H         1 UNK         0.3000 
    131 H131        2.2670  -14.0393  -46.7270 H         1 UNK         0.0600 
    132 H132        1.5390  -14.2021  -49.6950 H         1 UNK         0.0800 
    133 H133        0.8439  -15.2187  -48.4630 H         1 UNK         0.0800 
    134 H134        2.3808  -15.8124  -51.1970 H         1 UNK         0.0800 
    135 H135        3.7544  -16.8538  -50.9623 H         1 UNK         0.0800 
    136 H136        0.0652  -16.6439  -50.6397 H         1 UNK         0.1150 
    137 H137       -0.4217  -20.8880  -50.2947 H         1 UNK         0.1150 
    138 H138        3.5068  -19.1744  -50.2568 H         1 UNK         0.1150 
    139 H139        1.4319  -22.3374  -50.1578 H         1 UNK         0.0800 
    140 H140        2.8425  -21.7609  -51.0011 H         1 UNK         0.0800 
    141 H141        1.3528  -20.5662  -47.6237 H         1 UNK         0.0800 
    142 H142        2.6662  -20.8585  -46.5336 H         1 UNK         0.0800 
    143 H143        2.0304  -23.3691  -46.5881 H         1 UNK         0.0600 
    144 H144        0.9647  -21.3006  -44.9985 H         1 UNK         0.3000 
    145 H145       -0.8804  -23.3529  -42.7144 H         1 UNK         0.0600 
    146 H146        0.5523  -22.0409  -41.1700 H         1 UNK         0.0600 
    147 H147        1.4926  -23.2985  -41.9599 H         1 UNK         0.0600 
    148 H148        1.6446  -21.6279  -42.4883 H         1 UNK         0.0600 
    149 H149       -0.5625  -20.5203  -42.9204 H         1 UNK         0.3000 
    150 H150       -3.4178  -19.9327  -45.0214 H         1 UNK         0.0600 
    151 H151       -4.2350  -20.1390  -42.6637 H         1 UNK         0.0600 
    152 H152       -3.9709  -18.4628  -43.1187 H         1 UNK         0.0600 
    153 H153       -2.8044  -19.2900  -42.0894 H         1 UNK         0.0600 
    154 H154       -1.5754  -18.1038  -43.9070 H         1 UNK         0.3000 
    155 H155        0.8413  -18.1766  -46.5852 H         1 UNK         0.0600 
    156 H156        0.2752  -15.7218  -46.2843 H         1 UNK         0.0600 
    157 H157       -0.8680  -16.5988  -47.2993 H         1 UNK         0.0600 
    158 H158       -1.2919  -16.1917  -45.6435 H         1 UNK         0.0600 
    159 H159        0.8707  -16.6940  -44.1928 H         1 UNK         0.3000 
    160 H160        2.4570  -19.1034  -42.0693 H         1 UNK         0.0600 
    161 H161        3.3991  -16.5092  -43.4033 H         1 UNK         0.0600 
    162 H162        4.2793  -18.0266  -43.3319 H         1 UNK         0.0600 
    163 H163        3.9820  -17.1222  -41.8550 H         1 UNK         0.0600 
    164 H164        1.4674  -16.3979  -41.7711 H         1 UNK         0.3000 
    165 H165       -1.7289  -17.3144  -40.4778 H         1 UNK         0.0600 
    166 H166       -0.9229  -15.9226  -38.5928 H         1 UNK         0.0600 
    167 H167       -0.1552  -17.5016  -38.5467 H         1 UNK         0.0600 
    168 H168        0.7474  -16.1077  -39.1285 H         1 UNK         0.0600 
    169 H169       -0.4168  -14.7932  -40.8839 H         1 UNK         0.3000 
    170 H170       -1.4831  -14.2705  -44.2353 H         1 UNK         0.0600 
    171 H171       -3.5407  -13.7553  -42.9092 H         1 UNK         0.0600 
    172 H172       -2.5537  -13.0098  -41.6567 H         1 UNK         0.0600 
    173 H173       -2.6213  -12.3030  -43.2715 H         1 UNK         0.0600 
    174 H174       -0.2504  -12.4342  -42.5456 H         1 UNK         0.3000 
    175 H175        2.2256  -12.5444  -41.9673 H         1 UNK         0.0600 
    176 H176        3.8253  -14.2230  -42.8043 H         1 UNK         0.0600 
    177 H177        3.6246  -13.6528  -44.4589 H         1 UNK         0.0600 
    178 H178        4.3750  -12.6165  -43.2476 H         1 UNK         0.0600 
    179 H179        2.4887  -11.4802  -44.6751 H         1 UNK         0.3000 
    180 H180        0.2723   -8.7140  -44.0850 H         1 UNK         0.0600 
    181 H181        3.2628   -9.0683  -44.6622 H         1 UNK         0.0600 
    182 H182        2.5725   -8.1351  -43.3395 H         1 UNK         0.0600 
    183 H183        2.3046   -7.6289  -45.0005 H         1 UNK         0.0600 
    184 H184        1.6991  -10.2236  -46.2298 H         1 UNK         0.3000 
    185 H185       -1.2976  -10.9967  -47.9164 H         1 UNK         0.0600 
    186 H186       -1.0052   -8.6529  -48.7284 H         1 UNK         0.0600 
    187 H187        0.7391   -8.8753  -48.7880 H         1 UNK         0.0600 
    188 H188       -0.3115   -9.8044  -49.8584 H         1 UNK         0.0600 
    189 H189        1.4892  -11.2134  -48.6123 H         1 UNK         0.3000 
    190 H190       -1.0205  -21.4919  -46.9738 H         1 UNK         0.3000 
    191 H191       -1.9904  -22.6955  -49.2971 H         1 UNK         0.0600 
    192 H192       -3.5047  -21.5404  -46.8891 H         1 UNK         0.0600 
    193 H193       -4.2293  -21.8724  -48.4491 H         1 UNK         0.0600 
    194 H194       -2.9756  -20.6515  -48.3115 H         1 UNK         0.0600 
    195 H195       -2.4439  -23.7193  -45.8919 H         1 UNK         0.3000 
    196 H196       -4.0856  -25.9836  -46.4202 H         1 UNK         0.0600 
    197 H197       -3.4696  -26.6321  -44.0887 H         1 UNK         0.0600 
    198 H198       -3.9152  -24.9346  -44.1842 H         1 UNK         0.0600 
    199 H199       -2.2195  -25.3943  -44.0610 H         1 UNK         0.0600 
    200 H200       -0.5211  -25.6537  -46.1150 H         1 UNK         0.3000 
    201 H201        0.0897  -28.4228  -46.4258 H         1 UNK         0.0600 
    202 H202        1.6592  -26.8028  -45.4046 H         1 UNK         0.0600 
    203 H203        1.8110  -25.9385  -46.9320 H         1 UNK         0.0600 
    204 H204        2.4121  -27.5854  -46.7864 H         1 UNK         0.0600 
    205 H205       -0.0431  -25.7273  -48.7940 H         1 UNK         0.3000 
    206 H206        0.6915  -27.3005  -51.0827 H         1 UNK         0.0600 
    207 H207        1.0068  -24.8338  -50.9508 H         1 UNK         0.0600 
    208 H208       -0.0113  -25.2461  -52.3225 H         1 UNK         0.0600 
    209 H209       -0.7378  -24.5940  -50.8585 H         1 UNK         0.0600 
    210 H210       -2.3115  -26.8042  -49.4219 H         1 UNK         0.3000 
    211 H211       -4.4066  -27.4278  -49.6352 H         1 UNK         0.0600 
    212 H212       -3.5567  -29.3877  -51.8339 H         1 UNK         0.0600 
    213 H213       -5.0637  -29.4128  -50.9309 H         1 UNK         0.0600 
    214 H214       -3.5471  -29.7318  -50.1045 H         1 UNK         0.0600 
    215 H215       -3.7106  -25.0776  -50.7069 H         1 UNK         0.3000 
    216 H216       -5.6849  -24.6526  -52.8455 H         1 UNK         0.0600 
    217 H217       -2.7471  -23.7862  -53.1083 H         1 UNK         0.0600 
    218 H218       -4.0587  -23.2682  -54.1615 H         1 UNK         0.0600 
    219 H219       -3.5726  -24.9581  -54.1335 H         1 UNK         0.0600 
    220 H220       -6.9481  -23.1312  -52.0094 H         1 UNK         0.3000 
    221 H221       -6.4038  -21.6058  -49.6878 H         1 UNK         0.0600 
    222 H222       -8.6803  -22.3266  -50.4475 H         1 UNK         0.0600 
    223 H223       -8.5594  -21.2716  -51.8550 H         1 UNK         0.0600 
    224 H224       -8.6296  -20.5877  -50.2355 H         1 UNK         0.0600 
    225 H225       -6.7894  -19.1793  -49.6067 H         1 UNK         0.3000 
    226 H226       -4.6622  -17.7881  -50.6881 H         1 UNK         0.0600 
    227 H227       -5.8510  -17.1366  -48.6300 H         1 UNK         0.0600 
    228 H228       -5.8097  -15.7799  -49.7427 H         1 UNK         0.0600 
    229 H229       -7.2915  -16.7103  -49.5562 H         1 UNK         0.0600 
    230 H230       -7.7848  -18.2604  -52.2018 H         1 UNK         0.3000 
    231 H231       -7.3675  -16.1679  -54.2445 H         1 UNK         0.0600 
    232 H232       -9.6066  -18.2225  -53.8432 H         1 UNK         0.0600 
    233 H233       -9.6116  -16.9083  -55.0131 H         1 UNK         0.0600 
    234 H234       -9.6377  -16.5459  -53.2955 H         1 UNK         0.0600 
    235 H235       -6.4223  -19.4576  -53.8032 H         1 UNK         0.3000 
    236 H236       -6.4585  -20.0772  -56.7304 H         1 UNK         0.0600 
    237 H237       -7.8232  -21.5907  -55.3060 H         1 UNK         0.0600 
    238 H238       -6.4360  -22.4405  -55.9705 H         1 UNK         0.0600 
    239 H239       -6.4231  -21.9250  -54.2889 H         1 UNK         0.0600 
    240 H240       -4.4026  -19.8278  -53.8368 H         1 UNK         0.3000 
    241 H241       -2.1622  -21.1866  -54.8209 H         1 UNK         0.0600 
    242 H242        0.1317  -18.9547  -56.4159 H         1 UNK         0.3800 
    243 H243        0.0431  -20.3882  -55.4350 H         1 UNK         0.3800 
    244 H244       -0.9185  -20.1855  -52.9654 H         1 UNK         0.0800 
    245 H245       -2.4787  -20.7503  -52.4401 H         1 UNK         0.0800 
    246 H246       -2.1708  -17.7326  -50.0204 H         1 UNK         0.0800 
    247 H247       -2.3642  -19.4584  -50.2031 H         1 UNK         0.0800 
@<TRIPOS>BOND
     1    1    2 1    
     2    1  127 1    
     3    1  128 1    
     4    1  129 1    
     5    2    3 2    
     6    2    4 am   BACKBONE|DICT|INTERRES
     7    4    5 1    
     8    4  130 1    
     9    5    6 1    
    10    5   65 1    
    11    5  131 1    
    12    6    7 1    
    13    6  132 1    
    14    6  133 1    
    15    7    8 1    
    16    8    9 1    
    17    8  134 1    
    18    8  135 1    
    19    9   10 ar   
    20    9   14 ar   
    21   10   11 ar   
    22   10  136 1    
    23   11   12 ar   
    24   11  126 1    
    25   12   13 ar   
    26   12  137 1    
    27   13   14 ar   
    28   13   15 1    
    29   14  138 1    
    30   15   16 1    
    31   15  139 1    
    32   15  140 1    
    33   16   17 1    
    34   17   18 1    
    35   17  141 1    
    36   17  142 1    
    37   18   19 1    
    38   18   67 1    
    39   18  143 1    
    40   19   20 am   BACKBONE|DICT|INTERRES
    41   19  144 1    
    42   20   21 2    
    43   20   22 1    
    44   22   23 1    
    45   22   24 1    
    46   22  145 1    
    47   23  146 1    
    48   23  147 1    
    49   23  148 1    
    50   24   25 am   BACKBONE|DICT|INTERRES
    51   24  149 1    
    52   25   26 2    
    53   25   27 1    
    54   27   28 1    
    55   27   29 1    
    56   27  150 1    
    57   28  151 1    
    58   28  152 1    
    59   28  153 1    
    60   29   30 am   BACKBONE|DICT|INTERRES
    61   29  154 1    
    62   30   31 2    
    63   30   32 1    
    64   32   33 1    
    65   32   34 1    
    66   32  155 1    
    67   33  156 1    
    68   33  157 1    
    69   33  158 1    
    70   34   35 am   BACKBONE|DICT|INTERRES
    71   34  159 1    
    72   35   36 2    
    73   35   37 1    
    74   37   38 1    
    75   37   39 1    
    76   37  160 1    
    77   38  161 1    
    78   38  162 1    
    79   38  163 1    
    80   39   40 am   BACKBONE|DICT|INTERRES
    81   39  164 1    
    82   40   41 2    
    83   40   42 1    
    84   42   43 1    
    85   42   44 1    
    86   42  165 1    
    87   43  166 1    
    88   43  167 1    
    89   43  168 1    
    90   44   45 am   BACKBONE|DICT|INTERRES
    91   44  169 1    
    92   45   46 2    
    93   45   47 1    
    94   47   48 1    
    95   47   49 1    
    96   47  170 1    
    97   48  171 1    
    98   48  172 1    
    99   48  173 1    
   100   49   50 am   BACKBONE|DICT|INTERRES
   101   49  174 1    
   102   50   51 2    
   103   50   52 1    
   104   52   53 1    
   105   52   54 1    
   106   52  175 1    
   107   53  176 1    
   108   53  177 1    
   109   53  178 1    
   110   54   55 am   BACKBONE|DICT|INTERRES
   111   54  179 1    
   112   55   56 2    
   113   55   57 1    
   114   57   58 1    
   115   57   59 1    
   116   57  180 1    
   117   58  181 1    
   118   58  182 1    
   119   58  183 1    
   120   59   60 am   BACKBONE|DICT|INTERRES
   121   59  184 1    
   122   60   61 2    
   123   60   62 1    
   124   62   63 1    
   125   62   64 1    
   126   62  185 1    
   127   63  186 1    
   128   63  187 1    
   129   63  188 1    
   130   64   65 am   BACKBONE|DICT|INTERRES
   131   64  189 1    
   132   65   66 2    
   133   67   68 2    
   134   67   69 am   BACKBONE|DICT|INTERRES
   135   69   70 1    
   136   69  190 1    
   137   70   71 1    
   138   70   72 1    
   139   70  191 1    
   140   71  192 1    
   141   71  193 1    
   142   71  194 1    
   143   72   73 2    
   144   72   74 am   BACKBONE|DICT|INTERRES
   145   74   75 1    
   146   74  195 1    
   147   75   76 1    
   148   75   77 1    
   149   75  196 1    
   150   76  197 1    
   151   76  198 1    
   152   76  199 1    
   153   77   78 2    
   154   77   79 am   BACKBONE|DICT|INTERRES
   155   79   80 1    
   156   79  200 1    
   157   80   81 1    
   158   80   82 1    
   159   80  201 1    
   160   81  202 1    
   161   81  203 1    
   162   81  204 1    
   163   82   83 2    
   164   82   84 am   BACKBONE|DICT|INTERRES
   165   84   85 1    
   166   84  205 1    
   167   85   86 1    
   168   85   87 1    
   169   85  206 1    
   170   86  207 1    
   171   86  208 1    
   172   86  209 1    
   173   87   88 2    
   174   87   89 am   BACKBONE|DICT|INTERRES
   175   89   90 1    
   176   89  210 1    
   177   90   91 1    
   178   90   92 1    
   179   90  211 1    
   180   91  212 1    
   181   91  213 1    
   182   91  214 1    
   183   92   93 2    
   184   92   94 am   BACKBONE|DICT|INTERRES
   185   94   95 1    
   186   94  215 1    
   187   95   96 1    
   188   95   97 1    
   189   95  216 1    
   190   96  217 1    
   191   96  218 1    
   192   96  219 1    
   193   97   98 2    
   194   97   99 am   BACKBONE|DICT|INTERRES
   195   99  100 1    
   196   99  220 1    
   197  100  101 1    
   198  100  102 1    
   199  100  221 1    
   200  101  222 1    
   201  101  223 1    
   202  101  224 1    
   203  102  103 2    
   204  102  104 am   BACKBONE|DICT|INTERRES
   205  104  105 1    
   206  104  225 1    
   207  105  106 1    
   208  105  107 1    
   209  105  226 1    
   210  106  227 1    
   211  106  228 1    
   212  106  229 1    
   213  107  108 2    
   214  107  109 am   BACKBONE|DICT|INTERRES
   215  109  110 1    
   216  109  230 1    
   217  110  111 1    
   218  110  112 1    
   219  110  231 1    
   220  111  232 1    
   221  111  233 1    
   222  111  234 1    
   223  112  113 2    
   224  112  114 am   BACKBONE|DICT|INTERRES
   225  114  115 1    
   226  114  235 1    
   227  115  116 1    
   228  115  117 1    
   229  115  236 1    
   230  116  237 1    
   231  116  238 1    
   232  116  239 1    
   233  117  118 2    
   234  117  119 am   BACKBONE|DICT|INTERRES
   235  119  120 1    
   236  119  240 1    
   237  120  121 1    
   238  120  124 1    
   239  120  241 1    
   240  121  122 am   BACKBONE|DICT|INTERRES
   241  121  123 2    
   242  122  242 1    
   243  122  243 1    
   244  124  125 1    
   245  124  244 1    
   246  124  245 1    
   247  125  126 1    
   248  126  246 1    
   249  126  247 1    
@<TRIPOS>SUBSTRUCTURE
     1 UNK         1 GROUP             0       ****    0 ROOT    
