@<TRIPOS>MOLECULE
3R540
247   249    1
SMALL
USER_CHARGES


@<TRIPOS>ATOM
      1 CA          2.9550  -16.1695  -48.0977 C.3       0 UNK        -0.1800 
      2 C           2.3187  -15.3376  -46.9963 C.2       0 UNK         0.5000 
      3 O           3.0253  -14.7368  -46.1878 O.2       0 UNK        -0.5000 
      4 N           0.9831  -15.2627  -46.9795 N.am      1 UNK        -0.5000 
      5 CA          0.1712  -14.5229  -45.9999 C.3       1 UNK         0.1400 
      6 C6         -1.2617  -15.1041  -45.8713 C.3       23 UNK        -0.0398 
      7 S7         -1.2847  -16.8865  -45.4721 S.3       23 UNK        -0.2404 
      8 C8         -2.0884  -17.5863  -46.9506 C.3       23 UNK        -0.0205 
      9 C9         -1.1827  -17.5335  -48.1720 C.ar      23 UNK        -0.0193 
     10 C10        -1.3384  -16.5328  -49.1362 C.ar      23 UNK        -0.1150 
     11 C11        -0.4899  -16.4752  -50.2468 C.ar      23 UNK        -0.0193 
     12 C12         0.5030  -17.4489  -50.4016 C.ar      23 UNK        -0.1150 
     13 C13         0.6516  -18.4676  -49.4570 C.ar      23 UNK        -0.0193 
     14 C14        -0.1825  -18.4928  -48.3370 C.ar      23 UNK        -0.1150 
     15 C15         1.7207  -19.5366  -49.6316 C.3       23 UNK        -0.0205 
     16 S16         1.2571  -20.8178  -50.8468 S.3       23 UNK        -0.2404 
     17 C17        -0.3693  -21.4046  -50.2577 C.3       23 UNK        -0.0398 
     18 CA         -0.3211  -22.6933  -49.4036 C.3       11 UNK         0.1400 
     19 N           0.6171  -22.5905  -48.2838 N.am      11 UNK        -0.5000 
     20 C           1.0446  -23.6271  -47.5515 C.2       10 UNK         0.5000 
     21 O           0.6982  -24.7913  -47.7481 O.2       10 UNK        -0.5000 
     22 CA          1.9724  -23.2904  -46.3693 C.3       10 UNK         0.1400 
     23 CB          3.4381  -23.2618  -46.8263 C.3       10 UNK        -0.1800 
     24 N           1.6446  -22.0126  -45.7307 N.am      10 UNK        -0.5000 
     25 C           0.4868  -21.7200  -45.1253 C.2       9 UNK         0.5000 
     26 O          -0.4423  -22.5253  -45.0531 O.2       9 UNK        -0.5000 
     27 CA          0.3167  -20.2954  -44.5435 C.3       9 UNK         0.1400 
     28 CB         -0.6846  -20.2567  -43.3776 C.3       9 UNK        -0.1800 
     29 N           1.5581  -19.6414  -44.1133 N.am      9 UNK        -0.5000 
     30 C           2.5205  -19.1616  -44.9109 C.2       8 UNK         0.5000 
     31 O           2.4990  -19.2688  -46.1368 O.2       8 UNK        -0.5000 
     32 CA          3.6759  -18.4394  -44.2054 C.3       8 UNK         0.1400 
     33 CB          4.7799  -17.9570  -45.1669 C.3       8 UNK        -0.1800 
     34 N           3.1246  -17.3211  -43.4472 N.am      8 UNK        -0.5000 
     35 C           3.6996  -16.7429  -42.3871 C.2       7 UNK         0.5000 
     36 O           4.7925  -17.0799  -41.9297 O.2       7 UNK        -0.5000 
     37 CA          2.9127  -15.6047  -41.7105 C.3       7 UNK         0.1400 
     38 CB          3.2777  -14.2491  -42.3353 C.3       7 UNK        -0.1800 
     39 N           1.4612  -15.7795  -41.7798 N.am      7 UNK        -0.5000 
     40 C           0.7514  -16.7191  -41.1449 C.2       6 UNK         0.5000 
     41 O           1.2613  -17.5737  -40.4185 O.2       6 UNK        -0.5000 
     42 CA         -0.7815  -16.6863  -41.3567 C.3       6 UNK         0.1400 
     43 CB         -1.5128  -17.7724  -40.5452 C.3       6 UNK        -0.1800 
     44 N          -1.3989  -15.3914  -41.0486 N.am      6 UNK        -0.5000 
     45 C          -1.2837  -14.2674  -41.7646 C.2       5 UNK         0.5000 
     46 O          -0.5684  -14.1629  -42.7668 O.2       5 UNK        -0.5000 
     47 CA         -2.0830  -13.0520  -41.2748 C.3       5 UNK         0.1400 
     48 CB         -1.4388  -12.4299  -40.0229 C.3       5 UNK        -0.1800 
     49 N          -2.0879  -12.0833  -42.3589 N.am      5 UNK        -0.5000 
     50 C          -2.9305  -11.0655  -42.5520 C.2       4 UNK         0.5000 
     51 O          -3.8781  -10.8050  -41.8086 O.2       4 UNK        -0.5000 
     52 CA         -2.6344  -10.2016  -43.7969 C.3       4 UNK         0.1400 
     53 CB         -3.3309   -8.8247  -43.7752 C.3       4 UNK        -0.1800 
     54 N          -1.1894  -10.0834  -44.0365 N.am      4 UNK        -0.5000 
     55 C          -0.2824   -9.4712  -43.2552 C.2       3 UNK         0.5000 
     56 O          -0.5759   -8.7784  -42.2803 O.2       3 UNK        -0.5000 
     57 CA          1.2118   -9.7048  -43.5728 C.3       3 UNK         0.1400 
     58 CB          1.8894  -10.4487  -42.4094 C.3       3 UNK        -0.1800 
     59 N           1.4414  -10.4750  -44.7952 N.am      3 UNK        -0.5000 
     60 C           1.2980  -10.0171  -46.0450 C.2       2 UNK         0.5000 
     61 O           1.0305   -8.8465  -46.3168 O.2       2 UNK        -0.5000 
     62 CA          1.4462  -11.0489  -47.1809 C.3       2 UNK         0.1400 
     63 CB          2.8182  -10.9117  -47.8581 C.3       2 UNK        -0.1800 
     64 N           1.2683  -12.4432  -46.7599 N.am      2 UNK        -0.5000 
     65 C           0.1477  -12.9957  -46.2736 C.2       1 UNK         0.5000 
     66 O          -0.8700  -12.3393  -46.0427 O.2       1 UNK        -0.5000 
     67 C          -1.7459  -23.0572  -48.9291 C.2       11 UNK         0.5000 
     68 O          -2.4850  -23.7143  -49.6640 O.2       11 UNK        -0.5000 
     69 N          -2.1077  -22.6141  -47.7149 N.am      12 UNK        -0.5000 
     70 CA         -3.3764  -22.9324  -47.0623 C.3       12 UNK         0.1400 
     71 CB         -3.7002  -21.8760  -45.9964 C.3       12 UNK        -0.1800 
     72 C          -3.3480  -24.3459  -46.4618 C.2       12 UNK         0.5000 
     73 O          -4.3284  -25.0778  -46.5936 O.2       12 UNK        -0.5000 
     74 N          -2.2060  -24.7238  -45.8668 N.am      13 UNK        -0.5000 
     75 CA         -1.9343  -26.0649  -45.3419 C.3       13 UNK         0.1400 
     76 CB         -0.5763  -26.0696  -44.6253 C.3       13 UNK        -0.1800 
     77 C          -1.9875  -27.1617  -46.4244 C.2       13 UNK         0.5000 
     78 O          -2.4100  -28.2814  -46.1330 O.2       13 UNK        -0.5000 
     79 N          -1.6309  -26.8080  -47.6674 N.am      14 UNK        -0.5000 
     80 CA         -1.7759  -27.6186  -48.8798 C.3       14 UNK         0.1400 
     81 CB         -0.8372  -27.0527  -49.9608 C.3       14 UNK        -0.1800 
     82 C          -3.2443  -27.7117  -49.3622 C.2       14 UNK         0.5000 
     83 O          -3.5360  -27.4251  -50.5258 O.2       14 UNK        -0.5000 
     84 N          -4.1507  -28.0833  -48.4446 N.am      15 UNK        -0.5000 
     85 CA         -5.5959  -28.2978  -48.6157 C.3       15 UNK         0.1400 
     86 CB         -5.8350  -29.5758  -49.4457 C.3       15 UNK        -0.1800 
     87 C          -6.3664  -27.0848  -49.1869 C.2       15 UNK         0.5000 
     88 O          -7.4326  -27.2613  -49.7783 O.2       15 UNK        -0.5000 
     89 N          -5.7911  -25.8825  -49.0372 N.am      16 UNK        -0.5000 
     90 CA         -6.1863  -24.6070  -49.6445 C.3       16 UNK         0.1400 
     91 CB         -7.5181  -24.1083  -49.0505 C.3       16 UNK        -0.1800 
     92 C          -6.1872  -24.6028  -51.1905 C.2       16 UNK         0.5000 
     93 O          -6.7313  -23.6749  -51.7911 O.2       16 UNK        -0.5000 
     94 N          -5.5671  -25.6132  -51.8170 N.am      17 UNK        -0.5000 
     95 CA         -5.5118  -25.7748  -53.2681 C.3       17 UNK         0.1400 
     96 CB         -5.1531  -27.2295  -53.6072 C.3       17 UNK        -0.1800 
     97 C          -4.5115  -24.7989  -53.9024 C.2       17 UNK         0.5000 
     98 O          -4.8122  -24.1973  -54.9336 O.2       17 UNK        -0.5000 
     99 N          -3.3523  -24.6353  -53.2512 N.am      18 UNK        -0.5000 
    100 CA        -2.3169  -23.6889  -53.6580 C.3       18 UNK         0.1400 
    101 CB        -0.9815  -24.0860  -53.0154 C.3       18 UNK        -0.1800 
    102 C         -2.6867  -22.2372  -53.3120 C.2       18 UNK         0.5000 
    103 O         -2.3124  -21.3314  -54.0563 O.2       18 UNK        -0.5000 
    104 N         -3.4251  -22.0349  -52.2083 N.am      19 UNK        -0.5000 
    105 CA        -3.8577  -20.7257  -51.6996 C.3       19 UNK         0.1400 
    106 CB        -4.5832  -20.9034  -50.3577 C.3       19 UNK        -0.1800 
    107 C         -4.7420  -19.9264  -52.6731 C.2       19 UNK         0.5000 
    108 O         -4.7519  -18.6981  -52.6060 O.2       19 UNK        -0.5000 
    109 N         -5.4301  -20.6272  -53.5840 N.am      20 UNK        -0.5000 
    110 CA        -6.2238  -20.0450  -54.6666 C.3       20 UNK         0.1400 
    111 CB        -7.0080  -21.1691  -55.3605 C.3       20 UNK        -0.1800 
    112 C         -5.3862  -19.2561  -55.6961 C.2       20 UNK         0.5000 
    113 O         -5.9328  -18.3749  -56.3608 O.2       20 UNK        -0.5000 
    114 N         -4.0905  -19.5800  -55.8095 N.am      21 UNK        -0.5000 
    115 CA        -3.1396  -18.9471  -56.7252 C.3       21 UNK         0.1400 
    116 CB        -2.6868  -20.0042  -57.7472 C.3       21 UNK        -0.1800 
    117 C         -1.9226  -18.3434  -55.9956 C.2       21 UNK         0.5000 
    118 O         -1.0566  -17.7748  -56.6623 O.2       21 UNK        -0.5000 
    119 N         -1.8535  -18.4935  -54.6639 N.am      22 UNK        -0.5000 
    120 CA        -0.6750  -18.2123  -53.8211 C.3       22 UNK         0.1400 
    121 C          0.5595  -19.0953  -54.1861 C.2       22 UNK         0.5000 
    122 N          0.3512  -20.3527  -54.5577 N.am      22 UNK        -0.7600 
    123 O          1.7051  -18.6561  -54.1288 O.2       22 UNK        -0.5000 
    124 C124       -0.3510  -16.6949  -53.7153 C.3       23 UNK        -0.0398 
    125 S125       -1.5945  -15.8009  -52.7221 S.3       23 UNK        -0.2404 
    126 C126       -0.6251  -15.3359  -51.2493 C.3       23 UNK        -0.0205 
    127 H127        4.0241  -15.9678  -48.1646 H         1 UNK         0.0600 
    128 H128        2.5081  -15.9375  -49.0638 H         1 UNK         0.0600 
    129 H129        2.8211  -17.2312  -47.8948 H         1 UNK         0.0600 
    130 H130        0.4566  -15.7846  -47.6674 H         1 UNK         0.3000 
    131 H131        0.6523  -14.6422  -45.0277 H         1 UNK         0.0600 
    132 H132       -1.8321  -14.9188  -46.7816 H         1 UNK         0.0800 
    133 H133       -1.8078  -14.5951  -45.0757 H         1 UNK         0.0800 
    134 H134       -3.0274  -17.0644  -47.1412 H         1 UNK         0.0800 
    135 H135       -2.3565  -18.6235  -46.7446 H         1 UNK         0.0800 
    136 H136       -2.1123  -15.7877  -49.0165 H         1 UNK         0.1150 
    137 H137        1.1683  -17.4177  -51.2519 H         1 UNK         0.1150 
    138 H138       -0.0569  -19.2668  -47.5954 H         1 UNK         0.1150 
    139 H139        2.6483  -19.0652  -49.9593 H         1 UNK         0.0800 
    140 H140        1.9509  -20.0089  -48.6765 H         1 UNK         0.0800 
    141 H141       -0.9533  -21.5934  -51.1550 H         1 UNK         0.0800 
    142 H142       -0.8994  -20.6089  -49.7381 H         1 UNK         0.0800 
    143 H143        0.0303  -23.5074  -50.0397 H         1 UNK         0.0600 
    144 H144        0.9713  -21.6716  -48.0689 H         1 UNK         0.3000 
    145 H145        1.8598  -24.0774  -45.6216 H         1 UNK         0.0600 
    146 H146        4.1107  -23.1023  -45.9833 H         1 UNK         0.0600 
    147 H147        3.7205  -24.2068  -47.2924 H         1 UNK         0.0600 
    148 H148        3.6180  -22.4691  -47.5539 H         1 UNK         0.0600 
    149 H149        2.3248  -21.2667  -45.8166 H         1 UNK         0.3000 
    150 H150       -0.1087  -19.6950  -45.3476 H         1 UNK         0.0600 
    151 H151       -1.6473  -20.6836  -43.6576 H         1 UNK         0.0600 
    152 H152       -0.8768  -19.2301  -43.0712 H         1 UNK         0.0600 
    153 H153       -0.3174  -20.8087  -42.5119 H         1 UNK         0.0600 
    154 H154        1.6767  -19.5383  -43.1156 H         1 UNK         0.3000 
    155 H155        4.1174  -19.1583  -43.5121 H         1 UNK         0.0600 
    156 H156        4.4130  -17.1901  -45.8468 H         1 UNK         0.0600 
    157 H157        5.1618  -18.7803  -45.7717 H         1 UNK         0.0600 
    158 H158        5.6254  -17.5385  -44.6212 H         1 UNK         0.0600 
    159 H159        2.2212  -16.9848  -43.7501 H         1 UNK         0.3000 
    160 H160        3.2005  -15.5850  -40.6574 H         1 UNK         0.0600 
    161 H161        2.9673  -14.1898  -43.3794 H         1 UNK         0.0600 
    162 H162        4.3546  -14.0793  -42.3024 H         1 UNK         0.0600 
    163 H163        2.8038  -13.4290  -41.7963 H         1 UNK         0.0600 
    164 H164        0.9371  -15.0973  -42.3228 H         1 UNK         0.3000 
    165 H165       -0.9518  -16.8935  -42.4146 H         1 UNK         0.0600 
    166 H166       -2.5721  -17.8075  -40.8000 H         1 UNK         0.0600 
    167 H167       -1.1027  -18.7634  -40.7416 H         1 UNK         0.0600 
    168 H168       -1.4307  -17.5940  -39.4724 H         1 UNK         0.0600 
    169 H169       -1.9752  -15.3720  -40.2196 H         1 UNK         0.3000 
    170 H170       -3.1067  -13.3643  -41.0596 H         1 UNK         0.0600 
    171 H171       -1.4160  -13.1401  -39.1958 H         1 UNK         0.0600 
    172 H172       -0.4123  -12.1146  -40.2157 H         1 UNK         0.0600 
    173 H173       -1.9963  -11.5570  -39.6830 H         1 UNK         0.0600 
    174 H174       -1.3715  -12.2646  -43.0514 H         1 UNK         0.3000 
    175 H175       -3.0341  -10.7543  -44.6484 H         1 UNK         0.0600 
    176 H176       -3.0635   -8.2432  -42.8928 H         1 UNK         0.0600 
    177 H177       -3.0719   -8.2380  -44.6565 H         1 UNK         0.0600 
    178 H178       -4.4153   -8.9397  -43.7693 H         1 UNK         0.0600 
    179 H179       -0.8448  -10.6450  -44.8074 H         1 UNK         0.3000 
    180 H180        1.6836   -8.7261  -43.6817 H         1 UNK         0.0600 
    181 H181        2.9502  -10.6087  -42.6038 H         1 UNK         0.0600 
    182 H182        1.4276  -11.4214  -42.2345 H         1 UNK         0.0600 
    183 H183        1.8139   -9.8800  -41.4817 H         1 UNK         0.0600 
    184 H184        1.6710  -11.4505  -44.6765 H         1 UNK         0.3000 
    185 H185        0.6745  -10.8265  -47.9206 H         1 UNK         0.0600 
    186 H186        2.9004  -11.5732  -48.7207 H         1 UNK         0.0600 
    187 H187        2.9802   -9.8935  -48.2145 H         1 UNK         0.0600 
    188 H188        3.6304  -11.1531  -47.1711 H         1 UNK         0.0600 
    189 H189        2.0749  -13.0507  -46.8508 H         1 UNK         0.3000 
    190 H190       -1.4250  -22.1298  -47.1511 H         1 UNK         0.3000 
    191 H191       -4.1722  -22.8969  -47.8053 H         1 UNK         0.0600 
    192 H192       -4.6857  -22.0538  -45.5644 H         1 UNK         0.0600 
    193 H193       -3.7087  -20.8730  -46.4232 H         1 UNK         0.0600 
    194 H194       -2.9818  -21.8889  -45.1785 H         1 UNK         0.0600 
    195 H195       -1.4728  -24.0320  -45.7441 H         1 UNK         0.3000 
    196 H196       -2.7085  -26.2908  -44.6060 H         1 UNK         0.0600 
    197 H197        0.2448  -25.8879  -45.3179 H         1 UNK         0.0600 
    198 H198       -0.5355  -25.3063  -43.8479 H         1 UNK         0.0600 
    199 H199       -0.3927  -27.0326  -44.1473 H         1 UNK         0.0600 
    200 H200       -1.2480  -25.8801  -47.7977 H         1 UNK         0.3000 
    201 H201       -1.4495  -28.6359  -48.6552 H         1 UNK         0.0600 
    202 H202       -1.1134  -26.0356  -50.2385 H         1 UNK         0.0600 
    203 H203       -0.8660  -27.6609  -50.8656 H         1 UNK         0.0600 
    204 H204        0.1967  -27.0345  -49.6153 H         1 UNK         0.0600 
    205 H205       -3.7922  -28.2642  -47.5114 H         1 UNK         0.3000 
    206 H206       -5.9992  -28.4675  -47.6165 H         1 UNK         0.0600 
    207 H207       -5.3015  -30.4268  -49.0223 H         1 UNK         0.0600 
    208 H208       -6.8929  -29.8397  -49.4696 H         1 UNK         0.0600 
    209 H209       -5.5042  -29.4522  -50.4777 H         1 UNK         0.0600 
    210 H210       -4.9538  -25.8430  -48.4673 H         1 UNK         0.3000 
    211 H211       -5.4136  -23.8947  -49.3623 H         1 UNK         0.0600 
    212 H212       -7.7433  -23.0951  -49.3856 H         1 UNK         0.0600 
    213 H213       -7.4781  -24.0858  -47.9614 H         1 UNK         0.0600 
    214 H214       -8.3547  -24.7429  -49.3437 H         1 UNK         0.0600 
    215 H215       -5.0863  -26.3142  -51.2621 H         1 UNK         0.3000 
    216 H216       -6.5005  -25.5634  -53.6812 H         1 UNK         0.0600 
    217 H217       -4.1691  -27.5043  -53.2251 H         1 UNK         0.0600 
    218 H218       -5.1423  -27.3868  -54.6864 H         1 UNK         0.0600 
    219 H219       -5.8804  -27.9226  -53.1837 H         1 UNK         0.0600 
    220 H220       -3.1894  -25.1670  -52.4072 H         1 UNK         0.3000 
    221 H221       -2.1959  -23.7436  -54.7422 H         1 UNK         0.0600 
    222 H222       -0.6346  -25.0466  -53.3966 H         1 UNK         0.0600 
    223 H223       -1.0705  -24.1735  -51.9348 H         1 UNK         0.0600 
    224 H224       -0.2036  -23.3510  -53.2278 H         1 UNK         0.0600 
    225 H225       -3.6654  -22.8389  -51.6457 H         1 UNK         0.3000 
    226 H226       -2.9611  -20.1278  -51.5238 H         1 UNK         0.0600 
    227 H227       -5.4510  -21.5563  -50.4512 H         1 UNK         0.0600 
    228 H228       -3.9223  -21.3203  -49.6025 H         1 UNK         0.0600 
    229 H229       -4.9356  -19.9453  -49.9729 H         1 UNK         0.0600 
    230 H230       -5.3727  -21.6356  -53.5564 H         1 UNK         0.3000 
    231 H231       -6.9391  -19.3498  -54.2224 H         1 UNK         0.0600 
    232 H232       -6.3404  -21.9031  -55.8139 H         1 UNK         0.0600 
    233 H233       -7.6456  -20.7716  -56.1513 H         1 UNK         0.0600 
    234 H234       -7.6534  -21.6940  -54.6557 H         1 UNK         0.0600 
    235 H235       -3.7179  -20.3227  -55.2286 H         1 UNK         0.3000 
    236 H236       -3.6130  -18.1267  -57.2677 H         1 UNK         0.0600 
    237 H237       -3.5362  -20.4075  -58.2988 H         1 UNK         0.0600 
    238 H238       -1.9994  -19.5781  -58.4790 H         1 UNK         0.0600 
    239 H239       -2.1765  -20.8370  -57.2612 H         1 UNK         0.0600 
    240 H240       -2.6116  -18.9732  -54.2031 H         1 UNK         0.3000 
    241 H241       -0.9421  -18.5521  -52.8195 H         1 UNK         0.0600 
    242 H242        1.1348  -20.9388  -54.7942 H         1 UNK         0.3800 
    243 H243       -0.5913  -20.7309  -54.5554 H         1 UNK         0.3800 
    244 H244       -0.2970  -16.2362  -54.7024 H         1 UNK         0.0800 
    245 H245        0.6301  -16.5275  -53.2724 H         1 UNK         0.0800 
    246 H246        0.3614  -14.9761  -51.5449 H         1 UNK         0.0800 
    247 H247       -1.1163  -14.4855  -50.7737 H         1 UNK         0.0800 
@<TRIPOS>BOND
     1    1    2 1    
     2    1  127 1    
     3    1  128 1    
     4    1  129 1    
     5    2    3 2    
     6    2    4 am   BACKBONE|DICT|INTERRES
     7    4    5 1    
     8    4  130 1    
     9    5    6 1    
    10    5   65 1    
    11    5  131 1    
    12    6    7 1    
    13    6  132 1    
    14    6  133 1    
    15    7    8 1    
    16    8    9 1    
    17    8  134 1    
    18    8  135 1    
    19    9   10 ar   
    20    9   14 ar   
    21   10   11 ar   
    22   10  136 1    
    23   11   12 ar   
    24   11  126 1    
    25   12   13 ar   
    26   12  137 1    
    27   13   14 ar   
    28   13   15 1    
    29   14  138 1    
    30   15   16 1    
    31   15  139 1    
    32   15  140 1    
    33   16   17 1    
    34   17   18 1    
    35   17  141 1    
    36   17  142 1    
    37   18   19 1    
    38   18   67 1    
    39   18  143 1    
    40   19   20 am   BACKBONE|DICT|INTERRES
    41   19  144 1    
    42   20   21 2    
    43   20   22 1    
    44   22   23 1    
    45   22   24 1    
    46   22  145 1    
    47   23  146 1    
    48   23  147 1    
    49   23  148 1    
    50   24   25 am   BACKBONE|DICT|INTERRES
    51   24  149 1    
    52   25   26 2    
    53   25   27 1    
    54   27   28 1    
    55   27   29 1    
    56   27  150 1    
    57   28  151 1    
    58   28  152 1    
    59   28  153 1    
    60   29   30 am   BACKBONE|DICT|INTERRES
    61   29  154 1    
    62   30   31 2    
    63   30   32 1    
    64   32   33 1    
    65   32   34 1    
    66   32  155 1    
    67   33  156 1    
    68   33  157 1    
    69   33  158 1    
    70   34   35 am   BACKBONE|DICT|INTERRES
    71   34  159 1    
    72   35   36 2    
    73   35   37 1    
    74   37   38 1    
    75   37   39 1    
    76   37  160 1    
    77   38  161 1    
    78   38  162 1    
    79   38  163 1    
    80   39   40 am   BACKBONE|DICT|INTERRES
    81   39  164 1    
    82   40   41 2    
    83   40   42 1    
    84   42   43 1    
    85   42   44 1    
    86   42  165 1    
    87   43  166 1    
    88   43  167 1    
    89   43  168 1    
    90   44   45 am   BACKBONE|DICT|INTERRES
    91   44  169 1    
    92   45   46 2    
    93   45   47 1    
    94   47   48 1    
    95   47   49 1    
    96   47  170 1    
    97   48  171 1    
    98   48  172 1    
    99   48  173 1    
   100   49   50 am   BACKBONE|DICT|INTERRES
   101   49  174 1    
   102   50   51 2    
   103   50   52 1    
   104   52   53 1    
   105   52   54 1    
   106   52  175 1    
   107   53  176 1    
   108   53  177 1    
   109   53  178 1    
   110   54   55 am   BACKBONE|DICT|INTERRES
   111   54  179 1    
   112   55   56 2    
   113   55   57 1    
   114   57   58 1    
   115   57   59 1    
   116   57  180 1    
   117   58  181 1    
   118   58  182 1    
   119   58  183 1    
   120   59   60 am   BACKBONE|DICT|INTERRES
   121   59  184 1    
   122   60   61 2    
   123   60   62 1    
   124   62   63 1    
   125   62   64 1    
   126   62  185 1    
   127   63  186 1    
   128   63  187 1    
   129   63  188 1    
   130   64   65 am   BACKBONE|DICT|INTERRES
   131   64  189 1    
   132   65   66 2    
   133   67   68 2    
   134   67   69 am   BACKBONE|DICT|INTERRES
   135   69   70 1    
   136   69  190 1    
   137   70   71 1    
   138   70   72 1    
   139   70  191 1    
   140   71  192 1    
   141   71  193 1    
   142   71  194 1    
   143   72   73 2    
   144   72   74 am   BACKBONE|DICT|INTERRES
   145   74   75 1    
   146   74  195 1    
   147   75   76 1    
   148   75   77 1    
   149   75  196 1    
   150   76  197 1    
   151   76  198 1    
   152   76  199 1    
   153   77   78 2    
   154   77   79 am   BACKBONE|DICT|INTERRES
   155   79   80 1    
   156   79  200 1    
   157   80   81 1    
   158   80   82 1    
   159   80  201 1    
   160   81  202 1    
   161   81  203 1    
   162   81  204 1    
   163   82   83 2    
   164   82   84 am   BACKBONE|DICT|INTERRES
   165   84   85 1    
   166   84  205 1    
   167   85   86 1    
   168   85   87 1    
   169   85  206 1    
   170   86  207 1    
   171   86  208 1    
   172   86  209 1    
   173   87   88 2    
   174   87   89 am   BACKBONE|DICT|INTERRES
   175   89   90 1    
   176   89  210 1    
   177   90   91 1    
   178   90   92 1    
   179   90  211 1    
   180   91  212 1    
   181   91  213 1    
   182   91  214 1    
   183   92   93 2    
   184   92   94 am   BACKBONE|DICT|INTERRES
   185   94   95 1    
   186   94  215 1    
   187   95   96 1    
   188   95   97 1    
   189   95  216 1    
   190   96  217 1    
   191   96  218 1    
   192   96  219 1    
   193   97   98 2    
   194   97   99 am   BACKBONE|DICT|INTERRES
   195   99  100 1    
   196   99  220 1    
   197  100  101 1    
   198  100  102 1    
   199  100  221 1    
   200  101  222 1    
   201  101  223 1    
   202  101  224 1    
   203  102  103 2    
   204  102  104 am   BACKBONE|DICT|INTERRES
   205  104  105 1    
   206  104  225 1    
   207  105  106 1    
   208  105  107 1    
   209  105  226 1    
   210  106  227 1    
   211  106  228 1    
   212  106  229 1    
   213  107  108 2    
   214  107  109 am   BACKBONE|DICT|INTERRES
   215  109  110 1    
   216  109  230 1    
   217  110  111 1    
   218  110  112 1    
   219  110  231 1    
   220  111  232 1    
   221  111  233 1    
   222  111  234 1    
   223  112  113 2    
   224  112  114 am   BACKBONE|DICT|INTERRES
   225  114  115 1    
   226  114  235 1    
   227  115  116 1    
   228  115  117 1    
   229  115  236 1    
   230  116  237 1    
   231  116  238 1    
   232  116  239 1    
   233  117  118 2    
   234  117  119 am   BACKBONE|DICT|INTERRES
   235  119  120 1    
   236  119  240 1    
   237  120  121 1    
   238  120  124 1    
   239  120  241 1    
   240  121  122 am   BACKBONE|DICT|INTERRES
   241  121  123 2    
   242  122  242 1    
   243  122  243 1    
   244  124  125 1    
   245  124  244 1    
   246  124  245 1    
   247  125  126 1    
   248  126  246 1    
   249  126  247 1    
@<TRIPOS>SUBSTRUCTURE
     1 UNK         1 GROUP             0       ****    0 ROOT    
