@<TRIPOS>MOLECULE
3R540
247   249    1
SMALL
USER_CHARGES


@<TRIPOS>ATOM
      1 CA          1.1189  -12.5618  -48.9662 C.3       0 UNK        -0.1800 
      2 C           2.3127  -12.8486  -48.0660 C.2       0 UNK         0.5000 
      3 O           2.1275  -13.3975  -46.9830 O.2       0 UNK        -0.5000 
      4 N           3.5169  -12.4646  -48.5171 N.am      1 UNK        -0.5000 
      5 CA          4.8662  -12.6417  -47.9401 C.3       1 UNK         0.1400 
      6 C6          5.5440  -14.0265  -48.1946 C.3       23 UNK        -0.0398 
      7 S7          4.4821  -15.5158  -48.1706 S.3       23 UNK        -0.2404 
      8 C8          4.6897  -16.0536  -49.8956 C.3       23 UNK        -0.0205 
      9 C9          3.7188  -17.1529  -50.2907 C.ar      23 UNK        -0.0193 
     10 C10         2.5671  -16.8367  -51.0144 C.ar      23 UNK        -0.1150 
     11 C11         1.7014  -17.8415  -51.4559 C.ar      23 UNK        -0.0193 
     12 C12         2.0026  -19.1774  -51.1682 C.ar      23 UNK        -0.1150 
     13 C13         3.1564  -19.5086  -50.4475 C.ar      23 UNK        -0.0193 
     14 C14         4.0038  -18.4897  -50.0014 C.ar      23 UNK        -0.1150 
     15 C15         3.5318  -20.9656  -50.2082 C.3       23 UNK        -0.0205 
     16 S16         2.8723  -21.6120  -48.6406 S.3       23 UNK        -0.2404 
     17 C17         1.1240  -21.8491  -49.0855 C.3       23 UNK        -0.0398 
     18 CA          0.3505  -22.7440  -48.0885 C.3       11 UNK         0.1400 
     19 N           0.2997  -22.1936  -46.7289 N.am      11 UNK        -0.5000 
     20 C          -0.2344  -22.8208  -45.6694 C.2       10 UNK         0.5000 
     21 O          -0.6646  -23.9731  -45.7018 O.2       10 UNK        -0.5000 
     22 CA         -0.3808  -22.0069  -44.3721 C.3       10 UNK         0.1400 
     23 CB          0.9144  -22.0221  -43.5460 C.3       10 UNK        -0.1800 
     24 N          -0.8013  -20.6313  -44.6420 N.am      10 UNK        -0.5000 
     25 C          -2.0278  -20.2975  -45.0703 C.2       9 UNK         0.5000 
     26 O          -2.9387  -21.1110  -45.2186 O.2       9 UNK        -0.5000 
     27 CA         -2.2758  -18.8197  -45.4247 C.3       9 UNK         0.1400 
     28 CB         -2.7962  -18.0530  -44.2003 C.3       9 UNK        -0.1800 
     29 N          -1.0881  -18.1485  -45.9525 N.am      9 UNK        -0.5000 
     30 C          -0.4960  -18.4564  -47.1141 C.2       8 UNK         0.5000 
     31 O          -0.9183  -19.3240  -47.8789 O.2       8 UNK        -0.5000 
     32 CA          0.8177  -17.7166  -47.4365 C.3       8 UNK         0.1400 
     33 CB          0.5352  -16.2925  -47.9331 C.3       8 UNK        -0.1800 
     34 N           1.7449  -17.6599  -46.3015 N.am      8 UNK        -0.5000 
     35 C           2.2381  -18.7249  -45.6565 C.2       7 UNK         0.5000 
     36 O           1.9565  -19.8826  -45.9578 O.2       7 UNK        -0.5000 
     37 CA          3.1338  -18.4793  -44.4261 C.3       7 UNK         0.1400 
     38 CB          4.5721  -18.0977  -44.8288 C.3       7 UNK        -0.1800 
     39 N           2.5370  -17.5441  -43.4617 N.am      7 UNK        -0.5000 
     40 C           2.3814  -16.2203  -43.5871 C.2       6 UNK         0.5000 
     41 O           2.8720  -15.5545  -44.4990 O.2       6 UNK        -0.5000 
     42 CA          1.4712  -15.5400  -42.5433 C.3       6 UNK         0.1400 
     43 CB          2.2785  -14.9799  -41.3633 C.3       6 UNK        -0.1800 
     44 N           0.6683  -14.4716  -43.1414 N.am      6 UNK        -0.5000 
     45 C          -0.2122  -14.6642  -44.1357 C.2       5 UNK         0.5000 
     46 O          -0.5090  -15.7823  -44.5589 O.2       5 UNK        -0.5000 
     47 CA         -0.8653  -13.4109  -44.7548 C.3       5 UNK         0.1400 
     48 CB         -2.1408  -13.7313  -45.5628 C.3       5 UNK        -0.1800 
     49 N          -1.1132  -12.3515  -43.7735 N.am      5 UNK        -0.5000 
     50 C          -1.8874  -12.4154  -42.6780 C.2       4 UNK         0.5000 
     51 O          -2.5968  -13.3822  -42.3955 O.2       4 UNK        -0.5000 
     52 CA         -1.8562  -11.1877  -41.7367 C.3       4 UNK         0.1400 
     53 CB         -2.0827  -11.5709  -40.2589 C.3       4 UNK        -0.1800 
     54 N          -0.6476  -10.3615  -41.8775 N.am      4 UNK        -0.5000 
     55 C           0.6205  -10.7487  -41.6775 C.2       3 UNK         0.5000 
     56 O           0.9517  -11.8733  -41.2951 O.2       3 UNK        -0.5000 
     57 CA          1.7028   -9.7004  -41.9940 C.3       3 UNK         0.1400 
     58 CB          2.1550   -8.9903  -40.7091 C.3       3 UNK        -0.1800 
     59 N           2.8719  -10.2843  -42.6545 N.am      3 UNK        -0.5000 
     60 C           2.8580  -10.9626  -43.8102 C.2       2 UNK         0.5000 
     61 O           1.8414  -11.1551  -44.4840 O.2       2 UNK        -0.5000 
     62 CA          4.2182  -11.4949  -44.2848 C.3       2 UNK         0.1400 
     63 CB          4.7635  -12.5988  -43.3599 C.3       2 UNK        -0.1800 
     64 N           4.1162  -12.0031  -45.6488 N.am      2 UNK        -0.5000 
     65 C           5.1295  -12.1099  -46.5092 C.2       1 UNK         0.5000 
     66 O           6.2787  -11.7680  -46.2209 O.2       1 UNK        -0.5000 
     67 C          -1.0644  -23.0267  -48.6300 C.2       11 UNK         0.5000 
     68 O          -1.3110  -24.1232  -49.1326 O.2       11 UNK        -0.5000 
     69 N          -1.9723  -22.0506  -48.4778 N.am      12 UNK        -0.5000 
     70 CA         -3.3818  -22.1616  -48.8547 C.3       12 UNK         0.1400 
     71 CB         -4.0872  -20.8173  -48.6236 C.3       12 UNK        -0.1800 
     72 C          -4.1077  -23.2907  -48.1021 C.2       12 UNK         0.5000 
     73 O          -4.8247  -24.0685  -48.7297 O.2       12 UNK        -0.5000 
     74 N          -3.8833  -23.3828  -46.7831 N.am      13 UNK        -0.5000 
     75 CA         -4.4296  -24.4268  -45.9159 C.3       13 UNK         0.1400 
     76 CB         -4.1338  -24.0923  -44.4466 C.3       13 UNK        -0.1800 
     77 C          -3.9134  -25.8321  -46.2709 C.2       13 UNK         0.5000 
     78 O          -4.7138  -26.7644  -46.3462 O.2       13 UNK        -0.5000 
     79 N          -2.6027  -25.9573  -46.5260 N.am      14 UNK        -0.5000 
     80 CA         -1.9517  -27.1998  -46.9543 C.3       14 UNK         0.1400 
     81 CB         -0.4287  -27.0013  -46.9738 C.3       14 UNK        -0.1800 
     82 C          -2.4518  -27.6997  -48.3232 C.2       14 UNK         0.5000 
     83 O          -2.5971  -28.9067  -48.5181 O.2       14 UNK        -0.5000 
     84 N          -2.7459  -26.7578  -49.2271 N.am      15 UNK        -0.5000 
     85 CA         -3.3500  -26.9976  -50.5370 C.3       15 UNK         0.1400 
     86 CB         -2.9376  -25.8492  -51.4679 C.3       15 UNK        -0.1800 
     87 C          -4.8873  -27.1435  -50.4910 C.2       15 UNK         0.5000 
     88 O          -5.5016  -27.3070  -51.5461 O.2       15 UNK        -0.5000 
     89 N          -5.4924  -27.0530  -49.2953 N.am      16 UNK        -0.5000 
     90 CA         -6.9311  -27.1386  -49.0091 C.3       16 UNK         0.1400 
     91 CB         -7.4338  -28.5795  -49.2328 C.3       16 UNK        -0.1800 
     92 C          -7.7762  -26.0880  -49.7644 C.2       16 UNK         0.5000 
     93 O          -8.9280  -26.3545  -50.1113 O.2       16 UNK        -0.5000 
     94 N          -7.1678  -24.9230  -50.0309 N.am      17 UNK        -0.5000 
     95 CA         -7.6674  -23.7891  -50.8145 C.3       17 UNK         0.1400 
     96 CB         -8.8777  -23.1341  -50.1193 C.3       17 UNK        -0.1800 
     97 C          -7.9408  -24.0980  -52.3050 C.2       17 UNK         0.5000 
     98 O          -8.5143  -23.2540  -52.9952 O.2       17 UNK        -0.5000 
     99 N          -7.5089  -25.2692  -52.7985 N.am      18 UNK        -0.5000 
    100 CA        -7.6056  -25.6600  -54.2091 C.3       18 UNK         0.1400 
    101 CB        -7.5278  -27.1907  -54.3141 C.3       18 UNK        -0.1800 
    102 C         -6.5118  -25.0000  -55.0716 C.2       18 UNK         0.5000 
    103 O         -6.6623  -24.9080  -56.2905 O.2       18 UNK        -0.5000 
    104 N         -5.4427  -24.5425  -54.4160 N.am      19 UNK        -0.5000 
    105 CA        -4.3332  -23.7736  -54.9556 C.3       19 UNK         0.1400 
    106 CB        -3.2789  -24.7270  -55.5469 C.3       19 UNK        -0.1800 
    107 C         -3.7610  -22.9292  -53.8061 C.2       19 UNK         0.5000 
    108 O         -4.1885  -23.0883  -52.6592 O.2       19 UNK        -0.5000 
    109 N         -2.8124  -22.0410  -54.1330 N.am      20 UNK        -0.5000 
    110 CA        -2.0228  -21.2087  -53.2111 C.3       20 UNK         0.1400 
    111 CB        -1.1135  -22.0943  -52.3344 C.3       20 UNK        -0.1800 
    112 C         -2.8312  -20.2012  -52.3624 C.2       20 UNK         0.5000 
    113 O         -2.2730  -19.5977  -51.4468 O.2       20 UNK        -0.5000 
    114 N         -4.1132  -19.9966  -52.6904 N.am      21 UNK        -0.5000 
    115 CA        -5.0434  -19.0965  -52.0084 C.3       21 UNK         0.1400 
    116 CB        -6.4780  -19.5997  -52.2514 C.3       21 UNK        -0.1800 
    117 C         -4.8343  -17.6281  -52.4341 C.2       21 UNK         0.5000 
    118 O         -5.7594  -16.9841  -52.9320 O.2       21 UNK        -0.5000 
    119 N         -3.6045  -17.1360  -52.2531 N.am      22 UNK        -0.5000 
    120 CA        -3.1691  -15.7737  -52.5941 C.3       22 UNK         0.1400 
    121 C         -3.6053  -14.6666  -51.5876 C.2       22 UNK         0.5000 
    122 N         -4.1683  -14.9984  -50.4318 N.am      22 UNK        -0.7600 
    123 O         -3.4472  -13.4821  -51.8709 O.2       22 UNK        -0.5000 
    124 C124       -1.6498  -15.7258  -52.8999 C.3       23 UNK        -0.0398 
    125 S125       -0.5908  -16.2552  -51.5068 S.3       23 UNK        -0.2404 
    126 C126        0.4901  -17.4831  -52.3092 C.3       23 UNK        -0.0205 
    127 H127        0.3761  -11.9734  -48.4274 H         1 UNK         0.0600 
    128 H128        1.4064  -12.0103  -49.8616 H         1 UNK         0.0600 
    129 H129        0.6526  -13.4966  -49.2781 H         1 UNK         0.0600 
    130 H130        3.5318  -11.9902  -49.4087 H         1 UNK         0.3000 
    131 H131        5.4466  -11.9400  -48.5422 H         1 UNK         0.0600 
    132 H132        6.0424  -13.9811  -49.1635 H         1 UNK         0.0800 
    133 H133        6.3607  -14.2036  -47.4923 H         1 UNK         0.0800 
    134 H134        4.5575  -15.1959  -50.5574 H         1 UNK         0.0800 
    135 H135        5.7143  -16.3985  -50.0428 H         1 UNK         0.0800 
    136 H136        2.3522  -15.8047  -51.2544 H         1 UNK         0.1150 
    137 H137        1.3547  -19.9622  -51.5300 H         1 UNK         0.1150 
    138 H138        4.9030  -18.7383  -49.4552 H         1 UNK         0.1150 
    139 H139        3.1932  -21.5864  -51.0391 H         1 UNK         0.0800 
    140 H140        4.6183  -21.0628  -50.1899 H         1 UNK         0.0800 
    141 H141        1.0967  -22.2991  -50.0791 H         1 UNK         0.0800 
    142 H142        0.6561  -20.8690  -49.1786 H         1 UNK         0.0800 
    143 H143        0.8689  -23.7033  -48.0266 H         1 UNK         0.0600 
    144 H144        0.6929  -21.2655  -46.6012 H         1 UNK         0.3000 
    145 H145       -1.1581  -22.4813  -43.7693 H         1 UNK         0.0600 
    146 H146        0.8106  -21.4320  -42.6355 H         1 UNK         0.0600 
    147 H147        1.1651  -23.0402  -43.2461 H         1 UNK         0.0600 
    148 H148        1.7649  -21.6343  -44.1045 H         1 UNK         0.0600 
    149 H149       -0.0882  -19.9180  -44.6119 H         1 UNK         0.3000 
    150 H150       -3.0468  -18.7901  -46.1971 H         1 UNK         0.0600 
    151 H151       -3.6892  -18.5270  -43.7910 H         1 UNK         0.0600 
    152 H152       -3.0629  -17.0287  -44.4618 H         1 UNK         0.0600 
    153 H153       -2.0503  -18.0109  -43.4056 H         1 UNK         0.0600 
    154 H154       -0.7213  -17.3721  -45.4031 H         1 UNK         0.3000 
    155 H155        1.3104  -18.2661  -48.2413 H         1 UNK         0.0600 
    156 H156        1.4173  -15.8641  -48.4075 H         1 UNK         0.0600 
    157 H157        0.2389  -15.6286  -47.1219 H         1 UNK         0.0600 
    158 H158       -0.2682  -16.2836  -48.6682 H         1 UNK         0.0600 
    159 H159        2.0194  -16.7386  -45.9756 H         1 UNK         0.3000 
    160 H160        3.1987  -19.4307  -43.8957 H         1 UNK         0.0600 
    161 H161        4.6053  -17.1996  -45.4456 H         1 UNK         0.0600 
    162 H162        5.0325  -18.8986  -45.4085 H         1 UNK         0.0600 
    163 H163        5.1968  -17.9282  -43.9520 H         1 UNK         0.0600 
    164 H164        2.0909  -17.9904  -42.6725 H         1 UNK         0.3000 
    165 H165        0.7776  -16.2884  -42.1544 H         1 UNK         0.0600 
    166 H166        2.9074  -14.1428  -41.6616 H         1 UNK         0.0600 
    167 H167        1.6172  -14.6267  -40.5718 H         1 UNK         0.0600 
    168 H168        2.9258  -15.7432  -40.9300 H         1 UNK         0.0600 
    169 H169        0.8528  -13.5289  -42.8223 H         1 UNK         0.3000 
    170 H170       -0.1305  -13.0083  -45.4530 H         1 UNK         0.0600 
    171 H171       -2.9034  -14.2071  -44.9458 H         1 UNK         0.0600 
    172 H172       -1.9197  -14.4103  -46.3872 H         1 UNK         0.0600 
    173 H173       -2.5715  -12.8283  -45.9951 H         1 UNK         0.0600 
    174 H174       -0.5435  -11.5246  -43.8937 H         1 UNK         0.3000 
    175 H175       -2.6917  -10.5568  -42.0433 H         1 UNK         0.0600 
    176 H176       -2.0585  -10.6917  -39.6151 H         1 UNK         0.0600 
    177 H177       -3.0554  -12.0444  -40.1210 H         1 UNK         0.0600 
    178 H178       -1.3265  -12.2702  -39.9011 H         1 UNK         0.0600 
    179 H179       -0.8117   -9.4175  -42.2001 H         1 UNK         0.3000 
    180 H180        1.2830   -8.9554  -42.6729 H         1 UNK         0.0600 
    181 H181        2.6124   -9.6871  -40.0053 H         1 UNK         0.0600 
    182 H182        1.3099   -8.5213  -40.2033 H         1 UNK         0.0600 
    183 H183        2.8796   -8.2049  -40.9246 H         1 UNK         0.0600 
    184 H184        3.7469  -10.1928  -42.1599 H         1 UNK         0.3000 
    185 H185        4.9078  -10.6483  -44.2727 H         1 UNK         0.0600 
    186 H186        5.7934  -12.8506  -43.6126 H         1 UNK         0.0600 
    187 H187        4.7552  -12.2949  -42.3128 H         1 UNK         0.0600 
    188 H188        4.1736  -13.5092  -43.4476 H         1 UNK         0.0600 
    189 H189        3.1934  -12.3301  -45.9338 H         1 UNK         0.3000 
    190 H190       -1.6696  -21.1578  -48.0985 H         1 UNK         0.3000 
    191 H191       -3.4209  -22.3882  -49.9222 H         1 UNK         0.0600 
    192 H192       -3.5512  -20.0011  -49.1070 H         1 UNK         0.0600 
    193 H193       -5.0985  -20.8366  -49.0312 H         1 UNK         0.0600 
    194 H194       -4.1657  -20.5765  -47.5639 H         1 UNK         0.0600 
    195 H195       -3.3226  -22.6667  -46.3304 H         1 UNK         0.3000 
    196 H196       -5.5136  -24.4307  -46.0486 H         1 UNK         0.0600 
    197 H197       -4.5484  -24.8510  -43.7817 H         1 UNK         0.0600 
    198 H198       -4.5751  -23.1365  -44.1638 H         1 UNK         0.0600 
    199 H199       -3.0624  -24.0362  -44.2539 H         1 UNK         0.0600 
    200 H200       -1.9976  -25.1489  -46.4036 H         1 UNK         0.3000 
    201 H201       -2.1854  -27.9696  -46.2161 H         1 UNK         0.0600 
    202 H202       -0.0540  -26.7347  -45.9854 H         1 UNK         0.0600 
    203 H203       -0.1352  -26.2116  -47.6663 H         1 UNK         0.0600 
    204 H204        0.0819  -27.9151  -47.2798 H         1 UNK         0.0600 
    205 H205       -2.5410  -25.7896  -49.0005 H         1 UNK         0.3000 
    206 H206       -2.9526  -27.9270  -50.9494 H         1 UNK         0.0600 
    207 H207       -1.8550  -25.8042  -51.5863 H         1 UNK         0.0600 
    208 H208       -3.3697  -25.9651  -52.4619 H         1 UNK         0.0600 
    209 H209       -3.2668  -24.8892  -51.0706 H         1 UNK         0.0600 
    210 H210       -4.9088  -26.8845  -48.4849 H         1 UNK         0.3000 
    211 H211       -7.0441  -26.9090  -47.9488 H         1 UNK         0.0600 
    212 H212       -7.4040  -28.8586  -50.2865 H         1 UNK         0.0600 
    213 H213       -8.4635  -28.6938  -48.8924 H         1 UNK         0.0600 
    214 H214       -6.8293  -29.2974  -48.6783 H         1 UNK         0.0600 
    215 H215       -6.2286  -24.7927  -49.6563 H         1 UNK         0.3000 
    216 H216       -6.8563  -23.0591  -50.8130 H         1 UNK         0.0600 
    217 H217       -8.6535  -22.8978  -49.0790 H         1 UNK         0.0600 
    218 H218       -9.7543  -23.7821  -50.1361 H         1 UNK         0.0600 
    219 H219       -9.1535  -22.1997  -50.6095 H         1 UNK         0.0600 
    220 H220       -7.0274  -25.9159  -52.1835 H         1 UNK         0.3000 
    221 H221       -8.5751  -25.3421  -54.5981 H         1 UNK         0.0600 
    222 H222       -6.5567  -27.5682  -53.9927 H         1 UNK         0.0600 
    223 H223       -8.2934  -27.6687  -53.7026 H         1 UNK         0.0600 
    224 H224       -7.6808  -27.5180  -55.3432 H         1 UNK         0.0600 
    225 H225       -5.4319  -24.6038  -53.4051 H         1 UNK         0.3000 
    226 H226       -4.7010  -23.0970  -55.7296 H         1 UNK         0.0600 
    227 H227       -3.7049  -25.3452  -56.3373 H         1 UNK         0.0600 
    228 H228       -2.4466  -24.1750  -55.9845 H         1 UNK         0.0600 
    229 H229       -2.8682  -25.3935  -54.7880 H         1 UNK         0.0600 
    230 H230       -2.5544  -21.9601  -55.1070 H         1 UNK         0.3000 
    231 H231       -1.3725  -20.5992  -53.8400 H         1 UNK         0.0600 
    232 H232       -0.4602  -21.4871  -51.7092 H         1 UNK         0.0600 
    233 H233       -0.4753  -22.7322  -52.9456 H         1 UNK         0.0600 
    234 H234       -1.6910  -22.7380  -51.6710 H         1 UNK         0.0600 
    235 H235       -4.4855  -20.5165  -53.4703 H         1 UNK         0.3000 
    236 H236       -4.8579  -19.1435  -50.9346 H         1 UNK         0.0600 
    237 H237       -7.2050  -18.9828  -51.7217 H         1 UNK         0.0600 
    238 H238       -6.7384  -19.5811  -53.3104 H         1 UNK         0.0600 
    239 H239       -6.6019  -20.6228  -51.8949 H         1 UNK         0.0600 
    240 H240       -2.9032  -17.7418  -51.8371 H         1 UNK         0.3000 
    241 H241       -3.6718  -15.5086  -53.5263 H         1 UNK         0.0600 
    242 H242       -4.2981  -15.9660  -50.1865 H         1 UNK         0.3800 
    243 H243       -4.4542  -14.2736  -49.7930 H         1 UNK         0.3800 
    244 H244       -1.4447  -16.3567  -53.7656 H         1 UNK         0.0800 
    245 H245       -1.3491  -14.7198  -53.1974 H         1 UNK         0.0800 
    246 H246        0.8485  -17.0838  -53.2589 H         1 UNK         0.0800 
    247 H247       -0.0968  -18.3718  -52.5439 H         1 UNK         0.0800 
@<TRIPOS>BOND
     1    1    2 1    
     2    1  127 1    
     3    1  128 1    
     4    1  129 1    
     5    2    3 2    
     6    2    4 am   BACKBONE|DICT|INTERRES
     7    4    5 1    
     8    4  130 1    
     9    5    6 1    
    10    5   65 1    
    11    5  131 1    
    12    6    7 1    
    13    6  132 1    
    14    6  133 1    
    15    7    8 1    
    16    8    9 1    
    17    8  134 1    
    18    8  135 1    
    19    9   10 ar   
    20    9   14 ar   
    21   10   11 ar   
    22   10  136 1    
    23   11   12 ar   
    24   11  126 1    
    25   12   13 ar   
    26   12  137 1    
    27   13   14 ar   
    28   13   15 1    
    29   14  138 1    
    30   15   16 1    
    31   15  139 1    
    32   15  140 1    
    33   16   17 1    
    34   17   18 1    
    35   17  141 1    
    36   17  142 1    
    37   18   19 1    
    38   18   67 1    
    39   18  143 1    
    40   19   20 am   BACKBONE|DICT|INTERRES
    41   19  144 1    
    42   20   21 2    
    43   20   22 1    
    44   22   23 1    
    45   22   24 1    
    46   22  145 1    
    47   23  146 1    
    48   23  147 1    
    49   23  148 1    
    50   24   25 am   BACKBONE|DICT|INTERRES
    51   24  149 1    
    52   25   26 2    
    53   25   27 1    
    54   27   28 1    
    55   27   29 1    
    56   27  150 1    
    57   28  151 1    
    58   28  152 1    
    59   28  153 1    
    60   29   30 am   BACKBONE|DICT|INTERRES
    61   29  154 1    
    62   30   31 2    
    63   30   32 1    
    64   32   33 1    
    65   32   34 1    
    66   32  155 1    
    67   33  156 1    
    68   33  157 1    
    69   33  158 1    
    70   34   35 am   BACKBONE|DICT|INTERRES
    71   34  159 1    
    72   35   36 2    
    73   35   37 1    
    74   37   38 1    
    75   37   39 1    
    76   37  160 1    
    77   38  161 1    
    78   38  162 1    
    79   38  163 1    
    80   39   40 am   BACKBONE|DICT|INTERRES
    81   39  164 1    
    82   40   41 2    
    83   40   42 1    
    84   42   43 1    
    85   42   44 1    
    86   42  165 1    
    87   43  166 1    
    88   43  167 1    
    89   43  168 1    
    90   44   45 am   BACKBONE|DICT|INTERRES
    91   44  169 1    
    92   45   46 2    
    93   45   47 1    
    94   47   48 1    
    95   47   49 1    
    96   47  170 1    
    97   48  171 1    
    98   48  172 1    
    99   48  173 1    
   100   49   50 am   BACKBONE|DICT|INTERRES
   101   49  174 1    
   102   50   51 2    
   103   50   52 1    
   104   52   53 1    
   105   52   54 1    
   106   52  175 1    
   107   53  176 1    
   108   53  177 1    
   109   53  178 1    
   110   54   55 am   BACKBONE|DICT|INTERRES
   111   54  179 1    
   112   55   56 2    
   113   55   57 1    
   114   57   58 1    
   115   57   59 1    
   116   57  180 1    
   117   58  181 1    
   118   58  182 1    
   119   58  183 1    
   120   59   60 am   BACKBONE|DICT|INTERRES
   121   59  184 1    
   122   60   61 2    
   123   60   62 1    
   124   62   63 1    
   125   62   64 1    
   126   62  185 1    
   127   63  186 1    
   128   63  187 1    
   129   63  188 1    
   130   64   65 am   BACKBONE|DICT|INTERRES
   131   64  189 1    
   132   65   66 2    
   133   67   68 2    
   134   67   69 am   BACKBONE|DICT|INTERRES
   135   69   70 1    
   136   69  190 1    
   137   70   71 1    
   138   70   72 1    
   139   70  191 1    
   140   71  192 1    
   141   71  193 1    
   142   71  194 1    
   143   72   73 2    
   144   72   74 am   BACKBONE|DICT|INTERRES
   145   74   75 1    
   146   74  195 1    
   147   75   76 1    
   148   75   77 1    
   149   75  196 1    
   150   76  197 1    
   151   76  198 1    
   152   76  199 1    
   153   77   78 2    
   154   77   79 am   BACKBONE|DICT|INTERRES
   155   79   80 1    
   156   79  200 1    
   157   80   81 1    
   158   80   82 1    
   159   80  201 1    
   160   81  202 1    
   161   81  203 1    
   162   81  204 1    
   163   82   83 2    
   164   82   84 am   BACKBONE|DICT|INTERRES
   165   84   85 1    
   166   84  205 1    
   167   85   86 1    
   168   85   87 1    
   169   85  206 1    
   170   86  207 1    
   171   86  208 1    
   172   86  209 1    
   173   87   88 2    
   174   87   89 am   BACKBONE|DICT|INTERRES
   175   89   90 1    
   176   89  210 1    
   177   90   91 1    
   178   90   92 1    
   179   90  211 1    
   180   91  212 1    
   181   91  213 1    
   182   91  214 1    
   183   92   93 2    
   184   92   94 am   BACKBONE|DICT|INTERRES
   185   94   95 1    
   186   94  215 1    
   187   95   96 1    
   188   95   97 1    
   189   95  216 1    
   190   96  217 1    
   191   96  218 1    
   192   96  219 1    
   193   97   98 2    
   194   97   99 am   BACKBONE|DICT|INTERRES
   195   99  100 1    
   196   99  220 1    
   197  100  101 1    
   198  100  102 1    
   199  100  221 1    
   200  101  222 1    
   201  101  223 1    
   202  101  224 1    
   203  102  103 2    
   204  102  104 am   BACKBONE|DICT|INTERRES
   205  104  105 1    
   206  104  225 1    
   207  105  106 1    
   208  105  107 1    
   209  105  226 1    
   210  106  227 1    
   211  106  228 1    
   212  106  229 1    
   213  107  108 2    
   214  107  109 am   BACKBONE|DICT|INTERRES
   215  109  110 1    
   216  109  230 1    
   217  110  111 1    
   218  110  112 1    
   219  110  231 1    
   220  111  232 1    
   221  111  233 1    
   222  111  234 1    
   223  112  113 2    
   224  112  114 am   BACKBONE|DICT|INTERRES
   225  114  115 1    
   226  114  235 1    
   227  115  116 1    
   228  115  117 1    
   229  115  236 1    
   230  116  237 1    
   231  116  238 1    
   232  116  239 1    
   233  117  118 2    
   234  117  119 am   BACKBONE|DICT|INTERRES
   235  119  120 1    
   236  119  240 1    
   237  120  121 1    
   238  120  124 1    
   239  120  241 1    
   240  121  122 am   BACKBONE|DICT|INTERRES
   241  121  123 2    
   242  122  242 1    
   243  122  243 1    
   244  124  125 1    
   245  124  244 1    
   246  124  245 1    
   247  125  126 1    
   248  126  246 1    
   249  126  247 1    
@<TRIPOS>SUBSTRUCTURE
     1 UNK         1 GROUP             0       ****    0 ROOT    
