@<TRIPOS>MOLECULE
3R540
247   249    1
SMALL
USER_CHARGES


@<TRIPOS>ATOM
      1 CA          5.5341  -16.7216  -45.5443 C.3       0 UNK        -0.1800 
      2 C           4.5064  -16.2200  -46.5479 C.2       0 UNK         0.5000 
      3 O           3.3092  -16.3941  -46.3302 O.2       0 UNK        -0.5000 
      4 N           4.9717  -15.5904  -47.6356 N.am      1 UNK        -0.5000 
      5 CA          4.1540  -15.0934  -48.7530 C.3       1 UNK         0.1400 
      6 C6          5.0174  -14.5493  -49.9203 C.3       23 UNK        -0.0398 
      7 S7          6.3196  -15.6988  -50.4760 S.3       23 UNK        -0.2404 
      8 C8          5.5988  -16.3561  -52.0136 C.3       23 UNK        -0.0205 
      9 C9          4.4322  -17.3021  -51.7619 C.ar      23 UNK        -0.0193 
     10 C10         3.1941  -17.0806  -52.3737 C.ar      23 UNK        -0.1150 
     11 C11         2.1440  -17.9909  -52.2090 C.ar      23 UNK        -0.0193 
     12 C12         2.3397  -19.1217  -51.4086 C.ar      23 UNK        -0.1150 
     13 C13         3.5605  -19.3352  -50.7629 C.ar      23 UNK        -0.0193 
     14 C14         4.6054  -18.4298  -50.9550 C.ar      23 UNK        -0.1150 
     15 C15         3.7709  -20.5562  -49.8817 C.3       23 UNK        -0.0205 
     16 S16         3.6444  -20.1520  -48.1081 S.3       23 UNK        -0.2404 
     17 C17         1.8397  -20.0031  -47.8707 C.3       23 UNK        -0.0398 
     18 CA          1.1980  -21.2837  -47.2760 C.3       11 UNK         0.1400 
     19 N          -0.0702  -20.9848  -46.6013 N.am      11 UNK        -0.5000 
     20 C          -0.8700  -21.8574  -45.9698 C.2       10 UNK         0.5000 
     21 O          -0.7445  -23.0813  -46.0352 O.2       10 UNK        -0.5000 
     22 CA         -1.9835  -21.2729  -45.0810 C.3       10 UNK         0.1400 
     23 CB         -1.5317  -21.2698  -43.6127 C.3       10 UNK        -0.1800 
     24 N          -2.3609  -19.9136  -45.4693 N.am      10 UNK        -0.5000 
     25 C          -3.4033  -19.6133  -46.2563 C.2       9 UNK         0.5000 
     26 O          -4.1989  -20.4525  -46.6772 O.2       9 UNK        -0.5000 
     27 CA         -3.6311  -18.1328  -46.6266 C.3       9 UNK         0.1400 
     28 CB         -4.8855  -17.5939  -45.9216 C.3       9 UNK        -0.1800 
     29 N          -2.5035  -17.2485  -46.3247 N.am      9 UNK        -0.5000 
     30 C          -1.3322  -17.2468  -46.9769 C.2       8 UNK         0.5000 
     31 O          -1.0562  -18.0094  -47.8987 O.2       8 UNK        -0.5000 
     32 CA         -0.2596  -16.2749  -46.4620 C.3       8 UNK         0.1400 
     33 CB         -0.5689  -14.8352  -46.8972 C.3       8 UNK        -0.1800 
     34 N          -0.1165  -16.3248  -45.0086 N.am      8 UNK        -0.5000 
     35 C           0.2177  -17.4146  -44.3034 C.2       7 UNK         0.5000 
     36 O           0.4439  -18.5170  -44.8019 O.2       7 UNK        -0.5000 
     37 CA          0.2368  -17.2562  -42.7752 C.3       7 UNK         0.1400 
     38 CB          1.5036  -16.5191  -42.3115 C.3       7 UNK        -0.1800 
     39 N          -0.9560  -16.5561  -42.2959 N.am      7 UNK        -0.5000 
     40 C          -2.1882  -17.0863  -42.2866 C.2       6 UNK         0.5000 
     41 O          -2.4391  -18.2394  -42.6313 O.2       6 UNK        -0.5000 
     42 CA         -3.3401  -16.1708  -41.8341 C.3       6 UNK         0.1400 
     43 CB         -3.5147  -16.2371  -40.3095 C.3       6 UNK        -0.1800 
     44 N          -3.1521  -14.7775  -42.2371 N.am      6 UNK        -0.5000 
     45 C          -3.1913  -14.3405  -43.5037 C.2       5 UNK         0.5000 
     46 O          -3.4048  -15.0653  -44.4755 O.2       5 UNK        -0.5000 
     47 CA         -2.8729  -12.8482  -43.7151 C.3       5 UNK         0.1400 
     48 CB         -4.1107  -11.9814  -43.4395 C.3       5 UNK        -0.1800 
     49 N          -1.7528  -12.3854  -42.8872 N.am      5 UNK        -0.5000 
     50 C          -0.5093  -12.8693  -42.9875 C.2       4 UNK         0.5000 
     51 O          -0.1880  -13.7550  -43.7860 O.2       4 UNK        -0.5000 
     52 CA          0.5479  -12.3125  -42.0259 C.3       4 UNK         0.1400 
     53 CB          0.4460  -12.9873  -40.6457 C.3       4 UNK        -0.1800 
     54 N           1.8344  -12.5953  -42.6425 N.am      4 UNK        -0.5000 
     55 C           3.0333  -12.0990  -42.3314 C.2       3 UNK         0.5000 
     56 O           3.2497  -11.3516  -41.3770 O.2       3 UNK        -0.5000 
     57 CA          4.1786  -12.4909  -43.2867 C.3       3 UNK         0.1400 
     58 CB          4.8433  -13.7974  -42.8260 C.3       3 UNK        -0.1800 
     59 N           3.7272  -12.6470  -44.6757 N.am      3 UNK        -0.5000 
     60 C           3.3008  -11.6386  -45.4528 C.2       2 UNK         0.5000 
     61 O           3.2927  -10.4618  -45.0885 O.2       2 UNK        -0.5000 
     62 CA          2.8190  -12.0082  -46.8679 C.3       2 UNK         0.1400 
     63 CB          2.8866  -10.8251  -47.8551 C.3       2 UNK        -0.1800 
     64 N           3.5805  -13.1412  -47.3900 N.am      2 UNK        -0.5000 
     65 C           3.1527  -14.0009  -48.3234 C.2       1 UNK         0.5000 
     66 O           2.0419  -13.9486  -48.8509 O.2       1 UNK        -0.5000 
     67 C           1.1088  -22.4133  -48.3242 C.2       11 UNK         0.5000 
     68 O           1.9128  -23.3459  -48.2816 O.2       11 UNK        -0.5000 
     69 N           0.1319  -22.3149  -49.2321 N.am      12 UNK        -0.5000 
     70 CA         -0.1384  -23.3079  -50.2705 C.3       12 UNK         0.1400 
     71 CB         -0.2921  -22.6043  -51.6262 C.3       12 UNK        -0.1800 
     72 C          -1.3831  -24.1483  -49.9430 C.2       12 UNK         0.5000 
     73 O          -1.5643  -25.2022  -50.5508 O.2       12 UNK        -0.5000 
     74 N          -2.2123  -23.7218  -48.9775 N.am      13 UNK        -0.5000 
     75 CA         -3.3446  -24.5071  -48.4706 C.3       13 UNK         0.1400 
     76 CB         -4.2143  -23.6518  -47.5444 C.3       13 UNK        -0.1800 
     77 C          -2.8989  -25.8057  -47.7712 C.2       13 UNK         0.5000 
     78 O          -3.6183  -26.8025  -47.8263 O.2       13 UNK        -0.5000 
     79 N          -1.6778  -25.8043  -47.2171 N.am      14 UNK        -0.5000 
     80 CA         -0.9558  -26.9899  -46.7475 C.3       14 UNK         0.1400 
     81 CB          0.3482  -26.5326  -46.0767 C.3       14 UNK        -0.1800 
     82 C          -0.6566  -28.0222  -47.8606 C.2       14 UNK         0.5000 
     83 O          -0.4735  -29.2005  -47.5543 O.2       14 UNK        -0.5000 
     84 N          -0.6376  -27.5720  -49.1233 N.am      15 UNK        -0.5000 
     85 CA         -0.5055  -28.3848  -50.3339 C.3       15 UNK         0.1400 
     86 CB          0.5983  -27.7766  -51.2177 C.3       15 UNK        -0.1800 
     87 C          -1.8490  -28.4976  -51.0909 C.2       15 UNK         0.5000 
     88 O          -1.8547  -28.8787  -52.2622 O.2       15 UNK        -0.5000 
     89 N          -2.9602  -28.1795  -50.4086 N.am      16 UNK        -0.5000 
     90 CA         -4.3533  -28.2674  -50.8550 C.3       16 UNK         0.1400 
     91 CB         -4.7327  -29.7197  -51.2173 C.3       16 UNK        -0.1800 
     92 C          -4.7591  -27.2472  -51.9408 C.2       16 UNK         0.5000 
     93 O          -5.7251  -27.4948  -52.6662 O.2       16 UNK        -0.5000 
     94 N          -4.0661  -26.1010  -52.0211 N.am      17 UNK        -0.5000 
     95 CA         -4.5038  -24.9521  -52.8228 C.3       17 UNK         0.1400 
     96 CB         -3.3302  -23.9817  -53.0183 C.3       17 UNK        -0.1800 
     97 C          -5.6914  -24.2214  -52.1617 C.2       17 UNK         0.5000 
     98 O          -5.9252  -24.3763  -50.9602 O.2       17 UNK        -0.5000 
     99 N          -6.4093  -23.4154  -52.9539 N.am      18 UNK        -0.5000 
    100 CA        -7.5256  -22.5883  -52.4949 C.3       18 UNK         0.1400 
    101 CB        -8.2461  -21.9899  -53.7130 C.3       18 UNK        -0.1800 
    102 C         -7.0447  -21.4676  -51.5576 C.2       18 UNK         0.5000 
    103 O         -6.1445  -20.7103  -51.9308 O.2       18 UNK        -0.5000 
    104 N         -7.6653  -21.3559  -50.3757 N.am      19 UNK        -0.5000 
    105 CA        -7.3370  -20.3704  -49.3358 C.3       19 UNK         0.1400 
    106 CB        -8.1347  -20.6992  -48.0652 C.3       19 UNK        -0.1800 
    107 C         -7.5684  -18.9046  -49.7582 C.2       19 UNK         0.5000 
    108 O         -6.9814  -18.0023  -49.1618 O.2       19 UNK        -0.5000 
    109 N         -8.3975  -18.6977  -50.7920 N.am      20 UNK        -0.5000 
    110 CA        -8.6216  -17.4118  -51.4548 C.3       20 UNK         0.1400 
    111 CB        -9.8222  -17.5462  -52.4042 C.3       20 UNK        -0.1800 
    112 C         -7.3838  -16.8964  -52.2192 C.2       20 UNK         0.5000 
    113 O         -7.2618  -15.6862  -52.4141 O.2       20 UNK        -0.5000 
    114 N         -6.4939  -17.8124  -52.6272 N.am      21 UNK        -0.5000 
    115 CA        -5.1693  -17.5139  -53.1583 C.3       21 UNK         0.1400 
    116 CB        -4.8403  -18.5065  -54.2922 C.3       21 UNK        -0.1800 
    117 C         -4.1781  -17.5518  -51.9814 C.2       21 UNK         0.5000 
    118 O         -4.1066  -16.5791  -51.2288 O.2       21 UNK        -0.5000 
    119 N         -3.4615  -18.6706  -51.8270 N.am      22 UNK        -0.5000 
    120 CA        -2.5415  -18.9392  -50.7099 C.3       22 UNK         0.1400 
    121 C         -2.8361  -20.2906  -49.9974 C.2       22 UNK         0.5000 
    122 N         -3.8728  -21.0391  -50.3461 N.am      22 UNK        -0.7600 
    123 O         -2.0906  -20.6980  -49.1139 O.2       22 UNK        -0.5000 
    124 C124       -1.0507  -18.8660  -51.1364 C.3       23 UNK        -0.0398 
    125 S125       -0.5250  -17.2584  -51.8212 S.3       23 UNK        -0.2404 
    126 C126        0.8217  -17.7735  -52.9376 C.3       23 UNK        -0.0205 
    127 H127        5.2853  -16.3714  -44.5428 H         1 UNK         0.0600 
    128 H128        6.5396  -16.3765  -45.7858 H         1 UNK         0.0600 
    129 H129        5.5400  -17.8116  -45.5322 H         1 UNK         0.0600 
    130 H130        5.9698  -15.5007  -47.7635 H         1 UNK         0.3000 
    131 H131        3.5725  -15.9398  -49.1257 H         1 UNK         0.0600 
    132 H132        5.5161  -13.6236  -49.6266 H         1 UNK         0.0800 
    133 H133        4.3830  -14.2891  -50.7697 H         1 UNK         0.0800 
    134 H134        5.3039  -15.5275  -52.6593 H         1 UNK         0.0800 
    135 H135        6.3734  -16.9015  -52.5541 H         1 UNK         0.0800 
    136 H136        3.0563  -16.2133  -53.0041 H         1 UNK         0.1150 
    137 H137        1.5448  -19.8415  -51.2895 H         1 UNK         0.1150 
    138 H138        5.5589  -18.6052  -50.4765 H         1 UNK         0.1150 
    139 H139        3.0660  -21.3461  -50.1425 H         1 UNK         0.0800 
    140 H140        4.7630  -20.9679  -50.0727 H         1 UNK         0.0800 
    141 H141        1.3501  -19.7017  -48.7964 H         1 UNK         0.0800 
    142 H142        1.6950  -19.1667  -47.1849 H         1 UNK         0.0800 
    143 H143        1.8566  -21.6449  -46.4834 H         1 UNK         0.0600 
    144 H144       -0.2870  -20.0019  -46.5014 H         1 UNK         0.3000 
    145 H145       -2.8478  -21.9332  -45.1474 H         1 UNK         0.0600 
    146 H146       -2.3391  -20.9476  -42.9553 H         1 UNK         0.0600 
    147 H147       -1.2338  -22.2688  -43.2917 H         1 UNK         0.0600 
    148 H148       -0.6824  -20.6056  -43.4510 H         1 UNK         0.0600 
    149 H149       -1.7665  -19.1655  -45.1375 H         1 UNK         0.3000 
    150 H150       -3.8085  -18.0966  -47.7033 H         1 UNK         0.0600 
    151 H151       -5.7611  -18.1989  -46.1615 H         1 UNK         0.0600 
    152 H152       -5.1048  -16.5725  -46.2334 H         1 UNK         0.0600 
    153 H153       -4.7672  -17.5970  -44.8372 H         1 UNK         0.0600 
    154 H154       -2.6516  -16.5704  -45.5831 H         1 UNK         0.3000 
    155 H155        0.6954  -16.5673  -46.9024 H         1 UNK         0.0600 
    156 H156        0.2256  -14.1563  -46.5898 H         1 UNK         0.0600 
    157 H157       -0.6539  -14.7660  -47.9824 H         1 UNK         0.0600 
    158 H158       -1.5028  -14.4726  -46.4671 H         1 UNK         0.0600 
    159 H159       -0.2658  -15.4486  -44.5144 H         1 UNK         0.3000 
    160 H160        0.2485  -18.2555  -42.3345 H         1 UNK         0.0600 
    161 H161        1.5585  -15.5086  -42.7149 H         1 UNK         0.0600 
    162 H162        2.4003  -17.0472  -42.6385 H         1 UNK         0.0600 
    163 H163        1.5453  -16.4502  -41.2246 H         1 UNK         0.0600 
    164 H164       -0.8454  -15.5878  -42.0384 H         1 UNK         0.3000 
    165 H165       -4.2573  -16.5381  -42.2998 H         1 UNK         0.0600 
    166 H166       -4.3763  -15.6531  -39.9854 H         1 UNK         0.0600 
    167 H167       -3.6774  -17.2643  -39.9801 H         1 UNK         0.0600 
    168 H168       -2.6357  -15.8595  -39.7855 H         1 UNK         0.0600 
    169 H169       -2.9641  -14.1109  -41.5032 H         1 UNK         0.3000 
    170 H170       -2.5924  -12.7170  -44.7624 H         1 UNK         0.0600 
    171 H171       -4.9539  -12.2996  -44.0540 H         1 UNK         0.0600 
    172 H172       -4.4232  -12.0418  -42.3963 H         1 UNK         0.0600 
    173 H173       -3.9178  -10.9340  -43.6723 H         1 UNK         0.0600 
    174 H174       -1.9528  -11.6618  -42.2116 H         1 UNK         0.3000 
    175 H175        0.4195  -11.2324  -41.9336 H         1 UNK         0.0600 
    176 H176       -0.5304  -12.8106  -40.1932 H         1 UNK         0.0600 
    177 H177        0.5879  -14.0662  -40.7123 H         1 UNK         0.0600 
    178 H178        1.1941  -12.5964  -39.9562 H         1 UNK         0.0600 
    179 H179        1.7475  -13.1859  -43.4607 H         1 UNK         0.3000 
    180 H180        4.9260  -11.6952  -43.2553 H         1 UNK         0.0600 
    181 H181        4.1494  -14.6384  -42.8624 H         1 UNK         0.0600 
    182 H182        5.2013  -13.7120  -41.7992 H         1 UNK         0.0600 
    183 H183        5.7033  -14.0429  -43.4492 H         1 UNK         0.0600 
    184 H184        3.6749  -13.5895  -45.0337 H         1 UNK         0.3000 
    185 H185        1.7740  -12.3049  -46.7614 H         1 UNK         0.0600 
    186 H186        2.2914   -9.9820  -47.5024 H         1 UNK         0.0600 
    187 H187        3.9107  -10.4748  -47.9881 H         1 UNK         0.0600 
    188 H188        2.4975  -11.1016  -48.8350 H         1 UNK         0.0600 
    189 H189        4.5149  -13.2546  -47.0216 H         1 UNK         0.3000 
    190 H190       -0.5470  -21.5581  -49.1470 H         1 UNK         0.3000 
    191 H191        0.6987  -24.0034  -50.3569 H         1 UNK         0.0600 
    192 H192       -1.1792  -21.9744  -51.6592 H         1 UNK         0.0600 
    193 H193       -0.3824  -23.3344  -52.4311 H         1 UNK         0.0600 
    194 H194        0.5750  -21.9843  -51.8514 H         1 UNK         0.0600 
    195 H195       -2.0265  -22.8312  -48.5333 H         1 UNK         0.3000 
    196 H196       -3.9539  -24.7988  -49.3263 H         1 UNK         0.0600 
    197 H197       -5.0900  -24.2089  -47.2094 H         1 UNK         0.0600 
    198 H198       -4.5764  -22.7574  -48.0501 H         1 UNK         0.0600 
    199 H199       -3.6650  -23.3434  -46.6579 H         1 UNK         0.0600 
    200 H200       -1.1834  -24.9215  -47.1526 H         1 UNK         0.3000 
    201 H201       -1.5763  -27.4849  -45.9980 H         1 UNK         0.0600 
    202 H202        0.1469  -25.8661  -45.2376 H         1 UNK         0.0600 
    203 H203        0.9943  -26.0012  -46.7771 H         1 UNK         0.0600 
    204 H204        0.9101  -27.3833  -45.6889 H         1 UNK         0.0600 
    205 H205       -0.8393  -26.5940  -49.2965 H         1 UNK         0.3000 
    206 H206       -0.2049  -29.4011  -50.0728 H         1 UNK         0.0600 
    207 H207        0.3278  -26.7838  -51.5777 H         1 UNK         0.0600 
    208 H208        0.7905  -28.4005  -52.0913 H         1 UNK         0.0600 
    209 H209        1.5373  -27.6901  -50.6709 H         1 UNK         0.0600 
    210 H210       -2.8499  -27.8544  -49.4553 H         1 UNK         0.3000 
    211 H211       -4.9481  -27.9972  -49.9816 H         1 UNK         0.0600 
    212 H212       -4.2493  -30.0486  -52.1375 H         1 UNK         0.0600 
    213 H213       -5.8089  -29.8191  -51.3629 H         1 UNK         0.0600 
    214 H214       -4.4512  -30.4113  -50.4232 H         1 UNK         0.0600 
    215 H215       -3.2707  -25.9532  -51.4096 H         1 UNK         0.3000 
    216 H216       -4.8169  -25.3137  -53.8045 H         1 UNK         0.0600 
    217 H217       -3.1041  -23.4424  -52.0996 H         1 UNK         0.0600 
    218 H218       -3.5640  -23.2345  -53.7772 H         1 UNK         0.0600 
    219 H219       -2.4290  -24.5032  -53.3409 H         1 UNK         0.0600 
    220 H220       -6.1377  -23.3047  -53.9197 H         1 UNK         0.3000 
    221 H221       -8.2285  -23.2292  -51.9585 H         1 UNK         0.0600 
    222 H222       -8.6270  -22.7722  -54.3698 H         1 UNK         0.0600 
    223 H223       -7.5843  -21.3514  -54.3001 H         1 UNK         0.0600 
    224 H224       -9.0982  -21.3827  -53.4046 H         1 UNK         0.0600 
    225 H225       -8.3913  -22.0186  -50.1439 H         1 UNK         0.3000 
    226 H226       -6.2762  -20.4719  -49.0993 H         1 UNK         0.0600 
    227 H227       -7.9060  -21.7026  -47.7055 H         1 UNK         0.0600 
    228 H228       -7.8889  -20.0053  -47.2599 H         1 UNK         0.0600 
    229 H229       -9.2099  -20.6376  -48.2370 H         1 UNK         0.0600 
    230 H230       -8.8503  -19.5009  -51.2015 H         1 UNK         0.3000 
    231 H231       -8.8681  -16.6735  -50.6890 H         1 UNK         0.0600 
    232 H232       -9.6381  -18.2871  -53.1834 H         1 UNK         0.0600 
    233 H233      -10.0379  -16.5976  -52.8977 H         1 UNK         0.0600 
    234 H234      -10.7220  -17.8417  -51.8641 H         1 UNK         0.0600 
    235 H235       -6.6504  -18.7828  -52.3794 H         1 UNK         0.3000 
    236 H236       -5.1420  -16.5067  -53.5791 H         1 UNK         0.0600 
    237 H237       -5.5232  -18.3718  -55.1310 H         1 UNK         0.0600 
    238 H238       -3.8303  -18.3462  -54.6719 H         1 UNK         0.0600 
    239 H239       -4.9178  -19.5466  -53.9754 H         1 UNK         0.0600 
    240 H240       -3.5947  -19.4270  -52.4819 H         1 UNK         0.3000 
    241 H241       -2.6982  -18.1882  -49.9354 H         1 UNK         0.0600 
    242 H242       -4.0178  -21.9038  -49.8549 H         1 UNK         0.3800 
    243 H243       -4.5616  -20.7388  -51.0301 H         1 UNK         0.3800 
    244 H244       -0.8439  -19.6455  -51.8692 H         1 UNK         0.0800 
    245 H245       -0.4073  -19.0662  -50.2797 H         1 UNK         0.0800 
    246 H246        0.5419  -18.6801  -53.4757 H         1 UNK         0.0800 
    247 H247        0.9395  -17.0027  -53.7006 H         1 UNK         0.0800 
@<TRIPOS>BOND
     1    1    2 1    
     2    1  127 1    
     3    1  128 1    
     4    1  129 1    
     5    2    3 2    
     6    2    4 am   BACKBONE|DICT|INTERRES
     7    4    5 1    
     8    4  130 1    
     9    5    6 1    
    10    5   65 1    
    11    5  131 1    
    12    6    7 1    
    13    6  132 1    
    14    6  133 1    
    15    7    8 1    
    16    8    9 1    
    17    8  134 1    
    18    8  135 1    
    19    9   10 ar   
    20    9   14 ar   
    21   10   11 ar   
    22   10  136 1    
    23   11   12 ar   
    24   11  126 1    
    25   12   13 ar   
    26   12  137 1    
    27   13   14 ar   
    28   13   15 1    
    29   14  138 1    
    30   15   16 1    
    31   15  139 1    
    32   15  140 1    
    33   16   17 1    
    34   17   18 1    
    35   17  141 1    
    36   17  142 1    
    37   18   19 1    
    38   18   67 1    
    39   18  143 1    
    40   19   20 am   BACKBONE|DICT|INTERRES
    41   19  144 1    
    42   20   21 2    
    43   20   22 1    
    44   22   23 1    
    45   22   24 1    
    46   22  145 1    
    47   23  146 1    
    48   23  147 1    
    49   23  148 1    
    50   24   25 am   BACKBONE|DICT|INTERRES
    51   24  149 1    
    52   25   26 2    
    53   25   27 1    
    54   27   28 1    
    55   27   29 1    
    56   27  150 1    
    57   28  151 1    
    58   28  152 1    
    59   28  153 1    
    60   29   30 am   BACKBONE|DICT|INTERRES
    61   29  154 1    
    62   30   31 2    
    63   30   32 1    
    64   32   33 1    
    65   32   34 1    
    66   32  155 1    
    67   33  156 1    
    68   33  157 1    
    69   33  158 1    
    70   34   35 am   BACKBONE|DICT|INTERRES
    71   34  159 1    
    72   35   36 2    
    73   35   37 1    
    74   37   38 1    
    75   37   39 1    
    76   37  160 1    
    77   38  161 1    
    78   38  162 1    
    79   38  163 1    
    80   39   40 am   BACKBONE|DICT|INTERRES
    81   39  164 1    
    82   40   41 2    
    83   40   42 1    
    84   42   43 1    
    85   42   44 1    
    86   42  165 1    
    87   43  166 1    
    88   43  167 1    
    89   43  168 1    
    90   44   45 am   BACKBONE|DICT|INTERRES
    91   44  169 1    
    92   45   46 2    
    93   45   47 1    
    94   47   48 1    
    95   47   49 1    
    96   47  170 1    
    97   48  171 1    
    98   48  172 1    
    99   48  173 1    
   100   49   50 am   BACKBONE|DICT|INTERRES
   101   49  174 1    
   102   50   51 2    
   103   50   52 1    
   104   52   53 1    
   105   52   54 1    
   106   52  175 1    
   107   53  176 1    
   108   53  177 1    
   109   53  178 1    
   110   54   55 am   BACKBONE|DICT|INTERRES
   111   54  179 1    
   112   55   56 2    
   113   55   57 1    
   114   57   58 1    
   115   57   59 1    
   116   57  180 1    
   117   58  181 1    
   118   58  182 1    
   119   58  183 1    
   120   59   60 am   BACKBONE|DICT|INTERRES
   121   59  184 1    
   122   60   61 2    
   123   60   62 1    
   124   62   63 1    
   125   62   64 1    
   126   62  185 1    
   127   63  186 1    
   128   63  187 1    
   129   63  188 1    
   130   64   65 am   BACKBONE|DICT|INTERRES
   131   64  189 1    
   132   65   66 2    
   133   67   68 2    
   134   67   69 am   BACKBONE|DICT|INTERRES
   135   69   70 1    
   136   69  190 1    
   137   70   71 1    
   138   70   72 1    
   139   70  191 1    
   140   71  192 1    
   141   71  193 1    
   142   71  194 1    
   143   72   73 2    
   144   72   74 am   BACKBONE|DICT|INTERRES
   145   74   75 1    
   146   74  195 1    
   147   75   76 1    
   148   75   77 1    
   149   75  196 1    
   150   76  197 1    
   151   76  198 1    
   152   76  199 1    
   153   77   78 2    
   154   77   79 am   BACKBONE|DICT|INTERRES
   155   79   80 1    
   156   79  200 1    
   157   80   81 1    
   158   80   82 1    
   159   80  201 1    
   160   81  202 1    
   161   81  203 1    
   162   81  204 1    
   163   82   83 2    
   164   82   84 am   BACKBONE|DICT|INTERRES
   165   84   85 1    
   166   84  205 1    
   167   85   86 1    
   168   85   87 1    
   169   85  206 1    
   170   86  207 1    
   171   86  208 1    
   172   86  209 1    
   173   87   88 2    
   174   87   89 am   BACKBONE|DICT|INTERRES
   175   89   90 1    
   176   89  210 1    
   177   90   91 1    
   178   90   92 1    
   179   90  211 1    
   180   91  212 1    
   181   91  213 1    
   182   91  214 1    
   183   92   93 2    
   184   92   94 am   BACKBONE|DICT|INTERRES
   185   94   95 1    
   186   94  215 1    
   187   95   96 1    
   188   95   97 1    
   189   95  216 1    
   190   96  217 1    
   191   96  218 1    
   192   96  219 1    
   193   97   98 2    
   194   97   99 am   BACKBONE|DICT|INTERRES
   195   99  100 1    
   196   99  220 1    
   197  100  101 1    
   198  100  102 1    
   199  100  221 1    
   200  101  222 1    
   201  101  223 1    
   202  101  224 1    
   203  102  103 2    
   204  102  104 am   BACKBONE|DICT|INTERRES
   205  104  105 1    
   206  104  225 1    
   207  105  106 1    
   208  105  107 1    
   209  105  226 1    
   210  106  227 1    
   211  106  228 1    
   212  106  229 1    
   213  107  108 2    
   214  107  109 am   BACKBONE|DICT|INTERRES
   215  109  110 1    
   216  109  230 1    
   217  110  111 1    
   218  110  112 1    
   219  110  231 1    
   220  111  232 1    
   221  111  233 1    
   222  111  234 1    
   223  112  113 2    
   224  112  114 am   BACKBONE|DICT|INTERRES
   225  114  115 1    
   226  114  235 1    
   227  115  116 1    
   228  115  117 1    
   229  115  236 1    
   230  116  237 1    
   231  116  238 1    
   232  116  239 1    
   233  117  118 2    
   234  117  119 am   BACKBONE|DICT|INTERRES
   235  119  120 1    
   236  119  240 1    
   237  120  121 1    
   238  120  124 1    
   239  120  241 1    
   240  121  122 am   BACKBONE|DICT|INTERRES
   241  121  123 2    
   242  122  242 1    
   243  122  243 1    
   244  124  125 1    
   245  124  244 1    
   246  124  245 1    
   247  125  126 1    
   248  126  246 1    
   249  126  247 1    
@<TRIPOS>SUBSTRUCTURE
     1 UNK         1 GROUP             0       ****    0 ROOT    
