@<TRIPOS>MOLECULE
3R540
247   249    1
SMALL
USER_CHARGES


@<TRIPOS>ATOM
      1 CA         -1.2856   -9.8066  -48.5209 C.3       0 UNK        -0.1800 
      2 C          -0.6595  -11.1750  -48.2984 C.2       0 UNK         0.5000 
      3 O          -0.4316  -11.5633  -47.1530 O.2       0 UNK        -0.5000 
      4 N          -0.3940  -11.9146  -49.3848 N.am      1 UNK        -0.5000 
      5 CA          0.2086  -13.2545  -49.3683 C.3       1 UNK         0.1400 
      6 C6          0.5266  -13.7545  -50.8023 C.3       23 UNK        -0.0398 
      7 S7          1.8580  -15.0058  -50.8928 S.3       23 UNK        -0.2404 
      8 C8          0.9067  -16.5302  -50.6269 C.3       23 UNK        -0.0205 
      9 C9          1.5934  -17.7719  -51.1701 C.ar      23 UNK        -0.0193 
     10 C10         1.2052  -18.3013  -52.4041 C.ar      23 UNK        -0.1150 
     11 C11         1.6962  -19.5370  -52.8293 C.ar      23 UNK        -0.0193 
     12 C12         2.6200  -20.2210  -52.0369 C.ar      23 UNK        -0.1150 
     13 C13         3.0427  -19.6898  -50.8154 C.ar      23 UNK        -0.0193 
     14 C14         2.5316  -18.4572  -50.3913 C.ar      23 UNK        -0.1150 
     15 C15         4.0136  -20.4885  -49.9502 C.3       23 UNK        -0.0205 
     16 S16         3.4855  -20.6731  -48.2116 S.3       23 UNK        -0.2404 
     17 C17         1.7316  -21.1771  -48.3465 C.3       23 UNK        -0.0398 
     18 CA          1.3871  -22.5267  -47.6572 C.3       11 UNK         0.1400 
     19 N           1.9076  -22.6800  -46.2854 N.am      11 UNK        -0.5000 
     20 C           1.7108  -21.8563  -45.2487 C.2       10 UNK         0.5000 
     21 O           1.0482  -20.8217  -45.3240 O.2       10 UNK        -0.5000 
     22 CA          2.3292  -22.2592  -43.9060 C.3       10 UNK         0.1400 
     23 CB          3.7965  -21.8095  -43.8201 C.3       10 UNK        -0.1800 
     24 N           1.5684  -21.6103  -42.8453 N.am      10 UNK        -0.5000 
     25 C           1.2420  -22.1448  -41.6644 C.2       9 UNK         0.5000 
     26 O           1.5498  -23.2872  -41.3188 O.2       9 UNK        -0.5000 
     27 CA          0.4582  -21.2167  -40.7129 C.3       9 UNK         0.1400 
     28 CB          0.2974  -21.7821  -39.2865 C.3       9 UNK        -0.1800 
     29 N           1.0351  -19.8696  -40.6927 N.am      9 UNK        -0.5000 
     30 C           2.2678  -19.5147  -40.2995 C.2       8 UNK         0.5000 
     31 O           3.0699  -20.2749  -39.7558 O.2       8 UNK        -0.5000 
     32 CA          2.6925  -18.0638  -40.5916 C.3       8 UNK         0.1400 
     33 CB          3.5038  -18.0110  -41.8959 C.3       8 UNK        -0.1800 
     34 N           1.5619  -17.1391  -40.6935 N.am      8 UNK        -0.5000 
     35 C           0.8238  -16.7246  -39.6547 C.2       7 UNK         0.5000 
     36 O           1.0452  -17.0466  -38.4865 O.2       7 UNK        -0.5000 
     37 CA         -0.3708  -15.8075  -39.9740 C.3       7 UNK         0.1400 
     38 CB          0.0944  -14.3545  -40.1546 C.3       7 UNK        -0.1800 
     39 N          -1.1189  -16.2356  -41.1576 N.am      7 UNK        -0.5000 
     40 C          -1.8463  -17.3595  -41.2332 C.2       6 UNK         0.5000 
     41 O          -1.9839  -18.1492  -40.2987 O.2       6 UNK        -0.5000 
     42 CA         -2.5140  -17.6721  -42.5864 C.3       6 UNK         0.1400 
     43 CB         -3.8265  -16.8899  -42.7424 C.3       6 UNK        -0.1800 
     44 N          -1.6451  -17.4062  -43.7331 N.am      6 UNK        -0.5000 
     45 C          -0.4884  -18.0419  -43.9689 C.2       5 UNK         0.5000 
     46 O          -0.0408  -18.9338  -43.2462 O.2       5 UNK        -0.5000 
     47 CA          0.3294  -17.5564  -45.1802 C.3       5 UNK         0.1400 
     48 CB         -0.2939  -18.0351  -46.5026 C.3       5 UNK        -0.1800 
     49 N           0.4689  -16.1000  -45.2144 N.am      5 UNK        -0.5000 
     50 C           1.0408  -15.3523  -44.2601 C.2       4 UNK         0.5000 
     51 O           1.5638  -15.8139  -43.2472 O.2       4 UNK        -0.5000 
     52 CA          0.9667  -13.8252  -44.4383 C.3       4 UNK         0.1400 
     53 CB          2.0169  -13.3339  -45.4458 C.3       4 UNK        -0.1800 
     54 N          -0.3630  -13.3743  -44.8492 N.am      4 UNK        -0.5000 
     55 C          -1.4771  -13.5271  -44.1188 C.2       3 UNK         0.5000 
     56 O          -1.4970  -14.0238  -42.9936 O.2       3 UNK        -0.5000 
     57 CA         -2.7997  -13.1011  -44.7762 C.3       3 UNK         0.1400 
     58 CB         -3.0008  -11.5808  -44.6872 C.3       3 UNK        -0.1800 
     59 N          -2.8764  -13.5315  -46.1712 N.am      3 UNK        -0.5000 
     60 C          -2.9794  -14.8102  -46.5608 C.2       2 UNK         0.5000 
     61 O          -3.0584  -15.7594  -45.7810 O.2       2 UNK        -0.5000 
     62 CA         -2.9513  -15.0673  -48.0789 C.3       2 UNK         0.1400 
     63 CB         -4.3494  -14.8568  -48.6792 C.3       2 UNK        -0.1800 
     64 N          -1.9826  -14.2196  -48.7819 N.am      2 UNK        -0.5000 
     65 C          -0.6559  -14.2666  -48.5844 C.2       1 UNK         0.5000 
     66 O          -0.1170  -15.0327  -47.7880 O.2       1 UNK        -0.5000 
     67 C          -0.1358  -22.7815  -47.7420 C.2       11 UNK         0.5000 
     68 O          -0.5777  -23.5661  -48.5808 O.2       11 UNK        -0.5000 
     69 N          -0.8985  -22.1403  -46.8462 N.am      12 UNK        -0.5000 
     70 CA         -2.3590  -22.1403  -46.7429 C.3       12 UNK         0.1400 
     71 CB         -2.7657  -21.1815  -45.6111 C.3       12 UNK        -0.1800 
     72 C          -3.0085  -23.5218  -46.5363 C.2       12 UNK         0.5000 
     73 O          -4.1933  -23.6775  -46.8387 O.2       12 UNK        -0.5000 
     74 N          -2.2332  -24.4829  -46.0190 N.am      13 UNK        -0.5000 
     75 CA         -2.6391  -25.8753  -45.8364 C.3       13 UNK         0.1400 
     76 CB         -1.9301  -26.4319  -44.5916 C.3       13 UNK        -0.1800 
     77 C          -2.3247  -26.7518  -47.0652 C.2       13 UNK         0.5000 
     78 O          -2.9458  -27.8038  -47.2207 O.2       13 UNK        -0.5000 
     79 N          -1.3661  -26.3292  -47.9028 N.am      14 UNK        -0.5000 
     80 CA         -0.9474  -27.0456  -49.1094 C.3       14 UNK         0.1400 
     81 CB          0.5319  -26.7452  -49.4006 C.3       14 UNK        -0.1800 
     82 C          -1.8310  -26.6710  -50.3094 C.2       14 UNK         0.5000 
     83 O          -2.2439  -27.5531  -51.0631 O.2       14 UNK        -0.5000 
     84 N          -2.1291  -25.3747  -50.4385 N.am      15 UNK        -0.5000 
     85 CA         -3.0959  -24.8120  -51.3708 C.3       15 UNK         0.1400 
     86 CB         -2.3546  -23.9808  -52.4288 C.3       15 UNK        -0.1800 
     87 C          -4.0288  -23.9422  -50.5251 C.2       15 UNK         0.5000 
     88 O          -3.5296  -23.0725  -49.8131 O.2       15 UNK        -0.5000 
     89 N          -5.3382  -24.2197  -50.5776 N.am      16 UNK        -0.5000 
     90 CA         -6.3830  -23.6765  -49.7011 C.3       16 UNK         0.1400 
     91 CB         -7.7504  -24.1793  -50.1940 C.3       16 UNK        -0.1800 
     92 C          -6.3693  -22.1393  -49.5669 C.2       16 UNK         0.5000 
     93 O          -6.8337  -21.4443  -50.4706 O.2       16 UNK        -0.5000 
     94 N          -5.8157  -21.6566  -48.4445 N.am      17 UNK        -0.5000 
     95 CA         -5.6034  -20.2476  -48.0796 C.3       17 UNK         0.1400 
     96 CB         -6.9366  -19.4731  -48.0163 C.3       17 UNK        -0.1800 
     97 C          -4.5369  -19.5160  -48.9275 C.2       17 UNK         0.5000 
     98 O          -4.4103  -18.2967  -48.8093 O.2       17 UNK        -0.5000 
     99 N          -3.7630  -20.2706  -49.7217 N.am      18 UNK        -0.5000 
    100 CA        -2.6823  -19.8359  -50.6071 C.3       18 UNK         0.1400 
    101 CB        -1.4709  -19.3772  -49.7658 C.3       18 UNK        -0.1800 
    102 C         -3.1461  -18.8010  -51.6581 C.2       18 UNK         0.5000 
    103 O         -4.3096  -18.8206  -52.0682 O.2       18 UNK        -0.5000 
    104 N         -2.2213  -17.9332  -52.0940 N.am      19 UNK        -0.5000 
    105 CA        -2.4146  -16.8219  -53.0318 C.3       19 UNK         0.1400 
    106 CB        -3.1874  -15.6776  -52.3425 C.3       19 UNK        -0.1800 
    107 C         -3.0388  -17.2925  -54.3598 C.2       19 UNK         0.5000 
    108 O         -2.3719  -17.9976  -55.1167 O.2       19 UNK        -0.5000 
    109 N         -4.3090  -16.9444  -54.6042 N.am      20 UNK        -0.5000 
    110 CA        -5.0911  -17.3257  -55.7838 C.3       20 UNK         0.1400 
    111 CB        -6.4624  -16.6367  -55.7094 C.3       20 UNK        -0.1800 
    112 C         -5.2620  -18.8473  -55.9836 C.2       20 UNK         0.5000 
    113 O         -5.5472  -19.2741  -57.1031 O.2       20 UNK        -0.5000 
    114 N         -5.0694  -19.6402  -54.9192 N.am      21 UNK        -0.5000 
    115 CA        -5.0872  -21.1026  -54.9627 C.3       21 UNK         0.1400 
    116 CB        -5.2669  -21.6434  -53.5359 C.3       21 UNK        -0.1800 
    117 C         -3.8378  -21.7248  -55.6224 C.2       21 UNK         0.5000 
    118 O         -3.8696  -22.9173  -55.9301 O.2       21 UNK        -0.5000 
    119 N         -2.7663  -20.9439  -55.8192 N.am      22 UNK        -0.5000 
    120 CA        -1.4829  -21.4249  -56.3596 C.3       22 UNK         0.1400 
    121 C         -0.7066  -20.4091  -57.2427 C.2       22 UNK         0.5000 
    122 N         -0.9893  -19.1148  -57.2033 N.am      22 UNK        -0.7600 
    123 O          0.1643  -20.8118  -58.0091 O.2       22 UNK        -0.5000 
    124 C124       -0.5811  -22.0650  -55.2704 C.3       23 UNK        -0.0398 
    125 S125       -0.3810  -21.0494  -53.7639 S.3       23 UNK        -0.2404 
    126 C126        1.1737  -20.1706  -54.1062 C.3       23 UNK        -0.0205 
    127 H127       -2.2452   -9.7463  -48.0074 H         1 UNK         0.0600 
    128 H128       -1.4514   -9.6026  -49.5789 H         1 UNK         0.0600 
    129 H129       -0.6351   -9.0287  -48.1214 H         1 UNK         0.0600 
    130 H130       -0.6054  -11.5351  -50.2969 H         1 UNK         0.3000 
    131 H131        1.1538  -13.1552  -48.8300 H         1 UNK         0.0600 
    132 H132       -0.3686  -14.1131  -51.3129 H         1 UNK         0.0800 
    133 H133        0.8785  -12.9152  -51.4040 H         1 UNK         0.0800 
    134 H134        0.7396  -16.6673  -49.5592 H         1 UNK         0.0800 
    135 H135       -0.0804  -16.4264  -51.0748 H         1 UNK         0.0800 
    136 H136        0.4807  -17.7839  -53.0149 H         1 UNK         0.1150 
    137 H137        2.9867  -21.1850  -52.3608 H         1 UNK         0.1150 
    138 H138        2.8268  -18.0548  -49.4323 H         1 UNK         0.1150 
    139 H139        4.9871  -19.9974  -49.9712 H         1 UNK         0.0800 
    140 H140        4.1648  -21.4865  -50.3644 H         1 UNK         0.0800 
    141 H141        1.4450  -21.2352  -49.3970 H         1 UNK         0.0800 
    142 H142        1.1396  -20.3623  -47.9281 H         1 UNK         0.0800 
    143 H143        1.8667  -23.3164  -48.2379 H         1 UNK         0.0600 
    144 H144        2.4622  -23.5105  -46.1333 H         1 UNK         0.3000 
    145 H145        2.2679  -23.3449  -43.8073 H         1 UNK         0.0600 
    146 H146        4.2368  -22.0848  -42.8615 H         1 UNK         0.0600 
    147 H147        4.3971  -22.2760  -44.6019 H         1 UNK         0.0600 
    148 H148        3.8911  -20.7285  -43.9327 H         1 UNK         0.0600 
    149 H149        1.1977  -20.6958  -43.0916 H         1 UNK         0.3000 
    150 H150       -0.5403  -21.1118  -41.1399 H         1 UNK         0.0600 
    151 H151       -0.2538  -22.7230  -39.3022 H         1 UNK         0.0600 
    152 H152       -0.2570  -21.0915  -38.6509 H         1 UNK         0.0600 
    153 H153        1.2594  -21.9769  -38.8121 H         1 UNK         0.0600 
    154 H154        0.4969  -19.1721  -41.1936 H         1 UNK         0.3000 
    155 H155        3.3362  -17.7337  -39.7736 H         1 UNK         0.0600 
    156 H156        2.9020  -18.3139  -42.7542 H         1 UNK         0.0600 
    157 H157        4.3671  -18.6761  -41.8493 H         1 UNK         0.0600 
    158 H158        3.8780  -17.0052  -42.0875 H         1 UNK         0.0600 
    159 H159        1.3548  -16.7784  -41.6220 H         1 UNK         0.3000 
    160 H160       -1.0498  -15.8393  -39.1195 H         1 UNK         0.0600 
    161 H161        0.7449  -14.2451  -41.0230 H         1 UNK         0.0600 
    162 H162        0.6494  -14.0093  -39.2815 H         1 UNK         0.0600 
    163 H163       -0.7543  -13.6833  -40.2865 H         1 UNK         0.0600 
    164 H164       -1.1000  -15.6081  -41.9570 H         1 UNK         0.3000 
    165 H165       -2.7533  -18.7375  -42.5968 H         1 UNK         0.0600 
    166 H166       -4.3500  -17.1783  -43.6541 H         1 UNK         0.0600 
    167 H167       -4.4991  -17.0825  -41.9057 H         1 UNK         0.0600 
    168 H168       -3.6515  -15.8145  -42.7841 H         1 UNK         0.0600 
    169 H169       -1.9611  -16.6982  -44.3891 H         1 UNK         0.3000 
    170 H170        1.3290  -17.9878  -45.0977 H         1 UNK         0.0600 
    171 H171       -0.4627  -19.1104  -46.4974 H         1 UNK         0.0600 
    172 H172       -1.2555  -17.5602  -46.6939 H         1 UNK         0.0600 
    173 H173        0.3608  -17.8158  -47.3457 H         1 UNK         0.0600 
    174 H174        0.1060  -15.6343  -46.0431 H         1 UNK         0.3000 
    175 H175        1.1862  -13.3675  -43.4716 H         1 UNK         0.0600 
    176 H176        1.8489  -13.7477  -46.4400 H         1 UNK         0.0600 
    177 H177        2.0033  -12.2472  -45.5304 H         1 UNK         0.0600 
    178 H178        3.0208  -13.6249  -45.1347 H         1 UNK         0.0600 
    179 H179       -0.4309  -12.9174  -45.7542 H         1 UNK         0.3000 
    180 H180       -3.6134  -13.5813  -44.2285 H         1 UNK         0.0600 
    181 H181       -2.2235  -11.0347  -45.2220 H         1 UNK         0.0600 
    182 H182       -2.9789  -11.2471  -43.6490 H         1 UNK         0.0600 
    183 H183       -3.9644  -11.2857  -45.1026 H         1 UNK         0.0600 
    184 H184       -2.7651  -12.8172  -46.8749 H         1 UNK         0.3000 
    185 H185       -2.6652  -16.1096  -48.2356 H         1 UNK         0.0600 
    186 H186       -4.3761  -15.1391  -49.7301 H         1 UNK         0.0600 
    187 H187       -5.0881  -15.4744  -48.1660 H         1 UNK         0.0600 
    188 H188       -4.6745  -13.8189  -48.5991 H         1 UNK         0.0600 
    189 H189       -2.3553  -13.5391  -49.4274 H         1 UNK         0.3000 
    190 H190       -0.4045  -21.5379  -46.1912 H         1 UNK         0.3000 
    191 H191       -2.7480  -21.7478  -47.6806 H         1 UNK         0.0600 
    192 H192       -2.5328  -20.1479  -45.8665 H         1 UNK         0.0600 
    193 H193       -3.8361  -21.2297  -45.4095 H         1 UNK         0.0600 
    194 H194       -2.2507  -21.4196  -44.6794 H         1 UNK         0.0600 
    195 H195       -1.2833  -24.2478  -45.7741 H         1 UNK         0.3000 
    196 H196       -3.7162  -25.9232  -45.6623 H         1 UNK         0.0600 
    197 H197       -2.2262  -27.4645  -44.4021 H         1 UNK         0.0600 
    198 H198       -2.1839  -25.8543  -43.7025 H         1 UNK         0.0600 
    199 H199       -0.8453  -26.4167  -44.7040 H         1 UNK         0.0600 
    200 H200       -0.9678  -25.4082  -47.7700 H         1 UNK         0.3000 
    201 H201       -1.0412  -28.1210  -48.9429 H         1 UNK         0.0600 
    202 H202        1.1645  -27.0314  -48.5603 H         1 UNK         0.0600 
    203 H203        0.7024  -25.6876  -49.6034 H         1 UNK         0.0600 
    204 H204        0.8764  -27.3036  -50.2718 H         1 UNK         0.0600 
    205 H205       -1.7584  -24.7125  -49.7615 H         1 UNK         0.3000 
    206 H206       -3.6721  -25.5967  -51.8655 H         1 UNK         0.0600 
    207 H207       -1.7986  -23.1573  -51.9786 H         1 UNK         0.0600 
    208 H208       -1.6458  -24.5952  -52.9837 H         1 UNK         0.0600 
    209 H209       -3.0498  -23.5555  -53.1515 H         1 UNK         0.0600 
    210 H210       -5.6446  -24.9410  -51.2136 H         1 UNK         0.3000 
    211 H211       -6.2184  -24.1026  -48.7095 H         1 UNK         0.0600 
    212 H212       -7.9502  -23.8623  -51.2184 H         1 UNK         0.0600 
    213 H213       -8.5569  -23.7948  -49.5682 H         1 UNK         0.0600 
    214 H214       -7.8072  -25.2675  -50.1620 H         1 UNK         0.0600 
    215 H215       -5.4039  -22.3334  -47.8083 H         1 UNK         0.3000 
    216 H216       -5.2036  -20.2673  -47.0664 H         1 UNK         0.0600 
    217 H217       -6.7949  -18.4899  -47.5662 H         1 UNK         0.0600 
    218 H218       -7.6736  -20.0018  -47.4120 H         1 UNK         0.0600 
    219 H219       -7.3624  -19.3151  -49.0073 H         1 UNK         0.0600 
    220 H220       -3.9309  -21.2739  -49.7313 H         1 UNK         0.3000 
    221 H221       -2.3824  -20.7243  -51.1646 H         1 UNK         0.0600 
    222 H222       -1.6297  -18.3930  -49.3228 H         1 UNK         0.0600 
    223 H223       -1.2706  -20.0748  -48.9534 H         1 UNK         0.0600 
    224 H224       -0.5665  -19.3384  -50.3700 H         1 UNK         0.0600 
    225 H225       -1.2815  -18.0563  -51.7500 H         1 UNK         0.3000 
    226 H226       -1.4251  -16.4398  -53.2843 H         1 UNK         0.0600 
    227 H227       -2.6443  -15.3206  -51.4681 H         1 UNK         0.0600 
    228 H228       -3.3130  -14.8252  -53.0113 H         1 UNK         0.0600 
    229 H229       -4.1768  -15.9916  -52.0083 H         1 UNK         0.0600 
    230 H230       -4.7947  -16.4054  -53.9025 H         1 UNK         0.3000 
    231 H231       -4.5644  -16.9456  -56.6613 H         1 UNK         0.0600 
    232 H232       -7.0247  -16.9573  -54.8314 H         1 UNK         0.0600 
    233 H233       -7.0658  -16.8681  -56.5882 H         1 UNK         0.0600 
    234 H234       -6.3585  -15.5524  -55.6657 H         1 UNK         0.0600 
    235 H235       -4.8450  -19.2171  -54.0236 H         1 UNK         0.3000 
    236 H236       -5.9533  -21.4148  -55.5498 H         1 UNK         0.0600 
    237 H237       -6.1488  -21.2131  -53.0618 H         1 UNK         0.0600 
    238 H238       -5.3985  -22.7259  -53.5390 H         1 UNK         0.0600 
    239 H239       -4.4058  -21.4194  -52.9058 H         1 UNK         0.0600 
    240 H240       -2.7959  -19.9725  -55.5344 H         1 UNK         0.3000 
    241 H241       -1.7193  -22.2219  -57.0676 H         1 UNK         0.0600 
    242 H242       -1.6090  -18.7226  -56.4964 H         1 UNK         0.3800 
    243 H243       -0.4787  -18.4895  -57.8054 H         1 UNK         0.3800 
    244 H244        0.3966  -22.3373  -55.6716 H         1 UNK         0.0800 
    245 H245       -1.0299  -23.0080  -54.9573 H         1 UNK         0.0800 
    246 H246        1.0047  -19.4064  -54.8663 H         1 UNK         0.0800 
    247 H247        1.9132  -20.8619  -54.5127 H         1 UNK         0.0800 
@<TRIPOS>BOND
     1    1    2 1    
     2    1  127 1    
     3    1  128 1    
     4    1  129 1    
     5    2    3 2    
     6    2    4 am   BACKBONE|DICT|INTERRES
     7    4    5 1    
     8    4  130 1    
     9    5    6 1    
    10    5   65 1    
    11    5  131 1    
    12    6    7 1    
    13    6  132 1    
    14    6  133 1    
    15    7    8 1    
    16    8    9 1    
    17    8  134 1    
    18    8  135 1    
    19    9   10 ar   
    20    9   14 ar   
    21   10   11 ar   
    22   10  136 1    
    23   11   12 ar   
    24   11  126 1    
    25   12   13 ar   
    26   12  137 1    
    27   13   14 ar   
    28   13   15 1    
    29   14  138 1    
    30   15   16 1    
    31   15  139 1    
    32   15  140 1    
    33   16   17 1    
    34   17   18 1    
    35   17  141 1    
    36   17  142 1    
    37   18   19 1    
    38   18   67 1    
    39   18  143 1    
    40   19   20 am   BACKBONE|DICT|INTERRES
    41   19  144 1    
    42   20   21 2    
    43   20   22 1    
    44   22   23 1    
    45   22   24 1    
    46   22  145 1    
    47   23  146 1    
    48   23  147 1    
    49   23  148 1    
    50   24   25 am   BACKBONE|DICT|INTERRES
    51   24  149 1    
    52   25   26 2    
    53   25   27 1    
    54   27   28 1    
    55   27   29 1    
    56   27  150 1    
    57   28  151 1    
    58   28  152 1    
    59   28  153 1    
    60   29   30 am   BACKBONE|DICT|INTERRES
    61   29  154 1    
    62   30   31 2    
    63   30   32 1    
    64   32   33 1    
    65   32   34 1    
    66   32  155 1    
    67   33  156 1    
    68   33  157 1    
    69   33  158 1    
    70   34   35 am   BACKBONE|DICT|INTERRES
    71   34  159 1    
    72   35   36 2    
    73   35   37 1    
    74   37   38 1    
    75   37   39 1    
    76   37  160 1    
    77   38  161 1    
    78   38  162 1    
    79   38  163 1    
    80   39   40 am   BACKBONE|DICT|INTERRES
    81   39  164 1    
    82   40   41 2    
    83   40   42 1    
    84   42   43 1    
    85   42   44 1    
    86   42  165 1    
    87   43  166 1    
    88   43  167 1    
    89   43  168 1    
    90   44   45 am   BACKBONE|DICT|INTERRES
    91   44  169 1    
    92   45   46 2    
    93   45   47 1    
    94   47   48 1    
    95   47   49 1    
    96   47  170 1    
    97   48  171 1    
    98   48  172 1    
    99   48  173 1    
   100   49   50 am   BACKBONE|DICT|INTERRES
   101   49  174 1    
   102   50   51 2    
   103   50   52 1    
   104   52   53 1    
   105   52   54 1    
   106   52  175 1    
   107   53  176 1    
   108   53  177 1    
   109   53  178 1    
   110   54   55 am   BACKBONE|DICT|INTERRES
   111   54  179 1    
   112   55   56 2    
   113   55   57 1    
   114   57   58 1    
   115   57   59 1    
   116   57  180 1    
   117   58  181 1    
   118   58  182 1    
   119   58  183 1    
   120   59   60 am   BACKBONE|DICT|INTERRES
   121   59  184 1    
   122   60   61 2    
   123   60   62 1    
   124   62   63 1    
   125   62   64 1    
   126   62  185 1    
   127   63  186 1    
   128   63  187 1    
   129   63  188 1    
   130   64   65 am   BACKBONE|DICT|INTERRES
   131   64  189 1    
   132   65   66 2    
   133   67   68 2    
   134   67   69 am   BACKBONE|DICT|INTERRES
   135   69   70 1    
   136   69  190 1    
   137   70   71 1    
   138   70   72 1    
   139   70  191 1    
   140   71  192 1    
   141   71  193 1    
   142   71  194 1    
   143   72   73 2    
   144   72   74 am   BACKBONE|DICT|INTERRES
   145   74   75 1    
   146   74  195 1    
   147   75   76 1    
   148   75   77 1    
   149   75  196 1    
   150   76  197 1    
   151   76  198 1    
   152   76  199 1    
   153   77   78 2    
   154   77   79 am   BACKBONE|DICT|INTERRES
   155   79   80 1    
   156   79  200 1    
   157   80   81 1    
   158   80   82 1    
   159   80  201 1    
   160   81  202 1    
   161   81  203 1    
   162   81  204 1    
   163   82   83 2    
   164   82   84 am   BACKBONE|DICT|INTERRES
   165   84   85 1    
   166   84  205 1    
   167   85   86 1    
   168   85   87 1    
   169   85  206 1    
   170   86  207 1    
   171   86  208 1    
   172   86  209 1    
   173   87   88 2    
   174   87   89 am   BACKBONE|DICT|INTERRES
   175   89   90 1    
   176   89  210 1    
   177   90   91 1    
   178   90   92 1    
   179   90  211 1    
   180   91  212 1    
   181   91  213 1    
   182   91  214 1    
   183   92   93 2    
   184   92   94 am   BACKBONE|DICT|INTERRES
   185   94   95 1    
   186   94  215 1    
   187   95   96 1    
   188   95   97 1    
   189   95  216 1    
   190   96  217 1    
   191   96  218 1    
   192   96  219 1    
   193   97   98 2    
   194   97   99 am   BACKBONE|DICT|INTERRES
   195   99  100 1    
   196   99  220 1    
   197  100  101 1    
   198  100  102 1    
   199  100  221 1    
   200  101  222 1    
   201  101  223 1    
   202  101  224 1    
   203  102  103 2    
   204  102  104 am   BACKBONE|DICT|INTERRES
   205  104  105 1    
   206  104  225 1    
   207  105  106 1    
   208  105  107 1    
   209  105  226 1    
   210  106  227 1    
   211  106  228 1    
   212  106  229 1    
   213  107  108 2    
   214  107  109 am   BACKBONE|DICT|INTERRES
   215  109  110 1    
   216  109  230 1    
   217  110  111 1    
   218  110  112 1    
   219  110  231 1    
   220  111  232 1    
   221  111  233 1    
   222  111  234 1    
   223  112  113 2    
   224  112  114 am   BACKBONE|DICT|INTERRES
   225  114  115 1    
   226  114  235 1    
   227  115  116 1    
   228  115  117 1    
   229  115  236 1    
   230  116  237 1    
   231  116  238 1    
   232  116  239 1    
   233  117  118 2    
   234  117  119 am   BACKBONE|DICT|INTERRES
   235  119  120 1    
   236  119  240 1    
   237  120  121 1    
   238  120  124 1    
   239  120  241 1    
   240  121  122 am   BACKBONE|DICT|INTERRES
   241  121  123 2    
   242  122  242 1    
   243  122  243 1    
   244  124  125 1    
   245  124  244 1    
   246  124  245 1    
   247  125  126 1    
   248  126  246 1    
   249  126  247 1    
@<TRIPOS>SUBSTRUCTURE
     1 UNK         1 GROUP             0       ****    0 ROOT    
