@<TRIPOS>MOLECULE
3R540
247   249    1
SMALL
USER_CHARGES


@<TRIPOS>ATOM
      1 CA         -2.0143  -11.8184  -52.8090 C.3       0 UNK        -0.1800 
      2 C          -2.0350  -12.3818  -51.3958 C.2       0 UNK         0.5000 
      3 O          -3.1042  -12.7227  -50.8915 O.2       0 UNK        -0.5000 
      4 N          -0.8618  -12.4744  -50.7559 N.am      1 UNK        -0.5000 
      5 CA         -0.5956  -13.0303  -49.4188 C.3       1 UNK         0.1400 
      6 C6         -1.0071  -14.5189  -49.2602 C.3       23 UNK        -0.0398 
      7 S7         -0.0330  -15.6133  -50.3452 S.3       23 UNK        -0.2404 
      8 C8          0.0911  -17.1126  -49.3188 C.3       23 UNK        -0.0205 
      9 C9          1.1636  -18.0602  -49.8354 C.ar      23 UNK        -0.0193 
     10 C10         1.0219  -18.6715  -51.0849 C.ar      23 UNK        -0.1150 
     11 C11         2.0215  -19.5112  -51.5834 C.ar      23 UNK        -0.0193 
     12 C12         3.1567  -19.7615  -50.8083 C.ar      23 UNK        -0.1150 
     13 C13         3.3002  -19.1785  -49.5462 C.ar      23 UNK        -0.0193 
     14 C14         2.3037  -18.3222  -49.0679 C.ar      23 UNK        -0.1150 
     15 C15         4.5430  -19.4601  -48.7125 C.3       23 UNK        -0.0205 
     16 S16         4.2000  -20.5658  -47.3067 S.3       23 UNK        -0.2404 
     17 C17         3.5328  -22.0446  -48.1462 C.3       23 UNK        -0.0398 
     18 CA          3.8879  -23.3787  -47.4381 C.3       11 UNK         0.1400 
     19 N           3.5519  -23.3537  -46.0100 N.am      11 UNK        -0.5000 
     20 C           4.1891  -24.0265  -45.0429 C.2       10 UNK         0.5000 
     21 O           5.1893  -24.7174  -45.2365 O.2       10 UNK        -0.5000 
     22 CA          3.5898  -23.9354  -43.6239 C.3       10 UNK         0.1400 
     23 CB          4.3409  -22.8845  -42.7929 C.3       10 UNK        -0.1800 
     24 N           2.1593  -23.6131  -43.6255 N.am      10 UNK        -0.5000 
     25 C           1.1907  -24.4457  -44.0398 C.2       9 UNK         0.5000 
     26 O           1.4002  -25.5985  -44.4159 O.2       9 UNK        -0.5000 
     27 CA         -0.2382  -23.8723  -44.1340 C.3       9 UNK         0.1400 
     28 CB         -0.9840  -24.0479  -42.8047 C.3       9 UNK        -0.1800 
     29 N          -0.2531  -22.4600  -44.5154 N.am      9 UNK        -0.5000 
     30 C           0.2631  -21.9720  -45.6515 C.2       8 UNK         0.5000 
     31 O           0.6206  -22.6933  -46.5845 O.2       8 UNK        -0.5000 
     32 CA          0.5096  -20.4504  -45.7350 C.3       8 UNK         0.1400 
     33 CB         -0.3114  -19.8145  -46.8586 C.3       8 UNK        -0.1800 
     34 N           0.2725  -19.6979  -44.5004 N.am      8 UNK        -0.5000 
     35 C           0.9229  -19.8345  -43.3368 C.2       7 UNK         0.5000 
     36 O           1.7644  -20.7084  -43.1259 O.2       7 UNK        -0.5000 
     37 CA          0.5614  -18.8433  -42.2145 C.3       7 UNK         0.1400 
     38 CB          1.6554  -17.7736  -42.0743 C.3       7 UNK        -0.1800 
     39 N          -0.7255  -18.1774  -42.4305 N.am      7 UNK        -0.5000 
     40 C          -1.9243  -18.7227  -42.1808 C.2       6 UNK         0.5000 
     41 O          -2.0788  -19.8584  -41.7333 O.2       6 UNK        -0.5000 
     42 CA         -3.1565  -17.8562  -42.5073 C.3       6 UNK         0.1400 
     43 CB         -3.5013  -16.9365  -41.3272 C.3       6 UNK        -0.1800 
     44 N          -2.9572  -17.0435  -43.7088 N.am      6 UNK        -0.5000 
     45 C          -2.9663  -17.5378  -44.9544 C.2       5 UNK         0.5000 
     46 O          -3.2486  -18.7052  -45.2127 O.2       5 UNK        -0.5000 
     47 CA         -2.5812  -16.5898  -46.1054 C.3       5 UNK         0.1400 
     48 CB         -3.8386  -16.0557  -46.8064 C.3       5 UNK        -0.1800 
     49 N          -1.7303  -15.4754  -45.6818 N.am      5 UNK        -0.5000 
     50 C          -0.4787  -15.6244  -45.2164 C.2       4 UNK         0.5000 
     51 O           0.0729  -16.7189  -45.1193 O.2       4 UNK        -0.5000 
     52 CA          0.2849  -14.3693  -44.7552 C.3       4 UNK         0.1400 
     53 CB          1.4295  -14.0515  -45.7293 C.3       4 UNK        -0.1800 
     54 N          -0.5727  -13.1936  -44.5891 N.am      4 UNK        -0.5000 
     55 C          -1.4608  -13.0466  -43.5930 C.2       3 UNK         0.5000 
     56 O          -1.6295  -13.8885  -42.7095 O.2       3 UNK        -0.5000 
     57 CA         -2.3367  -11.7763  -43.6001 C.3       3 UNK         0.1400 
     58 CB         -1.7313  -10.7035  -42.6827 C.3       3 UNK        -0.1800 
     59 N          -2.5478  -11.2015  -44.9316 N.am      3 UNK        -0.5000 
     60 C          -3.1542  -11.8220  -45.9525 C.2       2 UNK         0.5000 
     61 O          -3.6136  -12.9620  -45.8737 O.2       2 UNK        -0.5000 
     62 CA         -3.2101  -11.0857  -47.3081 C.3       2 UNK         0.1400 
     63 CB         -2.7668   -9.6066  -47.2490 C.3       2 UNK        -0.1800 
     64 N          -2.4426  -11.8088  -48.3261 N.am      2 UNK        -0.5000 
     65 C          -1.1549  -12.1731  -48.2621 C.2       1 UNK         0.5000 
     66 O          -0.4097  -11.8679  -47.3298 O.2       1 UNK        -0.5000 
     67 C           3.1955  -24.5584  -48.1617 C.2       11 UNK         0.5000 
     68 O           3.4225  -24.7419  -49.3577 O.2       11 UNK        -0.5000 
     69 N           2.3486  -25.3120  -47.4395 N.am      12 UNK        -0.5000 
     70 CA          1.4782  -26.3959  -47.9063 C.3       12 UNK         0.1400 
     71 CB          2.2963  -27.5603  -48.5032 C.3       12 UNK        -0.1800 
     72 C           0.3412  -25.9141  -48.8348 C.2       12 UNK         0.5000 
     73 O          -0.1890  -26.7090  -49.6124 O.2       12 UNK        -0.5000 
     74 N          -0.0394  -24.6338  -48.7177 N.am      13 UNK        -0.5000 
     75 CA         -1.1291  -24.0079  -49.4734 C.3       13 UNK         0.1400 
     76 CB         -0.6785  -22.6020  -49.8963 C.3       13 UNK        -0.1800 
     77 C          -2.4439  -23.9464  -48.6661 C.2       13 UNK         0.5000 
     78 O          -3.4411  -23.4492  -49.1902 O.2       13 UNK        -0.5000 
     79 N          -2.4128  -24.4594  -47.4245 N.am      14 UNK        -0.5000 
     80 CA         -3.4467  -24.4326  -46.3809 C.3       14 UNK         0.1400 
     81 CB         -4.7875  -25.0060  -46.8837 C.3       14 UNK        -0.1800 
     82 C          -3.6220  -23.0377  -45.7480 C.2       14 UNK         0.5000 
     83 O          -3.1624  -22.0360  -46.2947 O.2       14 UNK        -0.5000 
     84 N          -4.2596  -23.0030  -44.5720 N.am      15 UNK        -0.5000 
     85 CA         -4.5751  -21.7680  -43.8590 C.3       15 UNK         0.1400 
     86 CB         -4.7202  -22.0628  -42.3572 C.3       15 UNK        -0.1800 
     87 C          -5.8654  -21.1526  -44.4252 C.2       15 UNK         0.5000 
     88 O          -6.9030  -21.8194  -44.4140 O.2       15 UNK        -0.5000 
     89 N          -5.7628  -19.8956  -44.8742 N.am      16 UNK        -0.5000 
     90 CA         -6.7800  -19.0523  -45.5108 C.3       16 UNK         0.1400 
     91 CB         -8.0559  -18.9340  -44.6544 C.3       16 UNK        -0.1800 
     92 C          -7.0988  -19.4791  -46.9575 C.2       16 UNK         0.5000 
     93 O          -7.0181  -20.6592  -47.3015 O.2       16 UNK        -0.5000 
     94 N          -7.4401  -18.4814  -47.7892 N.am      17 UNK        -0.5000 
     95 CA         -7.7251  -18.5843  -49.2309 C.3       17 UNK         0.1400 
     96 CB         -9.0088  -19.4031  -49.4815 C.3       17 UNK        -0.1800 
     97 C          -6.5252  -19.0845  -50.0707 C.2       17 UNK         0.5000 
     98 O          -6.7110  -19.6050  -51.1711 O.2       17 UNK        -0.5000 
     99 N          -5.3109  -18.9026  -49.5364 N.am      18 UNK        -0.5000 
    100 CA        -4.0525  -19.3936  -50.0970 C.3       18 UNK         0.1400 
    101 CB        -3.0706  -19.6143  -48.9417 C.3       18 UNK        -0.1800 
    102 C         -3.4336  -18.4603  -51.1542 C.2       18 UNK         0.5000 
    103 O         -2.4024  -18.8148  -51.7248 O.2       18 UNK        -0.5000 
    104 N         -4.0507  -17.2916  -51.3813 N.am      19 UNK        -0.5000 
    105 CA        -3.6477  -16.2351  -52.3126 C.3       19 UNK         0.1400 
    106 CB        -4.7352  -15.1480  -52.3040 C.3       19 UNK        -0.1800 
    107 C         -3.3891  -16.7562  -53.7417 C.2       19 UNK         0.5000 
    108 O         -4.3369  -16.9441  -54.5068 O.2       19 UNK        -0.5000 
    109 N         -2.1088  -17.0181  -54.0442 N.am      20 UNK        -0.5000 
    110 CA        -1.5875  -17.6170  -55.2793 C.3       20 UNK         0.1400 
    111 CB        -1.7955  -16.6673  -56.4774 C.3       20 UNK        -0.1800 
    112 C         -2.1081  -19.0482  -55.5536 C.2       20 UNK         0.5000 
    113 O         -2.1310  -19.4809  -56.7076 O.2       20 UNK        -0.5000 
    114 N         -2.4940  -19.7764  -54.4943 N.am      21 UNK        -0.5000 
    115 CA        -3.0651  -21.1267  -54.5703 C.3       21 UNK         0.1400 
    116 CB        -3.7173  -21.4768  -53.2251 C.3       21 UNK        -0.1800 
    117 C         -2.0545  -22.2171  -54.9774 C.2       21 UNK         0.5000 
    118 O         -2.4700  -23.3120  -55.3592 O.2       21 UNK        -0.5000 
    119 N         -0.7562  -21.9034  -54.8942 N.am      22 UNK        -0.5000 
    120 CA         0.3588  -22.7799  -55.2866 C.3       22 UNK         0.1400 
    121 C          0.4678  -23.0471  -56.8186 C.2       22 UNK         0.5000 
    122 N         -0.2013  -22.2873  -57.6788 N.am      22 UNK        -0.7600 
    123 O          1.1739  -23.9622  -57.2330 O.2       22 UNK        -0.5000 
    124 C124        1.7179  -22.2713  -54.7396 C.3       23 UNK        -0.0398 
    125 S125        1.7055  -21.9119  -52.9482 S.3       23 UNK        -0.2404 
    126 C126        1.9066  -20.1036  -52.9790 C.3       23 UNK        -0.0205 
    127 H127       -2.6400  -10.9278  -52.8666 H         1 UNK         0.0600 
    128 H128       -2.4036  -12.5562  -53.5106 H         1 UNK         0.0600 
    129 H129       -1.0061  -11.5480  -53.1239 H         1 UNK         0.0600 
    130 H130       -0.0355  -12.1454  -51.2355 H         1 UNK         0.3000 
    131 H131        0.4895  -12.9865  -49.3090 H         1 UNK         0.0600 
    132 H132       -0.8559  -14.8375  -48.2293 H         1 UNK         0.0800 
    133 H133       -2.0669  -14.6673  -49.4695 H         1 UNK         0.0800 
    134 H134        0.3077  -16.8308  -48.2874 H         1 UNK         0.0800 
    135 H135       -0.8713  -17.6237  -49.3117 H         1 UNK         0.0800 
    136 H136        0.1446  -18.4658  -51.6805 H         1 UNK         0.1150 
    137 H137        3.9305  -20.4101  -51.1944 H         1 UNK         0.1150 
    138 H138        2.4189  -17.8621  -48.0964 H         1 UNK         0.1150 
    139 H139        5.3310  -19.8974  -49.3276 H         1 UNK         0.0800 
    140 H140        4.9418  -18.5188  -48.3318 H         1 UNK         0.0800 
    141 H141        2.4531  -21.9173  -48.2364 H         1 UNK         0.0800 
    142 H142        3.9156  -22.0655  -49.1678 H         1 UNK         0.0800 
    143 H143        4.9644  -23.5307  -47.5408 H         1 UNK         0.0600 
    144 H144        2.7254  -22.8260  -45.7686 H         1 UNK         0.3000 
    145 H145        3.7204  -24.9082  -43.1453 H         1 UNK         0.0600 
    146 H146        3.9497  -22.8302  -41.7769 H         1 UNK         0.0600 
    147 H147        4.2623  -21.8909  -43.2362 H         1 UNK         0.0600 
    148 H148        5.4015  -23.1284  -42.7211 H         1 UNK         0.0600 
    149 H149        1.9153  -22.6617  -43.3627 H         1 UNK         0.3000 
    150 H150       -0.7669  -24.4349  -44.9041 H         1 UNK         0.0600 
    151 H151       -0.9889  -25.0934  -42.4934 H         1 UNK         0.0600 
    152 H152       -2.0224  -23.7325  -42.8929 H         1 UNK         0.0600 
    153 H153       -0.5236  -23.4673  -42.0042 H         1 UNK         0.0600 
    154 H154       -0.5224  -21.7985  -43.8021 H         1 UNK         0.3000 
    155 H155        1.5638  -20.3187  -45.9807 H         1 UNK         0.0600 
    156 H156       -0.0052  -20.1984  -47.8298 H         1 UNK         0.0600 
    157 H157       -0.1671  -18.7366  -46.8884 H         1 UNK         0.0600 
    158 H158       -1.3754  -20.0119  -46.7320 H         1 UNK         0.0600 
    159 H159       -0.3629  -18.9159  -44.5805 H         1 UNK         0.3000 
    160 H160        0.5139  -19.4071  -41.2804 H         1 UNK         0.0600 
    161 H161        1.7596  -17.1810  -42.9839 H         1 UNK         0.0600 
    162 H162        2.6242  -18.2311  -41.8693 H         1 UNK         0.0600 
    163 H163        1.4383  -17.0919  -41.2518 H         1 UNK         0.0600 
    164 H164       -0.6883  -17.2547  -42.8384 H         1 UNK         0.3000 
    165 H165       -4.0030  -18.5265  -42.6718 H         1 UNK         0.0600 
    166 H166       -4.4122  -16.3705  -41.5227 H         1 UNK         0.0600 
    167 H167       -3.6668  -17.5143  -40.4169 H         1 UNK         0.0600 
    168 H168       -2.7012  -16.2232  -41.1240 H         1 UNK         0.0600 
    169 H169       -2.7285  -16.0683  -43.5711 H         1 UNK         0.3000 
    170 H170       -2.0144  -17.1735  -46.8316 H         1 UNK         0.0600 
    171 H171       -4.4738  -15.4965  -46.1186 H         1 UNK         0.0600 
    172 H172       -3.5835  -15.3976  -47.6366 H         1 UNK         0.0600 
    173 H173       -4.4364  -16.8726  -47.2108 H         1 UNK         0.0600 
    174 H174       -2.1479  -14.5519  -45.7025 H         1 UNK         0.3000 
    175 H175        0.7293  -14.6004  -43.7847 H         1 UNK         0.0600 
    176 H176        1.0733  -13.9310  -46.7517 H         1 UNK         0.0600 
    177 H177        1.9542  -13.1396  -45.4438 H         1 UNK         0.0600 
    178 H178        2.1631  -14.8587  -45.7389 H         1 UNK         0.0600 
    179 H179       -0.5156  -12.4848  -45.3128 H         1 UNK         0.3000 
    180 H180       -3.3144  -12.0551  -43.2016 H         1 UNK         0.0600 
    181 H181       -2.3854   -9.8348  -42.6053 H         1 UNK         0.0600 
    182 H182       -0.7612  -10.3635  -43.0476 H         1 UNK         0.0600 
    183 H183       -1.5856  -11.0894  -41.6728 H         1 UNK         0.0600 
    184 H184       -2.1658  -10.2806  -45.0910 H         1 UNK         0.3000 
    185 H185       -4.2530  -11.1088  -47.6269 H         1 UNK         0.0600 
    186 H186       -2.8917   -9.1279  -48.2203 H         1 UNK         0.0600 
    187 H187       -3.3698   -9.0424  -46.5364 H         1 UNK         0.0600 
    188 H188       -1.7200   -9.4967  -46.9639 H         1 UNK         0.0600 
    189 H189       -2.9620  -12.1162  -49.1457 H         1 UNK         0.3000 
    190 H190        2.2447  -25.0811  -46.4601 H         1 UNK         0.3000 
    191 H191        0.9834  -26.7778  -47.0124 H         1 UNK         0.0600 
    192 H192        1.6650  -28.4327  -48.6751 H         1 UNK         0.0600 
    193 H193        3.0949  -27.8681  -47.8282 H         1 UNK         0.0600 
    194 H194        2.7472  -27.2939  -49.4593 H         1 UNK         0.0600 
    195 H195        0.4224  -24.0378  -48.0365 H         1 UNK         0.3000 
    196 H196       -1.3320  -24.5793  -50.3813 H         1 UNK         0.0600 
    197 H197       -1.4142  -22.1280  -50.5468 H         1 UNK         0.0600 
    198 H198        0.2653  -22.6348  -50.4395 H         1 UNK         0.0600 
    199 H199       -0.5414  -21.9590  -49.0303 H         1 UNK         0.0600 
    200 H200       -1.5180  -24.8163  -47.1271 H         1 UNK         0.3000 
    201 H201       -3.0813  -25.0937  -45.5937 H         1 UNK         0.0600 
    202 H202       -5.2841  -24.3309  -47.5813 H         1 UNK         0.0600 
    203 H203       -5.4767  -25.1716  -46.0551 H         1 UNK         0.0600 
    204 H204       -4.6465  -25.9643  -47.3836 H         1 UNK         0.0600 
    205 H205       -4.6536  -23.8514  -44.1927 H         1 UNK         0.3000 
    206 H206       -3.7497  -21.0621  -43.9769 H         1 UNK         0.0600 
    207 H207       -3.7884  -22.4386  -41.9356 H         1 UNK         0.0600 
    208 H208       -4.9763  -21.1556  -41.8083 H         1 UNK         0.0600 
    209 H209       -5.5011  -22.7983  -42.1605 H         1 UNK         0.0600 
    210 H210       -4.8225  -19.5037  -44.9122 H         1 UNK         0.3000 
    211 H211       -6.3269  -18.0608  -45.5583 H         1 UNK         0.0600 
    212 H212       -8.6194  -19.8669  -44.6275 H         1 UNK         0.0600 
    213 H213       -8.7222  -18.1694  -45.0553 H         1 UNK         0.0600 
    214 H214       -7.8193  -18.6528  -43.6282 H         1 UNK         0.0600 
    215 H215       -7.4974  -17.5455  -47.4114 H         1 UNK         0.3000 
    216 H216       -7.9191  -17.5664  -49.5720 H         1 UNK         0.0600 
    217 H217       -9.3109  -19.3478  -50.5279 H         1 UNK         0.0600 
    218 H218       -9.8399  -19.0259  -48.8857 H         1 UNK         0.0600 
    219 H219       -8.8721  -20.4570  -49.2379 H         1 UNK         0.0600 
    220 H220       -5.2577  -18.4751  -48.6252 H         1 UNK         0.3000 
    221 H221       -4.2304  -20.3599  -50.5716 H         1 UNK         0.0600 
    222 H222       -2.1155  -19.9972  -49.3021 H         1 UNK         0.0600 
    223 H223       -3.4635  -20.3430  -48.2338 H         1 UNK         0.0600 
    224 H224       -2.8743  -18.6917  -48.3980 H         1 UNK         0.0600 
    225 H225       -4.9023  -17.1210  -50.8696 H         1 UNK         0.3000 
    226 H226       -2.7263  -15.7905  -51.9319 H         1 UNK         0.0600 
    227 H227       -4.8701  -14.7325  -51.3053 H         1 UNK         0.0600 
    228 H228       -4.4667  -14.3226  -52.9645 H         1 UNK         0.0600 
    229 H229       -5.6994  -15.5354  -52.6357 H         1 UNK         0.0600 
    230 H230       -1.4236  -16.8816  -53.3138 H         1 UNK         0.3000 
    231 H231       -0.5119  -17.7197  -55.1292 H         1 UNK         0.0600 
    232 H232       -1.2726  -17.0317  -57.3625 H         1 UNK         0.0600 
    233 H233       -1.4091  -15.6710  -56.2628 H         1 UNK         0.0600 
    234 H234       -2.8494  -16.5696  -56.7390 H         1 UNK         0.0600 
    235 H235       -2.4277  -19.3643  -53.5669 H         1 UNK         0.3000 
    236 H236       -3.8485  -21.1168  -55.3308 H         1 UNK         0.0600 
    237 H237       -2.9869  -21.4796  -52.4154 H         1 UNK         0.0600 
    238 H238       -4.5044  -20.7653  -52.9749 H         1 UNK         0.0600 
    239 H239       -4.1760  -22.4659  -53.2549 H         1 UNK         0.0600 
    240 H240       -0.5095  -20.9900  -54.5476 H         1 UNK         0.3000 
    241 H241        0.1688  -23.7514  -54.8262 H         1 UNK         0.0600 
    242 H242       -0.1251  -22.4716  -58.6669 H         1 UNK         0.3800 
    243 H243       -0.7882  -21.5326  -57.3537 H         1 UNK         0.3800 
    244 H244        2.0352  -21.3819  -55.2869 H         1 UNK         0.0800 
    245 H245        2.4936  -23.0189  -54.9149 H         1 UNK         0.0800 
    246 H246        2.8061  -19.8490  -53.5415 H         1 UNK         0.0800 
    247 H247        1.0683  -19.6576  -53.5161 H         1 UNK         0.0800 
@<TRIPOS>BOND
     1    1    2 1    
     2    1  127 1    
     3    1  128 1    
     4    1  129 1    
     5    2    3 2    
     6    2    4 am   BACKBONE|DICT|INTERRES
     7    4    5 1    
     8    4  130 1    
     9    5    6 1    
    10    5   65 1    
    11    5  131 1    
    12    6    7 1    
    13    6  132 1    
    14    6  133 1    
    15    7    8 1    
    16    8    9 1    
    17    8  134 1    
    18    8  135 1    
    19    9   10 ar   
    20    9   14 ar   
    21   10   11 ar   
    22   10  136 1    
    23   11   12 ar   
    24   11  126 1    
    25   12   13 ar   
    26   12  137 1    
    27   13   14 ar   
    28   13   15 1    
    29   14  138 1    
    30   15   16 1    
    31   15  139 1    
    32   15  140 1    
    33   16   17 1    
    34   17   18 1    
    35   17  141 1    
    36   17  142 1    
    37   18   19 1    
    38   18   67 1    
    39   18  143 1    
    40   19   20 am   BACKBONE|DICT|INTERRES
    41   19  144 1    
    42   20   21 2    
    43   20   22 1    
    44   22   23 1    
    45   22   24 1    
    46   22  145 1    
    47   23  146 1    
    48   23  147 1    
    49   23  148 1    
    50   24   25 am   BACKBONE|DICT|INTERRES
    51   24  149 1    
    52   25   26 2    
    53   25   27 1    
    54   27   28 1    
    55   27   29 1    
    56   27  150 1    
    57   28  151 1    
    58   28  152 1    
    59   28  153 1    
    60   29   30 am   BACKBONE|DICT|INTERRES
    61   29  154 1    
    62   30   31 2    
    63   30   32 1    
    64   32   33 1    
    65   32   34 1    
    66   32  155 1    
    67   33  156 1    
    68   33  157 1    
    69   33  158 1    
    70   34   35 am   BACKBONE|DICT|INTERRES
    71   34  159 1    
    72   35   36 2    
    73   35   37 1    
    74   37   38 1    
    75   37   39 1    
    76   37  160 1    
    77   38  161 1    
    78   38  162 1    
    79   38  163 1    
    80   39   40 am   BACKBONE|DICT|INTERRES
    81   39  164 1    
    82   40   41 2    
    83   40   42 1    
    84   42   43 1    
    85   42   44 1    
    86   42  165 1    
    87   43  166 1    
    88   43  167 1    
    89   43  168 1    
    90   44   45 am   BACKBONE|DICT|INTERRES
    91   44  169 1    
    92   45   46 2    
    93   45   47 1    
    94   47   48 1    
    95   47   49 1    
    96   47  170 1    
    97   48  171 1    
    98   48  172 1    
    99   48  173 1    
   100   49   50 am   BACKBONE|DICT|INTERRES
   101   49  174 1    
   102   50   51 2    
   103   50   52 1    
   104   52   53 1    
   105   52   54 1    
   106   52  175 1    
   107   53  176 1    
   108   53  177 1    
   109   53  178 1    
   110   54   55 am   BACKBONE|DICT|INTERRES
   111   54  179 1    
   112   55   56 2    
   113   55   57 1    
   114   57   58 1    
   115   57   59 1    
   116   57  180 1    
   117   58  181 1    
   118   58  182 1    
   119   58  183 1    
   120   59   60 am   BACKBONE|DICT|INTERRES
   121   59  184 1    
   122   60   61 2    
   123   60   62 1    
   124   62   63 1    
   125   62   64 1    
   126   62  185 1    
   127   63  186 1    
   128   63  187 1    
   129   63  188 1    
   130   64   65 am   BACKBONE|DICT|INTERRES
   131   64  189 1    
   132   65   66 2    
   133   67   68 2    
   134   67   69 am   BACKBONE|DICT|INTERRES
   135   69   70 1    
   136   69  190 1    
   137   70   71 1    
   138   70   72 1    
   139   70  191 1    
   140   71  192 1    
   141   71  193 1    
   142   71  194 1    
   143   72   73 2    
   144   72   74 am   BACKBONE|DICT|INTERRES
   145   74   75 1    
   146   74  195 1    
   147   75   76 1    
   148   75   77 1    
   149   75  196 1    
   150   76  197 1    
   151   76  198 1    
   152   76  199 1    
   153   77   78 2    
   154   77   79 am   BACKBONE|DICT|INTERRES
   155   79   80 1    
   156   79  200 1    
   157   80   81 1    
   158   80   82 1    
   159   80  201 1    
   160   81  202 1    
   161   81  203 1    
   162   81  204 1    
   163   82   83 2    
   164   82   84 am   BACKBONE|DICT|INTERRES
   165   84   85 1    
   166   84  205 1    
   167   85   86 1    
   168   85   87 1    
   169   85  206 1    
   170   86  207 1    
   171   86  208 1    
   172   86  209 1    
   173   87   88 2    
   174   87   89 am   BACKBONE|DICT|INTERRES
   175   89   90 1    
   176   89  210 1    
   177   90   91 1    
   178   90   92 1    
   179   90  211 1    
   180   91  212 1    
   181   91  213 1    
   182   91  214 1    
   183   92   93 2    
   184   92   94 am   BACKBONE|DICT|INTERRES
   185   94   95 1    
   186   94  215 1    
   187   95   96 1    
   188   95   97 1    
   189   95  216 1    
   190   96  217 1    
   191   96  218 1    
   192   96  219 1    
   193   97   98 2    
   194   97   99 am   BACKBONE|DICT|INTERRES
   195   99  100 1    
   196   99  220 1    
   197  100  101 1    
   198  100  102 1    
   199  100  221 1    
   200  101  222 1    
   201  101  223 1    
   202  101  224 1    
   203  102  103 2    
   204  102  104 am   BACKBONE|DICT|INTERRES
   205  104  105 1    
   206  104  225 1    
   207  105  106 1    
   208  105  107 1    
   209  105  226 1    
   210  106  227 1    
   211  106  228 1    
   212  106  229 1    
   213  107  108 2    
   214  107  109 am   BACKBONE|DICT|INTERRES
   215  109  110 1    
   216  109  230 1    
   217  110  111 1    
   218  110  112 1    
   219  110  231 1    
   220  111  232 1    
   221  111  233 1    
   222  111  234 1    
   223  112  113 2    
   224  112  114 am   BACKBONE|DICT|INTERRES
   225  114  115 1    
   226  114  235 1    
   227  115  116 1    
   228  115  117 1    
   229  115  236 1    
   230  116  237 1    
   231  116  238 1    
   232  116  239 1    
   233  117  118 2    
   234  117  119 am   BACKBONE|DICT|INTERRES
   235  119  120 1    
   236  119  240 1    
   237  120  121 1    
   238  120  124 1    
   239  120  241 1    
   240  121  122 am   BACKBONE|DICT|INTERRES
   241  121  123 2    
   242  122  242 1    
   243  122  243 1    
   244  124  125 1    
   245  124  244 1    
   246  124  245 1    
   247  125  126 1    
   248  126  246 1    
   249  126  247 1    
@<TRIPOS>SUBSTRUCTURE
     1 UNK         1 GROUP             0       ****    0 ROOT    
