@<TRIPOS>MOLECULE
3R540
247   249    1
SMALL
USER_CHARGES


@<TRIPOS>ATOM
      1 CA         -3.0605  -14.3351  -46.5984 C.3       0 UNK        -0.1800 
      2 C          -1.8809  -13.7161  -47.3359 C.2       0 UNK         0.5000 
      3 O          -2.0750  -12.8478  -48.1873 O.2       0 UNK        -0.5000 
      4 N          -0.6632  -14.1688  -47.0181 N.am      1 UNK        -0.5000 
      5 CA          0.5991  -13.6835  -47.5870 C.3       1 UNK         0.1400 
      6 C6          1.7699  -14.6458  -47.2692 C.3       23 UNK        -0.0398 
      7 S7          1.4497  -16.3329  -47.8783 S.3       23 UNK        -0.2404 
      8 C8          2.9997  -16.7387  -48.7328 C.3       23 UNK        -0.0205 
      9 C9          3.0065  -18.1879  -49.1976 C.ar      23 UNK        -0.0193 
     10 C10         2.4398  -18.5342  -50.4276 C.ar      23 UNK        -0.1150 
     11 C11         2.4589  -19.8596  -50.8747 C.ar      23 UNK        -0.0193 
     12 C12         3.0704  -20.8386  -50.0837 C.ar      23 UNK        -0.1150 
     13 C13         3.6550  -20.5051  -48.8575 C.ar      23 UNK        -0.0193 
     14 C14         3.6053  -19.1793  -48.4137 C.ar      23 UNK        -0.1150 
     15 C15         4.4120  -21.5563  -48.0517 C.3       23 UNK        -0.0205 
     16 S16         3.3723  -22.9433  -47.4893 S.3       23 UNK        -0.2404 
     17 C17         2.3330  -22.1329  -46.2281 C.3       23 UNK        -0.0398 
     18 CA          0.8535  -22.5862  -46.2612 C.3       11 UNK         0.1400 
     19 N           0.1034  -22.0738  -45.1116 N.am      11 UNK        -0.5000 
     20 C          -1.1532  -22.4193  -44.7958 C.2       10 UNK         0.5000 
     21 O          -1.7992  -23.2750  -45.3995 O.2       10 UNK        -0.5000 
     22 CA         -1.8171  -21.6517  -43.6378 C.3       10 UNK         0.1400 
     23 CB         -1.4092  -22.2506  -42.2839 C.3       10 UNK        -0.1800 
     24 N          -1.5110  -20.2201  -43.6586 N.am      10 UNK        -0.5000 
     25 C          -1.8877  -19.3759  -44.6304 C.2       9 UNK         0.5000 
     26 O          -2.5908  -19.7062  -45.5849 O.2       9 UNK        -0.5000 
     27 CA         -1.3415  -17.9360  -44.5567 C.3       9 UNK         0.1400 
     28 CB         -2.1622  -17.0805  -43.5809 C.3       9 UNK        -0.1800 
     29 N           0.0736  -17.8825  -44.1856 N.am      9 UNK        -0.5000 
     30 C           1.0611  -18.4473  -44.8954 C.2       8 UNK         0.5000 
     31 O           0.8832  -19.0476  -45.9530 O.2       8 UNK        -0.5000 
     32 CA          2.4711  -18.3987  -44.2851 C.3       8 UNK         0.1400 
     33 CB          3.1294  -17.0262  -44.4899 C.3       8 UNK        -0.1800 
     34 N           2.4450  -18.7327  -42.8621 N.am      8 UNK        -0.5000 
     35 C           2.1852  -19.9582  -42.3843 C.2       7 UNK         0.5000 
     36 O           1.9843  -20.9409  -43.0974 O.2       7 UNK        -0.5000 
     37 CA          2.0956  -20.0992  -40.8542 C.3       7 UNK         0.1400 
     38 CB          3.4928  -20.2873  -40.2450 C.3       7 UNK        -0.1800 
     39 N           1.4405  -18.9531  -40.2223 N.am      7 UNK        -0.5000 
     40 C           0.1495  -18.6319  -40.3890 C.2       6 UNK         0.5000 
     41 O          -0.6364  -19.2892  -41.0692 O.2       6 UNK        -0.5000 
     42 CA         -0.3295  -17.3293  -39.7237 C.3       6 UNK         0.1400 
     43 CB         -0.7579  -17.5889  -38.2719 C.3       6 UNK        -0.1800 
     44 N           0.6786  -16.2660  -39.7531 N.am      6 UNK        -0.5000 
     45 C           1.1532  -15.7045  -40.8721 C.2       5 UNK         0.5000 
     46 O           0.8139  -16.0453  -42.0085 O.2       5 UNK        -0.5000 
     47 CA          2.2253  -14.6188  -40.6935 C.3       5 UNK         0.1400 
     48 CB          3.6257  -15.1958  -40.9519 C.3       5 UNK        -0.1800 
     49 N           1.9902  -13.5093  -41.6120 N.am      5 UNK        -0.5000 
     50 C           1.0811  -12.5440  -41.4245 C.2       4 UNK         0.5000 
     51 O           0.3701  -12.4749  -40.4201 O.2       4 UNK        -0.5000 
     52 CA          0.9248  -11.4900  -42.5440 C.3       4 UNK         0.1400 
     53 CB          0.6380  -10.0790  -41.9897 C.3       4 UNK        -0.1800 
     54 N           2.0296  -11.4537  -43.5116 N.am      4 UNK        -0.5000 
     55 C           3.3142  -11.1277  -43.2895 C.2       3 UNK         0.5000 
     56 O           3.7642  -10.8229  -42.1849 O.2       3 UNK        -0.5000 
     57 CA          4.2710  -11.1697  -44.5007 C.3       3 UNK         0.1400 
     58 CB          5.0945  -12.4678  -44.4781 C.3       3 UNK        -0.1800 
     59 N           3.5877  -11.0724  -45.7922 N.am      3 UNK        -0.5000 
     60 C           2.9616   -9.9812  -46.2557 C.2       2 UNK         0.5000 
     61 O           2.9823   -8.8896  -45.6861 O.2       2 UNK        -0.5000 
     62 CA          2.1509  -10.1414  -47.5601 C.3       2 UNK         0.1400 
     63 CB          2.9515   -9.6051  -48.7568 C.3       2 UNK        -0.1800 
     64 N           1.7202  -11.5158  -47.8538 N.am      2 UNK        -0.5000 
     65 C           0.9277  -12.2661  -47.0745 C.2       1 UNK         0.5000 
     66 O           0.5160  -11.9003  -45.9706 O.2       1 UNK        -0.5000 
     67 C           0.1542  -22.2334  -47.5904 C.2       11 UNK         0.5000 
     68 O          -0.0759  -23.1273  -48.4050 O.2       11 UNK        -0.5000 
     69 N          -0.2293  -20.9605  -47.7563 N.am      12 UNK        -0.5000 
     70 CA         -0.9646  -20.4717  -48.9209 C.3       12 UNK         0.1400 
     71 CB         -1.0906  -18.9449  -48.8591 C.3       12 UNK        -0.1800 
     72 C          -2.3447  -21.1286  -49.0843 C.2       12 UNK         0.5000 
     73 O          -2.7083  -21.4895  -50.1995 O.2       12 UNK        -0.5000 
     74 N          -3.0739  -21.3092  -47.9740 N.am      13 UNK        -0.5000 
     75 CA         -4.3649  -21.9987  -47.9414 C.3       13 UNK         0.1400 
     76 CB         -5.0140  -21.8055  -46.5634 C.3       13 UNK        -0.1800 
     77 C          -4.2702  -23.4968  -48.2914 C.2       13 UNK         0.5000 
     78 O          -5.2173  -24.0418  -48.8559 O.2       13 UNK        -0.5000 
     79 N          -3.1445  -24.1403  -47.9575 N.am      14 UNK        -0.5000 
     80 CA         -2.8608  -25.5267  -48.3206 C.3       14 UNK         0.1400 
     81 CB         -1.7768  -26.0924  -47.3899 C.3       14 UNK        -0.1800 
     82 C          -2.4472  -25.6618  -49.7972 C.2       14 UNK         0.5000 
     83 O          -2.9437  -26.5552  -50.4853 O.2       14 UNK        -0.5000 
     84 N          -1.5466  -24.7800  -50.2525 N.am      15 UNK        -0.5000 
     85 CA         -0.9627  -24.7558  -51.5937 C.3       15 UNK         0.1400 
     86 CB          0.1054  -23.6533  -51.6538 C.3       15 UNK        -0.1800 
     87 C          -2.0194  -24.5896  -52.7045 C.2       15 UNK         0.5000 
     88 O          -2.5638  -23.4999  -52.8847 O.2       15 UNK        -0.5000 
     89 N          -2.2966  -25.6966  -53.4100 N.am      16 UNK        -0.5000 
     90 CA         -3.3124  -25.8573  -54.4604 C.3       16 UNK         0.1400 
     91 CB         -3.0112  -24.9427  -55.6679 C.3       16 UNK        -0.1800 
     92 C          -4.7678  -25.7190  -53.9557 C.2       16 UNK         0.5000 
     93 O          -5.6718  -25.5308  -54.7714 O.2       16 UNK        -0.5000 
     94 N          -4.9632  -25.8459  -52.6330 N.am      17 UNK        -0.5000 
     95 CA         -6.1946  -25.6425  -51.8619 C.3       17 UNK         0.1400 
     96 CB         -7.3160  -26.5920  -52.3301 C.3       17 UNK        -0.1800 
     97 C          -6.6731  -24.1762  -51.8454 C.2       17 UNK         0.5000 
     98 O          -6.3037  -23.3714  -52.7027 O.2       17 UNK        -0.5000 
     99 N          -7.5238  -23.8524  -50.8631 N.am      18 UNK        -0.5000 
    100 CA        -8.0135  -22.4995  -50.5743 C.3       18 UNK         0.1400 
    101 CB        -8.7698  -22.5212  -49.2375 C.3       18 UNK        -0.1800 
    102 C         -8.8806  -21.8731  -51.6858 C.2       18 UNK         0.5000 
    103 O         -9.0717  -20.6570  -51.6872 O.2       18 UNK        -0.5000 
    104 N         -9.3690  -22.7005  -52.6204 N.am      19 UNK        -0.5000 
    105 CA       -10.0499  -22.2737  -53.8429 C.3       19 UNK         0.1400 
    106 CB       -10.6641  -23.5037  -54.5285 C.3       19 UNK        -0.1800 
    107 C         -9.1192  -21.5205  -54.8159 C.2       19 UNK         0.5000 
    108 O         -9.5875  -20.6284  -55.5245 O.2       19 UNK        -0.5000 
    109 N         -7.8283  -21.8810  -54.8236 N.am      20 UNK        -0.5000 
    110 CA        -6.7802  -21.2082  -55.5903 C.3       20 UNK         0.1400 
    111 CB        -5.8899  -22.2629  -56.2652 C.3       20 UNK        -0.1800 
    112 C         -5.9334  -20.3035  -54.6818 C.2       20 UNK         0.5000 
    113 O         -5.5727  -19.1996  -55.0938 O.2       20 UNK        -0.5000 
    114 N         -5.6178  -20.7985  -53.4742 N.am      21 UNK        -0.5000 
    115 CA        -4.8062  -20.1729  -52.4244 C.3       21 UNK         0.1400 
    116 CB        -5.6092  -19.0577  -51.7255 C.3       21 UNK        -0.1800 
    117 C         -3.4245  -19.6982  -52.9300 C.2       21 UNK         0.5000 
    118 O         -2.9853  -18.6007  -52.5816 O.2       21 UNK        -0.5000 
    119 N         -2.8235  -20.5151  -53.8081 N.am      22 UNK        -0.5000 
    120 CA        -1.6331  -20.2531  -54.6362 C.3       22 UNK         0.1400 
    121 C         -1.6125  -18.9168  -55.4445 C.2       22 UNK         0.5000 
    122 N         -2.7545  -18.3046  -55.7387 N.am      22 UNK        -0.7600 
    123 O         -0.5557  -18.4488  -55.8602 O.2       22 UNK        -0.5000 
    124 C124       -0.2910  -20.6306  -53.9489 C.3       23 UNK        -0.0398 
    125 S125        0.1493  -19.6970  -52.4451 S.3       23 UNK        -0.2404 
    126 C126        1.8785  -20.2306  -52.2349 C.3       23 UNK        -0.0205 
    127 H127       -3.7514  -14.7887  -47.3090 H         1 UNK         0.0600 
    128 H128       -3.5976  -13.5686  -46.0398 H         1 UNK         0.0600 
    129 H129       -2.7411  -15.1060  -45.8970 H         1 UNK         0.0600 
    130 H130       -0.5690  -14.8784  -46.3074 H         1 UNK         0.3000 
    131 H131        0.4796  -13.6309  -48.6714 H         1 UNK         0.0600 
    132 H132        1.9434  -14.7011  -46.1930 H         1 UNK         0.0800 
    133 H133        2.6979  -14.2800  -47.7120 H         1 UNK         0.0800 
    134 H134        3.1290  -16.0722  -49.5868 H         1 UNK         0.0800 
    135 H135        3.8427  -16.5559  -48.0649 H         1 UNK         0.0800 
    136 H136        1.9823  -17.7695  -51.0396 H         1 UNK         0.1150 
    137 H137        3.1151  -21.8616  -50.4305 H         1 UNK         0.1150 
    138 H138        4.0564  -18.9104  -47.4691 H         1 UNK         0.1150 
    139 H139        5.2131  -21.9565  -48.6745 H         1 UNK         0.0800 
    140 H140        4.9001  -21.1065  -47.1856 H         1 UNK         0.0800 
    141 H141        2.4054  -21.0519  -46.3369 H         1 UNK         0.0800 
    142 H142        2.7672  -22.3655  -45.2552 H         1 UNK         0.0800 
    143 H143        0.8437  -23.6750  -46.1748 H         1 UNK         0.0600 
    144 H144        0.5795  -21.3904  -44.5333 H         1 UNK         0.3000 
    145 H145       -2.8981  -21.7620  -43.7442 H         1 UNK         0.0600 
    146 H146       -1.9428  -21.7695  -41.4640 H         1 UNK         0.0600 
    147 H147       -1.6405  -23.3156  -42.2419 H         1 UNK         0.0600 
    148 H148       -0.3407  -22.1382  -42.0988 H         1 UNK         0.0600 
    149 H149       -0.9860  -19.8563  -42.8681 H         1 UNK         0.3000 
    150 H150       -1.4343  -17.4978  -45.5526 H         1 UNK         0.0600 
    151 H151       -3.2131  -17.0580  -43.8716 H         1 UNK         0.0600 
    152 H152       -1.8058  -16.0503  -43.5625 H         1 UNK         0.0600 
    153 H153       -2.1109  -17.4691  -42.5639 H         1 UNK         0.0600 
    154 H154        0.3073  -17.3794  -43.3342 H         1 UNK         0.3000 
    155 H155        3.0852  -19.1427  -44.7970 H         1 UNK         0.0600 
    156 H156        2.5280  -16.2174  -44.0747 H         1 UNK         0.0600 
    157 H157        3.2676  -16.8216  -45.5509 H         1 UNK         0.0600 
    158 H158        4.1153  -16.9878  -44.0267 H         1 UNK         0.0600 
    159 H159        2.5434  -17.9681  -42.2117 H         1 UNK         0.3000 
    160 H160        1.5043  -20.9911  -40.6362 H         1 UNK         0.0600 
    161 H161        4.1260  -19.4142  -40.4075 H         1 UNK         0.0600 
    162 H162        3.9983  -21.1467  -40.6876 H         1 UNK         0.0600 
    163 H163        3.4338  -20.4645  -39.1709 H         1 UNK         0.0600 
    164 H164        2.0143  -18.3585  -39.6430 H         1 UNK         0.3000 
    165 H165       -1.2019  -16.9774  -40.2780 H         1 UNK         0.0600 
    166 H166       -1.1791  -16.6914  -37.8185 H         1 UNK         0.0600 
    167 H167       -1.5231  -18.3649  -38.2241 H         1 UNK         0.0600 
    168 H168        0.0803  -17.9158  -37.6553 H         1 UNK         0.0600 
    169 H169        1.0099  -15.9355  -38.8581 H         1 UNK         0.3000 
    170 H170        2.1915  -14.2441  -39.6681 H         1 UNK         0.0600 
    171 H171        3.8379  -16.0280  -40.2795 H         1 UNK         0.0600 
    172 H172        3.7318  -15.5618  -41.9728 H         1 UNK         0.0600 
    173 H173        4.3962  -14.4421  -40.7876 H         1 UNK         0.0600 
    174 H174        2.5029  -13.5195  -42.4798 H         1 UNK         0.3000 
    175 H175        0.0474  -11.7982  -43.1143 H         1 UNK         0.0600 
    176 H176        1.4412   -9.7266  -41.3420 H         1 UNK         0.0600 
    177 H177        0.5159   -9.3567  -42.7970 H         1 UNK         0.0600 
    178 H178       -0.2819  -10.0664  -41.4041 H         1 UNK         0.0600 
    179 H179        1.7478  -11.6644  -44.4644 H         1 UNK         0.3000 
    180 H180        4.9557  -10.3238  -44.4100 H         1 UNK         0.0600 
    181 H181        4.4616  -13.3499  -44.5842 H         1 UNK         0.0600 
    182 H182        5.6417  -12.5681  -43.5396 H         1 UNK         0.0600 
    183 H183        5.8297  -12.4827  -45.2830 H         1 UNK         0.0600 
    184 H184        3.5391  -11.9157  -46.3428 H         1 UNK         0.3000 
    185 H185        1.2503   -9.5334  -47.4526 H         1 UNK         0.0600 
    186 H186        3.2639   -8.5735  -48.5886 H         1 UNK         0.0600 
    187 H187        3.8512  -10.1952  -48.9354 H         1 UNK         0.0600 
    188 H188        2.3546   -9.6161  -49.6689 H         1 UNK         0.0600 
    189 H189        2.0265  -11.8902  -48.7407 H         1 UNK         0.3000 
    190 H190        0.0308  -20.2706  -47.0541 H         1 UNK         0.3000 
    191 H191       -0.3741  -20.7285  -49.8010 H         1 UNK         0.0600 
    192 H192       -0.1066  -18.4826  -48.8937 H         1 UNK         0.0600 
    193 H193       -1.6561  -18.5638  -49.7105 H         1 UNK         0.0600 
    194 H194       -1.5899  -18.6127  -47.9488 H         1 UNK         0.0600 
    195 H195       -2.7329  -20.9306  -47.0947 H         1 UNK         0.3000 
    196 H196       -5.0101  -21.5306  -48.6879 H         1 UNK         0.0600 
    197 H197       -5.9929  -22.2849  -46.5218 H         1 UNK         0.0600 
    198 H198       -5.1595  -20.7484  -46.3405 H         1 UNK         0.0600 
    199 H199       -4.4029  -22.2345  -45.7689 H         1 UNK         0.0600 
    200 H200       -2.4276  -23.6419  -47.4430 H         1 UNK         0.3000 
    201 H201       -3.7663  -26.1190  -48.1721 H         1 UNK         0.0600 
    202 H202       -2.0964  -26.0565  -46.3482 H         1 UNK         0.0600 
    203 H203       -0.8419  -25.5374  -47.4693 H         1 UNK         0.0600 
    204 H204       -1.5619  -27.1344  -47.6295 H         1 UNK         0.0600 
    205 H205       -1.1866  -24.0835  -49.6045 H         1 UNK         0.3000 
    206 H206       -0.4532  -25.7100  -51.7411 H         1 UNK         0.0600 
    207 H207        0.8969  -23.8287  -50.9250 H         1 UNK         0.0600 
    208 H208        0.5744  -23.6166  -52.6372 H         1 UNK         0.0600 
    209 H209       -0.3231  -22.6718  -51.4472 H         1 UNK         0.0600 
    210 H210       -1.8153  -26.5476  -53.1534 H         1 UNK         0.3000 
    211 H211       -3.2208  -26.8879  -54.8057 H         1 UNK         0.0600 
    212 H212       -3.1437  -23.8887  -55.4244 H         1 UNK         0.0600 
    213 H213       -3.6732  -25.1670  -56.5050 H         1 UNK         0.0600 
    214 H214       -1.9888  -25.0790  -56.0201 H         1 UNK         0.0600 
    215 H215       -4.1399  -26.0099  -52.0631 H         1 UNK         0.3000 
    216 H216       -5.9373  -25.9063  -50.8349 H         1 UNK         0.0600 
    217 H217       -8.1624  -26.5666  -51.6431 H         1 UNK         0.0600 
    218 H218       -6.9669  -27.6238  -52.3728 H         1 UNK         0.0600 
    219 H219       -7.6947  -26.3244  -53.3168 H         1 UNK         0.0600 
    220 H220       -7.7714  -24.5621  -50.1889 H         1 UNK         0.3000 
    221 H221       -7.1387  -21.8566  -50.4562 H         1 UNK         0.0600 
    222 H222       -9.6415  -23.1753  -49.2801 H         1 UNK         0.0600 
    223 H223       -8.1269  -22.8671  -48.4276 H         1 UNK         0.0600 
    224 H224       -9.1196  -21.5237  -48.9680 H         1 UNK         0.0600 
    225 H225       -9.1713  -23.6857  -52.5291 H         1 UNK         0.3000 
    226 H226      -10.8590  -21.5958  -53.5630 H         1 UNK         0.0600 
    227 H227      -11.3781  -24.0049  -53.8746 H         1 UNK         0.0600 
    228 H228      -11.1998  -23.2183  -55.4348 H         1 UNK         0.0600 
    229 H229       -9.9009  -24.2294  -54.8128 H         1 UNK         0.0600 
    230 H230       -7.5188  -22.6027  -54.1821 H         1 UNK         0.3000 
    231 H231       -7.2165  -20.5849  -56.3736 H         1 UNK         0.0600 
    232 H232       -6.4676  -22.8913  -56.9431 H         1 UNK         0.0600 
    233 H233       -5.4148  -22.9145  -55.5315 H         1 UNK         0.0600 
    234 H234       -5.0980  -21.7925  -56.8493 H         1 UNK         0.0600 
    235 H235       -5.9133  -21.7498  -53.2579 H         1 UNK         0.3000 
    236 H236       -4.6269  -20.9590  -51.6931 H         1 UNK         0.0600 
    237 H237       -5.0631  -18.6627  -50.8680 H         1 UNK         0.0600 
    238 H238       -5.8123  -18.2257  -52.4005 H         1 UNK         0.0600 
    239 H239       -6.5641  -19.4306  -51.3565 H         1 UNK         0.0600 
    240 H240       -3.2510  -21.4199  -53.9509 H         1 UNK         0.3000 
    241 H241       -1.7395  -20.9874  -55.4354 H         1 UNK         0.0600 
    242 H242       -2.7317  -17.4512  -56.2734 H         1 UNK         0.3800 
    243 H243       -3.6446  -18.6639  -55.4099 H         1 UNK         0.3800 
    244 H244       -0.3312  -21.6846  -53.6787 H         1 UNK         0.0800 
    245 H245        0.5308  -20.5488  -54.6620 H         1 UNK         0.0800 
    246 H246        1.9330  -21.3097  -52.3849 H         1 UNK         0.0800 
    247 H247        2.4895  -19.7772  -53.0164 H         1 UNK         0.0800 
@<TRIPOS>BOND
     1    1    2 1    
     2    1  127 1    
     3    1  128 1    
     4    1  129 1    
     5    2    3 2    
     6    2    4 am   BACKBONE|DICT|INTERRES
     7    4    5 1    
     8    4  130 1    
     9    5    6 1    
    10    5   65 1    
    11    5  131 1    
    12    6    7 1    
    13    6  132 1    
    14    6  133 1    
    15    7    8 1    
    16    8    9 1    
    17    8  134 1    
    18    8  135 1    
    19    9   10 ar   
    20    9   14 ar   
    21   10   11 ar   
    22   10  136 1    
    23   11   12 ar   
    24   11  126 1    
    25   12   13 ar   
    26   12  137 1    
    27   13   14 ar   
    28   13   15 1    
    29   14  138 1    
    30   15   16 1    
    31   15  139 1    
    32   15  140 1    
    33   16   17 1    
    34   17   18 1    
    35   17  141 1    
    36   17  142 1    
    37   18   19 1    
    38   18   67 1    
    39   18  143 1    
    40   19   20 am   BACKBONE|DICT|INTERRES
    41   19  144 1    
    42   20   21 2    
    43   20   22 1    
    44   22   23 1    
    45   22   24 1    
    46   22  145 1    
    47   23  146 1    
    48   23  147 1    
    49   23  148 1    
    50   24   25 am   BACKBONE|DICT|INTERRES
    51   24  149 1    
    52   25   26 2    
    53   25   27 1    
    54   27   28 1    
    55   27   29 1    
    56   27  150 1    
    57   28  151 1    
    58   28  152 1    
    59   28  153 1    
    60   29   30 am   BACKBONE|DICT|INTERRES
    61   29  154 1    
    62   30   31 2    
    63   30   32 1    
    64   32   33 1    
    65   32   34 1    
    66   32  155 1    
    67   33  156 1    
    68   33  157 1    
    69   33  158 1    
    70   34   35 am   BACKBONE|DICT|INTERRES
    71   34  159 1    
    72   35   36 2    
    73   35   37 1    
    74   37   38 1    
    75   37   39 1    
    76   37  160 1    
    77   38  161 1    
    78   38  162 1    
    79   38  163 1    
    80   39   40 am   BACKBONE|DICT|INTERRES
    81   39  164 1    
    82   40   41 2    
    83   40   42 1    
    84   42   43 1    
    85   42   44 1    
    86   42  165 1    
    87   43  166 1    
    88   43  167 1    
    89   43  168 1    
    90   44   45 am   BACKBONE|DICT|INTERRES
    91   44  169 1    
    92   45   46 2    
    93   45   47 1    
    94   47   48 1    
    95   47   49 1    
    96   47  170 1    
    97   48  171 1    
    98   48  172 1    
    99   48  173 1    
   100   49   50 am   BACKBONE|DICT|INTERRES
   101   49  174 1    
   102   50   51 2    
   103   50   52 1    
   104   52   53 1    
   105   52   54 1    
   106   52  175 1    
   107   53  176 1    
   108   53  177 1    
   109   53  178 1    
   110   54   55 am   BACKBONE|DICT|INTERRES
   111   54  179 1    
   112   55   56 2    
   113   55   57 1    
   114   57   58 1    
   115   57   59 1    
   116   57  180 1    
   117   58  181 1    
   118   58  182 1    
   119   58  183 1    
   120   59   60 am   BACKBONE|DICT|INTERRES
   121   59  184 1    
   122   60   61 2    
   123   60   62 1    
   124   62   63 1    
   125   62   64 1    
   126   62  185 1    
   127   63  186 1    
   128   63  187 1    
   129   63  188 1    
   130   64   65 am   BACKBONE|DICT|INTERRES
   131   64  189 1    
   132   65   66 2    
   133   67   68 2    
   134   67   69 am   BACKBONE|DICT|INTERRES
   135   69   70 1    
   136   69  190 1    
   137   70   71 1    
   138   70   72 1    
   139   70  191 1    
   140   71  192 1    
   141   71  193 1    
   142   71  194 1    
   143   72   73 2    
   144   72   74 am   BACKBONE|DICT|INTERRES
   145   74   75 1    
   146   74  195 1    
   147   75   76 1    
   148   75   77 1    
   149   75  196 1    
   150   76  197 1    
   151   76  198 1    
   152   76  199 1    
   153   77   78 2    
   154   77   79 am   BACKBONE|DICT|INTERRES
   155   79   80 1    
   156   79  200 1    
   157   80   81 1    
   158   80   82 1    
   159   80  201 1    
   160   81  202 1    
   161   81  203 1    
   162   81  204 1    
   163   82   83 2    
   164   82   84 am   BACKBONE|DICT|INTERRES
   165   84   85 1    
   166   84  205 1    
   167   85   86 1    
   168   85   87 1    
   169   85  206 1    
   170   86  207 1    
   171   86  208 1    
   172   86  209 1    
   173   87   88 2    
   174   87   89 am   BACKBONE|DICT|INTERRES
   175   89   90 1    
   176   89  210 1    
   177   90   91 1    
   178   90   92 1    
   179   90  211 1    
   180   91  212 1    
   181   91  213 1    
   182   91  214 1    
   183   92   93 2    
   184   92   94 am   BACKBONE|DICT|INTERRES
   185   94   95 1    
   186   94  215 1    
   187   95   96 1    
   188   95   97 1    
   189   95  216 1    
   190   96  217 1    
   191   96  218 1    
   192   96  219 1    
   193   97   98 2    
   194   97   99 am   BACKBONE|DICT|INTERRES
   195   99  100 1    
   196   99  220 1    
   197  100  101 1    
   198  100  102 1    
   199  100  221 1    
   200  101  222 1    
   201  101  223 1    
   202  101  224 1    
   203  102  103 2    
   204  102  104 am   BACKBONE|DICT|INTERRES
   205  104  105 1    
   206  104  225 1    
   207  105  106 1    
   208  105  107 1    
   209  105  226 1    
   210  106  227 1    
   211  106  228 1    
   212  106  229 1    
   213  107  108 2    
   214  107  109 am   BACKBONE|DICT|INTERRES
   215  109  110 1    
   216  109  230 1    
   217  110  111 1    
   218  110  112 1    
   219  110  231 1    
   220  111  232 1    
   221  111  233 1    
   222  111  234 1    
   223  112  113 2    
   224  112  114 am   BACKBONE|DICT|INTERRES
   225  114  115 1    
   226  114  235 1    
   227  115  116 1    
   228  115  117 1    
   229  115  236 1    
   230  116  237 1    
   231  116  238 1    
   232  116  239 1    
   233  117  118 2    
   234  117  119 am   BACKBONE|DICT|INTERRES
   235  119  120 1    
   236  119  240 1    
   237  120  121 1    
   238  120  124 1    
   239  120  241 1    
   240  121  122 am   BACKBONE|DICT|INTERRES
   241  121  123 2    
   242  122  242 1    
   243  122  243 1    
   244  124  125 1    
   245  124  244 1    
   246  124  245 1    
   247  125  126 1    
   248  126  246 1    
   249  126  247 1    
@<TRIPOS>SUBSTRUCTURE
     1 UNK         1 GROUP             0       ****    0 ROOT    
