@<TRIPOS>MOLECULE
3R540
247   249    1
SMALL
USER_CHARGES


@<TRIPOS>ATOM
      1 CA         -2.3106  -16.2823  -48.9898 C.3       0 UNK        -0.1800 
      2 C          -2.7157  -16.1418  -47.5324 C.2       0 UNK         0.5000 
      3 O          -2.0761  -15.4047  -46.7806 O.2       0 UNK        -0.5000 
      4 N          -3.7825  -16.8444  -47.1344 N.am      1 UNK        -0.5000 
      5 CA         -4.3662  -16.8180  -45.7917 C.3       1 UNK         0.1400 
      6 C6         -5.4968  -17.8640  -45.6045 C.3       23 UNK        -0.0398 
      7 S7         -6.7906  -17.8562  -46.9008 S.3       23 UNK        -0.2404 
      8 C8         -6.5695  -19.4837  -47.6886 C.3       23 UNK        -0.0205 
      9 C9         -5.3932  -19.5036  -48.6535 C.ar      23 UNK        -0.0193 
     10 C10        -5.5713  -19.1238  -49.9861 C.ar      23 UNK        -0.1150 
     11 C11        -4.5032  -19.1661  -50.8869 C.ar      23 UNK        -0.0193 
     12 C12        -3.2495  -19.5973  -50.4454 C.ar      23 UNK        -0.1150 
     13 C13        -3.0489  -19.9517  -49.1079 C.ar      23 UNK        -0.0193 
     14 C14        -4.1283  -19.9073  -48.2201 C.ar      23 UNK        -0.1150 
     15 C15        -1.6543  -20.3161  -48.6166 C.3       23 UNK        -0.0205 
     16 S16        -1.5043  -22.0676  -48.1528 S.3       23 UNK        -0.2404 
     17 C17        -2.1826  -22.0798  -46.4561 C.3       23 UNK        -0.0398 
     18 CA         -1.3736  -23.0201  -45.5334 C.3       11 UNK         0.1400 
     19 N          -0.0139  -22.5398  -45.2736 N.am      11 UNK        -0.5000 
     20 C           1.0443  -23.3228  -45.0314 C.2       10 UNK         0.5000 
     21 O           0.9760  -24.5520  -44.9581 O.2       10 UNK        -0.5000 
     22 CA          2.3751  -22.6062  -44.7484 C.3       10 UNK         0.1400 
     23 CB          2.9850  -22.0541  -46.0456 C.3       10 UNK        -0.1800 
     24 N           2.2216  -21.5275  -43.7688 N.am      10 UNK        -0.5000 
     25 C           1.8681  -21.7166  -42.4888 C.2       9 UNK         0.5000 
     26 O           1.6824  -22.8279  -41.9945 O.2       9 UNK        -0.5000 
     27 CA          1.6630  -20.4641  -41.6180 C.3       9 UNK         0.1400 
     28 CB          3.0100  -19.9209  -41.1181 C.3       9 UNK        -0.1800 
     29 N           0.9297  -19.4067  -42.3132 N.am      9 UNK        -0.5000 
     30 C          -0.3612  -19.4813  -42.6690 C.2       8 UNK         0.5000 
     31 O          -1.0959  -20.4279  -42.3886 O.2       8 UNK        -0.5000 
     32 CA         -0.9189  -18.3192  -43.5150 C.3       8 UNK         0.1400 
     33 CB         -1.3545  -17.1470  -42.6238 C.3       8 UNK        -0.1800 
     34 N           0.0301  -17.8381  -44.5189 N.am      8 UNK        -0.5000 
     35 C           0.5224  -18.5884  -45.5142 C.2       7 UNK         0.5000 
     36 O           0.1967  -19.7568  -45.7149 O.2       7 UNK        -0.5000 
     37 CA          1.6025  -17.9467  -46.3968 C.3       7 UNK         0.1400 
     38 CB          0.9779  -16.9997  -47.4275 C.3       7 UNK        -0.1800 
     39 N           2.5973  -17.2313  -45.6005 N.am      7 UNK        -0.5000 
     40 C           3.4848  -17.8296  -44.7935 C.2       6 UNK         0.5000 
     41 O           3.5819  -19.0499  -44.6675 O.2       6 UNK        -0.5000 
     42 CA          4.3854  -16.9052  -43.9553 C.3       6 UNK         0.1400 
     43 CB          5.5977  -16.4393  -44.7752 C.3       6 UNK        -0.1800 
     44 N           3.6662  -15.7377  -43.4439 N.am      6 UNK        -0.5000 
     45 C           2.6768  -15.7947  -42.5411 C.2       5 UNK         0.5000 
     46 O           2.2825  -16.8380  -42.0227 O.2       5 UNK        -0.5000 
     47 CA          1.9808  -14.4664  -42.1971 C.3       5 UNK         0.1400 
     48 CB          2.7503  -13.7199  -41.0974 C.3       5 UNK        -0.1800 
     49 N           1.8161  -13.5900  -43.3601 N.am      5 UNK        -0.5000 
     50 C           1.0498  -13.8802  -44.4187 C.2       4 UNK         0.5000 
     51 O           0.4224  -14.9350  -44.5421 O.2       4 UNK        -0.5000 
     52 CA          0.9989  -12.8339  -45.5364 C.3       4 UNK         0.1400 
     53 CB          2.0038  -13.1635  -46.6528 C.3       4 UNK        -0.1800 
     54 N          -0.3543  -12.8053  -46.0744 N.am      4 UNK        -0.5000 
     55 C          -0.9636  -11.7237  -46.5754 C.2       3 UNK         0.5000 
     56 O          -0.4100  -10.6342  -46.7290 O.2       3 UNK        -0.5000 
     57 CA         -2.4520  -11.8721  -46.9321 C.3       3 UNK         0.1400 
     58 CB         -2.6177  -12.3998  -48.3655 C.3       3 UNK        -0.1800 
     59 N          -3.1238  -12.7698  -45.9912 N.am      3 UNK        -0.5000 
     60 C          -3.6689  -12.3790  -44.8300 C.2       2 UNK         0.5000 
     61 O          -3.7298  -11.1987  -44.4818 O.2       2 UNK        -0.5000 
     62 CA         -4.2018  -13.4664  -43.8678 C.3       2 UNK         0.1400 
     63 CB         -5.6225  -13.1465  -43.3578 C.3       2 UNK        -0.1800 
     64 N          -4.1142  -14.8398  -44.3803 N.am      2 UNK        -0.5000 
     65 C          -4.7970  -15.3880  -45.3958 C.2       1 UNK         0.5000 
     66 O          -5.6693  -14.8039  -46.0405 O.2       1 UNK        -0.5000 
     67 C          -2.1417  -23.4481  -44.2609 C.2       11 UNK         0.5000 
     68 O          -3.3557  -23.6470  -44.3194 O.2       11 UNK        -0.5000 
     69 N          -1.4285  -23.6629  -43.1463 N.am      12 UNK        -0.5000 
     70 CA         -1.8927  -24.5075  -42.0466 C.3       12 UNK         0.1400 
     71 CB         -1.0737  -24.2044  -40.7839 C.3       12 UNK        -0.1800 
     72 C          -1.7903  -26.0035  -42.4165 C.2       12 UNK         0.5000 
     73 O          -2.5663  -26.8048  -41.8946 O.2       12 UNK        -0.5000 
     74 N          -0.8503  -26.3463  -43.3118 N.am      13 UNK        -0.5000 
     75 CA         -0.6467  -27.6894  -43.8537 C.3       13 UNK         0.1400 
     76 CB          0.8110  -28.1133  -43.6124 C.3       13 UNK        -0.1800 
     77 C          -0.9833  -27.7387  -45.3543 C.2       13 UNK         0.5000 
     78 O          -1.6496  -28.6772  -45.7935 O.2       13 UNK        -0.5000 
     79 N          -0.5205  -26.7362  -46.1141 N.am      14 UNK        -0.5000 
     80 CA         -0.7819  -26.5772  -47.5467 C.3       14 UNK         0.1400 
     81 CB          0.3447  -25.7153  -48.1483 C.3       14 UNK        -0.1800 
     82 C          -2.1698  -25.9580  -47.8221 C.2       14 UNK         0.5000 
     83 O          -2.9188  -25.6619  -46.8893 O.2       14 UNK        -0.5000 
     84 N          -2.4756  -25.7417  -49.1051 N.am      15 UNK        -0.5000 
     85 CA         -3.6598  -25.0270  -49.5831 C.3       15 UNK         0.1400 
     86 CB         -4.9282  -25.8913  -49.4093 C.3       15 UNK        -0.1800 
     87 C          -3.4284  -24.5922  -51.0411 C.2       15 UNK         0.5000 
     88 O          -4.2935  -24.8067  -51.8924 O.2       15 UNK        -0.5000 
     89 N          -2.2403  -24.0437  -51.3266 N.am      16 UNK        -0.5000 
     90 CA         -1.7931  -23.7171  -52.6775 C.3       16 UNK         0.1400 
     91 CB         -1.2140  -24.9790  -53.3457 C.3       16 UNK        -0.1800 
     92 C          -0.7611  -22.5811  -52.6593 C.2       16 UNK         0.5000 
     93 O          -0.2014  -22.2720  -51.6052 O.2       16 UNK        -0.5000 
     94 N          -0.5175  -22.0185  -53.8502 N.am      17 UNK        -0.5000 
     95 CA          0.4104  -20.9322  -54.1653 C.3       17 UNK         0.1400 
     96 CB          1.8708  -21.3699  -53.9090 C.3       17 UNK        -0.1800 
     97 C           0.0085  -19.6096  -53.4804 C.2       17 UNK         0.5000 
     98 O          -1.1886  -19.3326  -53.3681 O.2       17 UNK        -0.5000 
     99 N           1.0114  -18.8167  -53.0756 N.am      18 UNK        -0.5000 
    100 CA         0.9142  -17.5365  -52.3689 C.3       18 UNK         0.1400 
    101 CB         0.4066  -17.7729  -50.9321 C.3       18 UNK        -0.1800 
    102 C          0.1082  -16.4635  -53.1357 C.2       18 UNK         0.5000 
    103 O          0.0504  -16.4981  -54.3684 O.2       18 UNK        -0.5000 
    104 N         -0.4724  -15.5064  -52.3979 N.am      19 UNK        -0.5000 
    105 CA        -1.3406  -14.4506  -52.9172 C.3       19 UNK         0.1400 
    106 CB        -1.7312  -13.5048  -51.7708 C.3       19 UNK        -0.1800 
    107 C         -2.5932  -15.0440  -53.5852 C.2       19 UNK         0.5000 
    108 O         -3.2242  -15.9274  -53.0062 O.2       19 UNK        -0.5000 
    109 N         -2.8974  -14.5631  -54.7968 N.am      20 UNK        -0.5000 
    110 CA        -3.9483  -15.0293  -55.7126 C.3       20 UNK         0.1400 
    111 CB        -5.3419  -15.0215  -55.0484 C.3       20 UNK        -0.1800 
    112 C         -3.6447  -16.3754  -56.4095 C.2       20 UNK         0.5000 
    113 O         -4.4448  -16.7896  -57.2491 O.2       20 UNK        -0.5000 
    114 N         -2.4925  -16.9981  -56.1060 N.am      21 UNK        -0.5000 
    115 CA        -1.9368  -18.2097  -56.7193 C.3       21 UNK         0.1400 
    116 CB        -1.4118  -17.8897  -58.1339 C.3       21 UNK        -0.1800 
    117 C         -2.9126  -19.4047  -56.6993 C.2       21 UNK         0.5000 
    118 O         -3.3594  -19.8609  -57.7546 O.2       21 UNK        -0.5000 
    119 N         -3.2454  -19.8697  -55.4900 N.am      22 UNK        -0.5000 
    120 CA        -4.1360  -21.0180  -55.2561 C.3       22 UNK         0.1400 
    121 C         -3.5652  -22.3636  -55.7900 C.2       22 UNK         0.5000 
    122 N         -4.4227  -23.3237  -56.1058 N.am      22 UNK        -0.7600 
    123 O         -2.3563  -22.5653  -55.8809 O.2       22 UNK        -0.5000 
    124 C124       -4.5285  -21.1286  -53.7600 C.3       23 UNK        -0.0398 
    125 S125       -5.7261  -19.8356  -53.2929 S.3       23 UNK        -0.2404 
    126 C126       -4.6979  -18.6952  -52.3200 C.3       23 UNK        -0.0205 
    127 H127       -3.1479  -16.0559  -49.6504 H         1 UNK         0.0600 
    128 H128       -1.9817  -17.3000  -49.1853 H         1 UNK         0.0600 
    129 H129       -1.4892  -15.6076  -49.2288 H         1 UNK         0.0600 
    130 H130       -4.2867  -17.4048  -47.8082 H         1 UNK         0.3000 
    131 H131       -3.5625  -17.1141  -45.1140 H         1 UNK         0.0600 
    132 H132       -5.9849  -17.7258  -44.6381 H         1 UNK         0.0800 
    133 H133       -5.0540  -18.8583  -45.5519 H         1 UNK         0.0800 
    134 H134       -7.4837  -19.7327  -48.2295 H         1 UNK         0.0800 
    135 H135       -6.4555  -20.2562  -46.9265 H         1 UNK         0.0800 
    136 H136       -6.5429  -18.7925  -50.3252 H         1 UNK         0.1150 
    137 H137       -2.4201  -19.6242  -51.1367 H         1 UNK         0.1150 
    138 H138       -3.9854  -20.1744  -47.1853 H         1 UNK         0.1150 
    139 H139       -0.9169  -20.1158  -49.3952 H         1 UNK         0.0800 
    140 H140       -1.3863  -19.6752  -47.7776 H         1 UNK         0.0800 
    141 H141       -3.2213  -22.4032  -46.5403 H         1 UNK         0.0800 
    142 H142       -2.1981  -21.0733  -46.0368 H         1 UNK         0.0800 
    143 H143       -1.2585  -23.9495  -46.0832 H         1 UNK         0.0600 
    144 H144        0.1193  -21.5309  -45.3277 H         1 UNK         0.3000 
    145 H145        3.0677  -23.3419  -44.3345 H         1 UNK         0.0600 
    146 H146        3.9655  -21.6143  -45.8629 H         1 UNK         0.0600 
    147 H147        2.3542  -21.2871  -46.4957 H         1 UNK         0.0600 
    148 H148        3.1154  -22.8464  -46.7837 H         1 UNK         0.0600 
    149 H149        2.4087  -20.5850  -44.0957 H         1 UNK         0.3000 
    150 H150        1.0760  -20.7608  -40.7461 H         1 UNK         0.0600 
    151 H151        3.5697  -20.6919  -40.5872 H         1 UNK         0.0600 
    152 H152        2.8669  -19.0897  -40.4275 H         1 UNK         0.0600 
    153 H153        3.6335  -19.5687  -41.9401 H         1 UNK         0.0600 
    154 H154        1.4449  -18.5561  -42.5182 H         1 UNK         0.3000 
    155 H155       -1.7979  -18.6895  -44.0465 H         1 UNK         0.0600 
    156 H156       -2.1250  -17.4584  -41.9175 H         1 UNK         0.0600 
    157 H157       -1.7621  -16.3298  -43.2179 H         1 UNK         0.0600 
    158 H158       -0.5192  -16.7510  -42.0459 H         1 UNK         0.0600 
    159 H159        0.3137  -16.8643  -44.4518 H         1 UNK         0.3000 
    160 H160        2.1090  -18.7479  -46.9393 H         1 UNK         0.0600 
    161 H161        0.4868  -16.1511  -46.9527 H         1 UNK         0.0600 
    162 H162        0.2263  -17.5228  -48.0177 H         1 UNK         0.0600 
    163 H163        1.7291  -16.6131  -48.1160 H         1 UNK         0.0600 
    164 H164        2.5494  -16.2241  -45.6078 H         1 UNK         0.3000 
    165 H165        4.7504  -17.4804  -43.1017 H         1 UNK         0.0600 
    166 H166        6.2805  -15.8461  -44.1666 H         1 UNK         0.0600 
    167 H167        6.1612  -17.2921  -45.1563 H         1 UNK         0.0600 
    168 H168        5.2986  -15.8340  -45.6319 H         1 UNK         0.0600 
    169 H169        3.9268  -14.8374  -43.8181 H         1 UNK         0.3000 
    170 H170        0.9865  -14.7051  -41.8137 H         1 UNK         0.0600 
    171 H171        3.7465  -13.4253  -41.4295 H         1 UNK         0.0600 
    172 H172        2.2197  -12.8199  -40.7863 H         1 UNK         0.0600 
    173 H173        2.8711  -14.3462  -40.2124 H         1 UNK         0.0600 
    174 H174        2.3055  -12.7070  -43.3318 H         1 UNK         0.3000 
    175 H175        1.2428  -11.8594  -45.1076 H         1 UNK         0.0600 
    176 H176        1.7766  -14.1154  -47.1322 H         1 UNK         0.0600 
    177 H177        1.9982  -12.3941  -47.4250 H         1 UNK         0.0600 
    178 H178        3.0202  -13.2236  -46.2621 H         1 UNK         0.0600 
    179 H179       -0.8680  -13.6760  -45.9805 H         1 UNK         0.3000 
    180 H180       -2.9144  -10.8838  -46.8861 H         1 UNK         0.0600 
    181 H181       -3.6662  -12.5759  -48.6063 H         1 UNK         0.0600 
    182 H182       -2.0753  -13.3316  -48.5186 H         1 UNK         0.0600 
    183 H183       -2.2326  -11.6802  -49.0888 H         1 UNK         0.0600 
    184 H184       -3.0585  -13.7616  -46.1933 H         1 UNK         0.3000 
    185 H185       -3.5369  -13.4386  -43.0034 H         1 UNK         0.0600 
    186 H186       -6.3409  -13.0665  -44.1738 H         1 UNK         0.0600 
    187 H187       -5.9778  -13.9139  -42.6701 H         1 UNK         0.0600 
    188 H188       -5.6395  -12.1982  -42.8194 H         1 UNK         0.0600 
    189 H189       -3.3840  -15.3940  -43.9568 H         1 UNK         0.3000 
    190 H190       -0.4472  -23.4201  -43.1439 H         1 UNK         0.3000 
    191 H191       -2.9391  -24.2768  -41.8359 H         1 UNK         0.0600 
    192 H192       -1.0865  -23.1397  -40.5491 H         1 UNK         0.0600 
    193 H193       -0.0338  -24.5129  -40.8943 H         1 UNK         0.0600 
    194 H194       -1.4803  -24.7350  -39.9223 H         1 UNK         0.0600 
    195 H195       -0.2602  -25.6189  -43.6981 H         1 UNK         0.3000 
    196 H196       -1.2940  -28.4091  -43.3484 H         1 UNK         0.0600 
    197 H197        1.0378  -28.1468  -42.5467 H         1 UNK         0.0600 
    198 H198        1.5157  -27.4258  -44.0821 H         1 UNK         0.0600 
    199 H199        1.0010  -29.1082  -44.0170 H         1 UNK         0.0600 
    200 H200        0.0284  -26.0002  -45.6801 H         1 UNK         0.3000 
    201 H201       -0.7542  -27.5603  -48.0212 H         1 UNK         0.0600 
    202 H202        1.3256  -26.1241  -47.9047 H         1 UNK         0.0600 
    203 H203        0.3126  -24.6899  -47.7793 H         1 UNK         0.0600 
    204 H204        0.2799  -25.6723  -49.2358 H         1 UNK         0.0600 
    205 H205       -1.8219  -26.0191  -49.8246 H         1 UNK         0.3000 
    206 H206       -3.7795  -24.1130  -48.9976 H         1 UNK         0.0600 
    207 H207       -5.8135  -25.3649  -49.7678 H         1 UNK         0.0600 
    208 H208       -4.8523  -26.8271  -49.9641 H         1 UNK         0.0600 
    209 H209       -5.1087  -26.1371  -48.3632 H         1 UNK         0.0600 
    210 H210       -1.5966  -23.7870  -50.5878 H         1 UNK         0.3000 
    211 H211       -2.6496  -23.3701  -53.2551 H         1 UNK         0.0600 
    212 H212       -0.3553  -25.3646  -52.7949 H         1 UNK         0.0600 
    213 H213       -0.8858  -24.7712  -54.3648 H         1 UNK         0.0600 
    214 H214       -1.9580  -25.7733  -53.4065 H         1 UNK         0.0600 
    215 H215       -1.0875  -22.3226  -54.6389 H         1 UNK         0.3000 
    216 H216        0.3042  -20.7559  -55.2365 H         1 UNK         0.0600 
    217 H217        2.0864  -21.4692  -52.8444 H         1 UNK         0.0600 
    218 H218        2.0768  -22.3322  -54.3779 H         1 UNK         0.0600 
    219 H219        2.5807  -20.6569  -54.3293 H         1 UNK         0.0600 
    220 H220        1.9529  -19.1293  -53.2632 H         1 UNK         0.3000 
    221 H221        1.9330  -17.1528  -52.3005 H         1 UNK         0.0600 
    222 H222        0.5091  -16.8758  -50.3228 H         1 UNK         0.0600 
    223 H223       -0.6421  -18.0671  -50.9273 H         1 UNK         0.0600 
    224 H224        0.9752  -18.5604  -50.4371 H         1 UNK         0.0600 
    225 H225       -0.3946  -15.5631  -51.3946 H         1 UNK         0.3000 
    226 H226       -0.7702  -13.8836  -53.6558 H         1 UNK         0.0600 
    227 H227       -0.8514  -13.0862  -51.2817 H         1 UNK         0.0600 
    228 H228       -2.3250  -12.6688  -52.1421 H         1 UNK         0.0600 
    229 H229       -2.3271  -14.0152  -51.0139 H         1 UNK         0.0600 
    230 H230       -2.2999  -13.8429  -55.1793 H         1 UNK         0.3000 
    231 H231       -3.9750  -14.2884  -56.5130 H         1 UNK         0.0600 
    232 H232       -5.5362  -14.0751  -54.5439 H         1 UNK         0.0600 
    233 H233       -5.4517  -15.8235  -54.3181 H         1 UNK         0.0600 
    234 H234       -6.1266  -15.1585  -55.7931 H         1 UNK         0.0600 
    235 H235       -1.9083  -16.5868  -55.3880 H         1 UNK         0.3000 
    236 H236       -1.0772  -18.4973  -56.1131 H         1 UNK         0.0600 
    237 H237       -2.2129  -17.5739  -58.8030 H         1 UNK         0.0600 
    238 H238       -0.6666  -17.0947  -58.1053 H         1 UNK         0.0600 
    239 H239       -0.9365  -18.7638  -58.5805 H         1 UNK         0.0600 
    240 H240       -2.7906  -19.4765  -54.6730 H         1 UNK         0.3000 
    241 H241       -5.0448  -20.8285  -55.8313 H         1 UNK         0.0600 
    242 H242       -4.0658  -24.2042  -56.4426 H         1 UNK         0.3800 
    243 H243       -5.4201  -23.1912  -56.0367 H         1 UNK         0.3800 
    244 H244       -3.6473  -21.0807  -53.1182 H         1 UNK         0.0800 
    245 H245       -5.0049  -22.0875  -53.5470 H         1 UNK         0.0800 
    246 H246       -3.7390  -18.5471  -52.8179 H         1 UNK         0.0800 
    247 H247       -5.1821  -17.7179  -52.3043 H         1 UNK         0.0800 
@<TRIPOS>BOND
     1    1    2 1    
     2    1  127 1    
     3    1  128 1    
     4    1  129 1    
     5    2    3 2    
     6    2    4 am   BACKBONE|DICT|INTERRES
     7    4    5 1    
     8    4  130 1    
     9    5    6 1    
    10    5   65 1    
    11    5  131 1    
    12    6    7 1    
    13    6  132 1    
    14    6  133 1    
    15    7    8 1    
    16    8    9 1    
    17    8  134 1    
    18    8  135 1    
    19    9   10 ar   
    20    9   14 ar   
    21   10   11 ar   
    22   10  136 1    
    23   11   12 ar   
    24   11  126 1    
    25   12   13 ar   
    26   12  137 1    
    27   13   14 ar   
    28   13   15 1    
    29   14  138 1    
    30   15   16 1    
    31   15  139 1    
    32   15  140 1    
    33   16   17 1    
    34   17   18 1    
    35   17  141 1    
    36   17  142 1    
    37   18   19 1    
    38   18   67 1    
    39   18  143 1    
    40   19   20 am   BACKBONE|DICT|INTERRES
    41   19  144 1    
    42   20   21 2    
    43   20   22 1    
    44   22   23 1    
    45   22   24 1    
    46   22  145 1    
    47   23  146 1    
    48   23  147 1    
    49   23  148 1    
    50   24   25 am   BACKBONE|DICT|INTERRES
    51   24  149 1    
    52   25   26 2    
    53   25   27 1    
    54   27   28 1    
    55   27   29 1    
    56   27  150 1    
    57   28  151 1    
    58   28  152 1    
    59   28  153 1    
    60   29   30 am   BACKBONE|DICT|INTERRES
    61   29  154 1    
    62   30   31 2    
    63   30   32 1    
    64   32   33 1    
    65   32   34 1    
    66   32  155 1    
    67   33  156 1    
    68   33  157 1    
    69   33  158 1    
    70   34   35 am   BACKBONE|DICT|INTERRES
    71   34  159 1    
    72   35   36 2    
    73   35   37 1    
    74   37   38 1    
    75   37   39 1    
    76   37  160 1    
    77   38  161 1    
    78   38  162 1    
    79   38  163 1    
    80   39   40 am   BACKBONE|DICT|INTERRES
    81   39  164 1    
    82   40   41 2    
    83   40   42 1    
    84   42   43 1    
    85   42   44 1    
    86   42  165 1    
    87   43  166 1    
    88   43  167 1    
    89   43  168 1    
    90   44   45 am   BACKBONE|DICT|INTERRES
    91   44  169 1    
    92   45   46 2    
    93   45   47 1    
    94   47   48 1    
    95   47   49 1    
    96   47  170 1    
    97   48  171 1    
    98   48  172 1    
    99   48  173 1    
   100   49   50 am   BACKBONE|DICT|INTERRES
   101   49  174 1    
   102   50   51 2    
   103   50   52 1    
   104   52   53 1    
   105   52   54 1    
   106   52  175 1    
   107   53  176 1    
   108   53  177 1    
   109   53  178 1    
   110   54   55 am   BACKBONE|DICT|INTERRES
   111   54  179 1    
   112   55   56 2    
   113   55   57 1    
   114   57   58 1    
   115   57   59 1    
   116   57  180 1    
   117   58  181 1    
   118   58  182 1    
   119   58  183 1    
   120   59   60 am   BACKBONE|DICT|INTERRES
   121   59  184 1    
   122   60   61 2    
   123   60   62 1    
   124   62   63 1    
   125   62   64 1    
   126   62  185 1    
   127   63  186 1    
   128   63  187 1    
   129   63  188 1    
   130   64   65 am   BACKBONE|DICT|INTERRES
   131   64  189 1    
   132   65   66 2    
   133   67   68 2    
   134   67   69 am   BACKBONE|DICT|INTERRES
   135   69   70 1    
   136   69  190 1    
   137   70   71 1    
   138   70   72 1    
   139   70  191 1    
   140   71  192 1    
   141   71  193 1    
   142   71  194 1    
   143   72   73 2    
   144   72   74 am   BACKBONE|DICT|INTERRES
   145   74   75 1    
   146   74  195 1    
   147   75   76 1    
   148   75   77 1    
   149   75  196 1    
   150   76  197 1    
   151   76  198 1    
   152   76  199 1    
   153   77   78 2    
   154   77   79 am   BACKBONE|DICT|INTERRES
   155   79   80 1    
   156   79  200 1    
   157   80   81 1    
   158   80   82 1    
   159   80  201 1    
   160   81  202 1    
   161   81  203 1    
   162   81  204 1    
   163   82   83 2    
   164   82   84 am   BACKBONE|DICT|INTERRES
   165   84   85 1    
   166   84  205 1    
   167   85   86 1    
   168   85   87 1    
   169   85  206 1    
   170   86  207 1    
   171   86  208 1    
   172   86  209 1    
   173   87   88 2    
   174   87   89 am   BACKBONE|DICT|INTERRES
   175   89   90 1    
   176   89  210 1    
   177   90   91 1    
   178   90   92 1    
   179   90  211 1    
   180   91  212 1    
   181   91  213 1    
   182   91  214 1    
   183   92   93 2    
   184   92   94 am   BACKBONE|DICT|INTERRES
   185   94   95 1    
   186   94  215 1    
   187   95   96 1    
   188   95   97 1    
   189   95  216 1    
   190   96  217 1    
   191   96  218 1    
   192   96  219 1    
   193   97   98 2    
   194   97   99 am   BACKBONE|DICT|INTERRES
   195   99  100 1    
   196   99  220 1    
   197  100  101 1    
   198  100  102 1    
   199  100  221 1    
   200  101  222 1    
   201  101  223 1    
   202  101  224 1    
   203  102  103 2    
   204  102  104 am   BACKBONE|DICT|INTERRES
   205  104  105 1    
   206  104  225 1    
   207  105  106 1    
   208  105  107 1    
   209  105  226 1    
   210  106  227 1    
   211  106  228 1    
   212  106  229 1    
   213  107  108 2    
   214  107  109 am   BACKBONE|DICT|INTERRES
   215  109  110 1    
   216  109  230 1    
   217  110  111 1    
   218  110  112 1    
   219  110  231 1    
   220  111  232 1    
   221  111  233 1    
   222  111  234 1    
   223  112  113 2    
   224  112  114 am   BACKBONE|DICT|INTERRES
   225  114  115 1    
   226  114  235 1    
   227  115  116 1    
   228  115  117 1    
   229  115  236 1    
   230  116  237 1    
   231  116  238 1    
   232  116  239 1    
   233  117  118 2    
   234  117  119 am   BACKBONE|DICT|INTERRES
   235  119  120 1    
   236  119  240 1    
   237  120  121 1    
   238  120  124 1    
   239  120  241 1    
   240  121  122 am   BACKBONE|DICT|INTERRES
   241  121  123 2    
   242  122  242 1    
   243  122  243 1    
   244  124  125 1    
   245  124  244 1    
   246  124  245 1    
   247  125  126 1    
   248  126  246 1    
   249  126  247 1    
@<TRIPOS>SUBSTRUCTURE
     1 UNK         1 GROUP             0       ****    0 ROOT    
