@<TRIPOS>MOLECULE
3R540
247   249    1
SMALL
USER_CHARGES


@<TRIPOS>ATOM
      1 CA          0.4796  -12.4979  -44.1071 C.3       0 UNK        -0.1800 
      2 C           1.1516  -12.5354  -45.4726 C.2       0 UNK         0.5000 
      3 O           1.5234  -11.4870  -46.0014 O.2       0 UNK        -0.5000 
      4 N           1.3049  -13.7345  -46.0484 N.am      1 UNK        -0.5000 
      5 CA          1.9407  -13.9808  -47.3468 C.3       1 UNK         0.1400 
      6 C6          1.4851  -15.3208  -47.9841 C.3       23 UNK        -0.0398 
      7 S7         -0.3123  -15.3543  -48.3127 S.3       23 UNK        -0.2404 
      8 C8         -0.6536  -17.1419  -48.3047 C.3       23 UNK        -0.0205 
      9 C9         -2.0307  -17.4477  -48.8762 C.ar      23 UNK        -0.0193 
     10 C10        -2.2092  -17.4642  -50.2616 C.ar      23 UNK        -0.1150 
     11 C11        -3.4547  -17.7642  -50.8163 C.ar      23 UNK        -0.0193 
     12 C12        -4.5245  -18.0693  -49.9711 C.ar      23 UNK        -0.1150 
     13 C13        -4.3682  -18.0657  -48.5799 C.ar      23 UNK        -0.0193 
     14 C14        -3.1164  -17.7323  -48.0380 C.ar      23 UNK        -0.1150 
     15 C15        -5.5936  -18.3947  -47.7215 C.3       23 UNK        -0.0205 
     16 S16        -5.2774  -18.9011  -45.9928 S.3       23 UNK        -0.2404 
     17 C17        -4.5121  -20.5478  -46.1874 C.3       23 UNK        -0.0398 
     18 CA         -3.1683  -20.6452  -45.4181 C.3       11 UNK         0.1400 
     19 N          -3.2963  -20.4463  -43.9693 N.am      11 UNK        -0.5000 
     20 C          -3.8581  -21.2724  -43.0742 C.2       10 UNK         0.5000 
     21 O          -4.4614  -22.3006  -43.3826 O.2       10 UNK        -0.5000 
     22 CA         -3.6784  -20.9213  -41.5816 C.3       10 UNK         0.1400 
     23 CB         -2.9299  -22.0512  -40.8540 C.3       10 UNK        -0.1800 
     24 N          -2.9169  -19.6840  -41.3979 N.am      10 UNK        -0.5000 
     25 C          -3.4338  -18.4972  -41.0517 C.2       9 UNK         0.5000 
     26 O          -4.6160  -18.3256  -40.7531 O.2       9 UNK        -0.5000 
     27 CA         -2.4742  -17.2867  -41.0668 C.3       9 UNK         0.1400 
     28 CB         -1.8971  -17.0407  -39.6648 C.3       9 UNK        -0.1800 
     29 N          -1.3664  -17.4195  -42.0170 N.am      9 UNK        -0.5000 
     30 C          -1.4966  -17.5746  -43.3415 C.2       8 UNK         0.5000 
     31 O          -2.5759  -17.5668  -43.9285 O.2       8 UNK        -0.5000 
     32 CA         -0.2172  -17.8560  -44.1452 C.3       8 UNK         0.1400 
     33 CB          0.3573  -16.5420  -44.6759 C.3       8 UNK        -0.1800 
     34 N           0.8160  -18.5598  -43.3852 N.am      8 UNK        -0.5000 
     35 C           0.6931  -19.7741  -42.8332 C.2       7 UNK         0.5000 
     36 O          -0.3241  -20.4620  -42.9281 O.2       7 UNK        -0.5000 
     37 CA          1.8911  -20.2834  -42.0155 C.3       7 UNK         0.1400 
     38 CB          2.9392  -20.9517  -42.9190 C.3       7 UNK        -0.1800 
     39 N           2.5229  -19.1937  -41.2727 N.am      7 UNK        -0.5000 
     40 C           2.1090  -18.7479  -40.0796 C.2       6 UNK         0.5000 
     41 O           1.1921  -19.2617  -39.4387 O.2       6 UNK        -0.5000 
     42 CA          2.8292  -17.5084  -39.5127 C.3       6 UNK         0.1400 
     43 CB          4.0494  -17.9292  -38.6799 C.3       6 UNK        -0.1800 
     44 N           3.2569  -16.5606  -40.5451 N.am      6 UNK        -0.5000 
     45 C           2.4220  -15.8350  -41.3017 C.2       5 UNK         0.5000 
     46 O           1.1956  -15.8859  -41.2058 O.2       5 UNK        -0.5000 
     47 CA          3.0622  -14.9265  -42.3717 C.3       5 UNK         0.1400 
     48 CB          3.4325  -13.5675  -41.7606 C.3       5 UNK        -0.1800 
     49 N           4.2354  -15.4862  -43.0529 N.am      5 UNK        -0.5000 
     50 C           4.3298  -16.6950  -43.6283 C.2       4 UNK         0.5000 
     51 O           3.4289  -17.5325  -43.5840 O.2       4 UNK        -0.5000 
     52 CA          5.6377  -17.0375  -44.3720 C.3       4 UNK         0.1400 
     53 CB          5.3781  -17.9202  -45.6044 C.3       4 UNK        -0.1800 
     54 N           6.3745  -15.8468  -44.7955 N.am      4 UNK        -0.5000 
     55 C           7.3024  -15.2091  -44.0694 C.2       3 UNK         0.5000 
     56 O           7.6379  -15.5620  -42.9387 O.2       3 UNK        -0.5000 
     57 CA          7.9555  -13.9589  -44.6939 C.3       3 UNK         0.1400 
     58 CB          9.3797  -14.2806  -45.1727 C.3       3 UNK        -0.1800 
     59 N           7.2015  -13.3863  -45.8126 N.am      3 UNK        -0.5000 
     60 C           6.0080  -12.7862  -45.7137 C.2       2 UNK         0.5000 
     61 O           5.4058  -12.6512  -44.6472 O.2       2 UNK        -0.5000 
     62 CA          5.3764  -12.2425  -47.0133 C.3       2 UNK         0.1400 
     63 CB          6.1588  -12.5928  -48.3001 C.3       2 UNK        -0.1800 
     64 N           3.9726  -12.6389  -47.1452 N.am      2 UNK        -0.5000 
     65 C           3.4760  -13.8819  -47.2119 C.2       1 UNK         0.5000 
     66 O           4.1629  -14.9035  -47.1497 O.2       1 UNK        -0.5000 
     67 C          -2.3427  -21.9064  -45.7661 C.2       11 UNK         0.5000 
     68 O          -2.5515  -22.5138  -46.8146 O.2       11 UNK        -0.5000 
     69 N          -1.3768  -22.2569  -44.9041 N.am      12 UNK        -0.5000 
     70 CA         -0.4211  -23.3439  -45.1294 C.3       12 UNK         0.1400 
     71 CB          0.1275  -23.8210  -43.7761 C.3       12 UNK        -0.1800 
     72 C           0.7172  -22.9258  -46.0823 C.2       12 UNK         0.5000 
     73 O           1.3418  -23.7873  -46.7004 O.2       12 UNK        -0.5000 
     74 N           0.9423  -21.6098  -46.2067 N.am      13 UNK        -0.5000 
     75 CA          1.8714  -20.9916  -47.1565 C.3       13 UNK         0.1400 
     76 CB          2.2521  -19.6010  -46.6207 C.3       13 UNK        -0.1800 
     77 C           1.2835  -20.8550  -48.5778 C.2       13 UNK         0.5000 
     78 O           2.0048  -20.4588  -49.4939 O.2       13 UNK        -0.5000 
     79 N          -0.0197  -21.1208  -48.7279 N.am      14 UNK        -0.5000 
     80 CA         -0.7852  -20.9065  -49.9501 C.3       14 UNK         0.1400 
     81 CB         -2.2723  -20.9349  -49.5877 C.3       14 UNK        -0.1800 
     82 C          -0.5194  -21.9630  -51.0319 C.2       14 UNK         0.5000 
     83 O          -0.1160  -23.0885  -50.7295 O.2       14 UNK        -0.5000 
     84 N          -0.8606  -21.6011  -52.2723 N.am      15 UNK        -0.5000 
     85 CA         -0.9418  -22.4994  -53.4187 C.3       15 UNK         0.1400 
     86 CB         -0.6055  -21.7040  -54.6915 C.3       15 UNK        -0.1800 
     87 C          -2.3471  -23.1291  -53.4648 C.2       15 UNK         0.5000 
     88 O          -3.1645  -22.7457  -54.2989 O.2       15 UNK        -0.5000 
     89 N          -2.5988  -24.0532  -52.5266 N.am      16 UNK        -0.5000 
     90 CA         -3.8213  -24.8475  -52.3309 C.3       16 UNK         0.1400 
     91 CB         -4.2170  -25.6236  -53.6039 C.3       16 UNK        -0.1800 
     92 C          -5.0094  -24.0972  -51.6869 C.2       16 UNK         0.5000 
     93 O          -6.0930  -24.6736  -51.5844 O.2       16 UNK        -0.5000 
     94 N          -4.7757  -22.8687  -51.2002 N.am      17 UNK        -0.5000 
     95 CA         -5.6013  -22.0473  -50.2940 C.3       17 UNK         0.1400 
     96 CB         -5.7631  -22.7428  -48.9295 C.3       17 UNK        -0.1800 
     97 C          -6.9712  -21.5702  -50.8164 C.2       17 UNK         0.5000 
     98 O          -7.3191  -20.4102  -50.5970 O.2       17 UNK        -0.5000 
     99 N          -7.7237  -22.4512  -51.4754 N.am      18 UNK        -0.5000 
    100 CA        -9.0608  -22.2010  -52.0162 C.3       18 UNK         0.1400 
    101 CB       -10.1184  -22.5053  -50.9383 C.3       18 UNK        -0.1800 
    102 C         -9.2864  -22.9992  -53.3135 C.2       18 UNK         0.5000 
    103 O        -10.4283  -23.2826  -53.6797 O.2       18 UNK        -0.5000 
    104 N         -8.1881  -23.3552  -53.9820 N.am      19 UNK        -0.5000 
    105 CA        -8.1188  -24.0789  -55.2415 C.3       19 UNK         0.1400 
    106 CB        -8.1482  -25.5928  -54.9656 C.3       19 UNK        -0.1800 
    107 C         -6.8204  -23.6539  -55.9402 C.2       19 UNK         0.5000 
    108 O         -6.0052  -22.9566  -55.3304 O.2       19 UNK        -0.5000 
    109 N         -6.6513  -24.0753  -57.2007 N.am      20 UNK        -0.5000 
    110 CA        -5.5061  -23.7746  -58.0674 C.3       20 UNK         0.1400 
    111 CB        -4.2475  -24.5274  -57.5767 C.3       20 UNK        -0.1800 
    112 C         -5.3093  -22.2513  -58.2363 C.2       20 UNK         0.5000 
    113 O         -6.2800  -21.5517  -58.5366 O.2       20 UNK        -0.5000 
    114 N         -4.0845  -21.7539  -58.0195 N.am      21 UNK        -0.5000 
    115 CA        -3.7353  -20.3328  -58.0888 C.3       21 UNK         0.1400 
    116 CB        -2.2083  -20.1854  -58.0234 C.3       21 UNK        -0.1800 
    117 C         -4.4185  -19.4689  -57.0084 C.2       21 UNK         0.5000 
    118 O         -4.6083  -18.2728  -57.2336 O.2       21 UNK        -0.5000 
    119 N         -4.7987  -20.0834  -55.8811 N.am      22 UNK        -0.5000 
    120 CA        -5.5940  -19.4597  -54.8121 C.3       22 UNK         0.1400 
    121 C         -7.1310  -19.6546  -54.9897 C.2       22 UNK         0.5000 
    122 N         -7.6207  -20.2111  -56.0923 N.am      22 UNK        -0.7600 
    123 O         -7.9061  -19.2682  -54.1201 O.2       22 UNK        -0.5000 
    124 C124       -5.1066  -19.8961  -53.4066 C.3       23 UNK        -0.0398 
    125 S125       -3.3878  -19.3757  -53.0764 S.3       23 UNK        -0.2404 
    126 C126       -3.6392  -17.7361  -52.3262 C.3       23 UNK        -0.0205 
    127 H127        0.1123  -13.4778  -43.8036 H         1 UNK         0.0600 
    128 H128       -0.3677  -11.8125  -44.1261 H         1 UNK         0.0600 
    129 H129        1.1840  -12.1477  -43.3529 H         1 UNK         0.0600 
    130 H130        0.9743  -14.5579  -45.5698 H         1 UNK         0.3000 
    131 H131        1.6317  -13.1876  -48.0318 H         1 UNK         0.0600 
    132 H132        1.7612  -16.1671  -47.3550 H         1 UNK         0.0800 
    133 H133        1.9948  -15.4769  -48.9366 H         1 UNK         0.0800 
    134 H134       -0.5711  -17.5282  -47.2898 H         1 UNK         0.0800 
    135 H135        0.1049  -17.6600  -48.8940 H         1 UNK         0.0800 
    136 H136       -1.3747  -17.2355  -50.9097 H         1 UNK         0.1150 
    137 H137       -5.4885  -18.3052  -50.4003 H         1 UNK         0.1150 
    138 H138       -2.9778  -17.6994  -46.9670 H         1 UNK         0.1150 
    139 H139       -6.2321  -17.5109  -47.7001 H         1 UNK         0.0800 
    140 H140       -6.1784  -19.1801  -48.2037 H         1 UNK         0.0800 
    141 H141       -4.3606  -20.7290  -47.2517 H         1 UNK         0.0800 
    142 H142       -5.2129  -21.3098  -45.8442 H         1 UNK         0.0800 
    143 H143       -2.5476  -19.8188  -45.7660 H         1 UNK         0.0600 
    144 H144       -2.9103  -19.5759  -43.6262 H         1 UNK         0.3000 
    145 H145       -4.6746  -20.8299  -41.1445 H         1 UNK         0.0600 
    146 H146       -2.8086  -21.8246  -39.7947 H         1 UNK         0.0600 
    147 H147       -3.4749  -22.9935  -40.9227 H         1 UNK         0.0600 
    148 H148       -1.9376  -22.2138  -41.2776 H         1 UNK         0.0600 
    149 H149       -1.9338  -19.7351  -41.6372 H         1 UNK         0.3000 
    150 H150       -3.0561  -16.4101  -41.3586 H         1 UNK         0.0600 
    151 H151       -2.6930  -16.9003  -38.9324 H         1 UNK         0.0600 
    152 H152       -1.2755  -16.1451  -39.6454 H         1 UNK         0.0600 
    153 H153       -1.2856  -17.8796  -39.3302 H         1 UNK         0.0600 
    154 H154       -0.4309  -17.3687  -41.6323 H         1 UNK         0.3000 
    155 H155       -0.4873  -18.4870  -44.9933 H         1 UNK         0.0600 
    156 H156        0.5310  -15.8420  -43.8622 H         1 UNK         0.0600 
    157 H157       -0.3399  -16.0685  -45.3672 H         1 UNK         0.0600 
    158 H158        1.3011  -16.7038  -45.1946 H         1 UNK         0.0600 
    159 H159        1.7173  -18.0929  -43.3120 H         1 UNK         0.3000 
    160 H160        1.5167  -21.0363  -41.3186 H         1 UNK         0.0600 
    161 H161        3.4679  -20.2248  -43.5343 H         1 UNK         0.0600 
    162 H162        2.4873  -21.6812  -43.5906 H         1 UNK         0.0600 
    163 H163        3.6843  -21.4785  -42.3230 H         1 UNK         0.0600 
    164 H164        3.2351  -18.6698  -41.7651 H         1 UNK         0.3000 
    165 H165        2.1272  -16.9939  -38.8528 H         1 UNK         0.0600 
    166 H166        4.5192  -17.0676  -38.2051 H         1 UNK         0.0600 
    167 H167        3.7609  -18.6191  -37.8857 H         1 UNK         0.0600 
    168 H168        4.8019  -18.4286  -39.2914 H         1 UNK         0.0600 
    169 H169        4.2504  -16.4636  -40.6957 H         1 UNK         0.3000 
    170 H170        2.3135  -14.7445  -43.1407 H         1 UNK         0.0600 
    171 H171        2.5816  -13.1260  -41.2398 H         1 UNK         0.0600 
    172 H172        4.2478  -13.6579  -41.0419 H         1 UNK         0.0600 
    173 H173        3.7397  -12.8594  -42.5300 H         1 UNK         0.0600 
    174 H174        5.0206  -14.8603  -43.1615 H         1 UNK         0.3000 
    175 H175        6.2524  -17.6146  -43.6786 H         1 UNK         0.0600 
    176 H176        4.6837  -17.4468  -46.2991 H         1 UNK         0.0600 
    177 H177        6.3021  -18.1293  -46.1435 H         1 UNK         0.0600 
    178 H178        4.9530  -18.8813  -45.3144 H         1 UNK         0.0600 
    179 H179        6.1112  -15.4591  -45.6922 H         1 UNK         0.3000 
    180 H180        8.0216  -13.2023  -43.9094 H         1 UNK         0.0600 
    181 H181        9.3771  -15.0222  -45.9725 H         1 UNK         0.0600 
    182 H182        9.9864  -14.6788  -44.3581 H         1 UNK         0.0600 
    183 H183        9.8834  -13.3875  -45.5430 H         1 UNK         0.0600 
    184 H184        7.6248  -13.4646  -46.7260 H         1 UNK         0.3000 
    185 H185        5.3773  -11.1562  -46.9139 H         1 UNK         0.0600 
    186 H186        7.1683  -12.1806  -48.2760 H         1 UNK         0.0600 
    187 H187        6.2390  -13.6697  -48.4535 H         1 UNK         0.0600 
    188 H188        5.6683  -12.1727  -49.1782 H         1 UNK         0.0600 
    189 H189        3.2987  -11.8844  -47.0733 H         1 UNK         0.3000 
    190 H190       -1.2321  -21.6933  -44.0703 H         1 UNK         0.3000 
    191 H191       -0.9430  -24.1836  -45.5935 H         1 UNK         0.0600 
    192 H192       -0.6726  -24.2121  -43.1473 H         1 UNK         0.0600 
    193 H193        0.6150  -23.0172  -43.2267 H         1 UNK         0.0600 
    194 H194        0.8573  -24.6208  -43.9082 H         1 UNK         0.0600 
    195 H195        0.3884  -20.9831  -45.6439 H         1 UNK         0.3000 
    196 H196        2.7757  -21.6000  -47.2227 H         1 UNK         0.0600 
    197 H197        3.0035  -19.1294  -47.2552 H         1 UNK         0.0600 
    198 H198        2.6687  -19.6599  -45.6174 H         1 UNK         0.0600 
    199 H199        1.3924  -18.9327  -46.5846 H         1 UNK         0.0600 
    200 H200       -0.5245  -21.5202  -47.9511 H         1 UNK         0.3000 
    201 H201       -0.5331  -19.9199  -50.3444 H         1 UNK         0.0600 
    202 H202       -2.4841  -20.3152  -48.7197 H         1 UNK         0.0600 
    203 H203       -2.6146  -21.9458  -49.3650 H         1 UNK         0.0600 
    204 H204       -2.8707  -20.5565  -50.4135 H         1 UNK         0.0600 
    205 H205       -1.2431  -20.6770  -52.4226 H         1 UNK         0.3000 
    206 H206       -0.2100  -23.3044  -53.3229 H         1 UNK         0.0600 
    207 H207        0.4153  -21.3231  -54.6587 H         1 UNK         0.0600 
    208 H208       -0.6910  -22.3321  -55.5790 H         1 UNK         0.0600 
    209 H209       -1.2745  -20.8528  -54.8208 H         1 UNK         0.0600 
    210 H210       -1.8557  -24.2471  -51.8664 H         1 UNK         0.3000 
    211 H211       -3.5427  -25.5986  -51.5905 H         1 UNK         0.0600 
    212 H212       -4.5776  -24.9610  -54.3879 H         1 UNK         0.0600 
    213 H213       -5.0118  -26.3403  -53.3953 H         1 UNK         0.0600 
    214 H214       -3.3729  -26.1856  -54.0029 H         1 UNK         0.0600 
    215 H215       -3.8660  -22.4852  -51.4081 H         1 UNK         0.3000 
    216 H216       -5.0311  -21.1359  -50.1197 H         1 UNK         0.0600 
    217 H217       -6.3035  -22.1061  -48.2279 H         1 UNK         0.0600 
    218 H218       -4.7947  -22.9693  -48.4836 H         1 UNK         0.0600 
    219 H219       -6.3191  -23.6770  -49.0131 H         1 UNK         0.0600 
    220 H220       -7.3494  -23.3921  -51.5955 H         1 UNK         0.3000 
    221 H221       -9.1442  -21.1484  -52.2945 H         1 UNK         0.0600 
    222 H222      -10.0955  -23.5549  -50.6432 H         1 UNK         0.0600 
    223 H223       -9.9566  -21.9021  -50.0449 H         1 UNK         0.0600 
    224 H224      -11.1240  -22.2839  -51.2977 H         1 UNK         0.0600 
    225 H225       -7.2867  -23.0121  -53.6729 H         1 UNK         0.3000 
    226 H226       -8.9602  -23.7956  -55.8770 H         1 UNK         0.0600 
    227 H227       -9.0687  -25.8832  -54.4590 H         1 UNK         0.0600 
    228 H228       -8.0944  -26.1664  -55.8914 H         1 UNK         0.0600 
    229 H229       -7.3114  -25.9000  -54.3373 H         1 UNK         0.0600 
    230 H230       -7.3900  -24.6130  -57.6311 H         1 UNK         0.3000 
    231 H231       -5.7571  -24.1595  -59.0566 H         1 UNK         0.0600 
    232 H232       -3.8989  -24.1605  -56.6107 H         1 UNK         0.0600 
    233 H233       -3.4260  -24.4305  -58.2874 H         1 UNK         0.0600 
    234 H234       -4.4494  -25.5930  -57.4680 H         1 UNK         0.0600 
    235 H235       -3.3517  -22.3867  -57.7336 H         1 UNK         0.3000 
    236 H236       -4.0682  -19.9569  -59.0585 H         1 UNK         0.0600 
    237 H237       -1.9126  -19.1374  -58.0874 H         1 UNK         0.0600 
    238 H238       -1.8083  -20.5826  -57.0919 H         1 UNK         0.0600 
    239 H239       -1.7249  -20.7098  -58.8478 H         1 UNK         0.0600 
    240 H240       -4.6298  -21.0773  -55.7738 H         1 UNK         0.3000 
    241 H241       -5.4541  -18.3787  -54.8631 H         1 UNK         0.0600 
    242 H242       -8.6182  -20.3022  -56.1944 H         1 UNK         0.3800 
    243 H243       -7.0093  -20.5452  -56.8269 H         1 UNK         0.3800 
    244 H244       -5.7456  -19.4862  -52.6240 H         1 UNK         0.0800 
    245 H245       -5.1642  -20.9815  -53.3161 H         1 UNK         0.0800 
    246 H246       -2.9248  -17.0419  -52.7710 H         1 UNK         0.0800 
    247 H247       -4.6261  -17.3451  -52.5777 H         1 UNK         0.0800 
@<TRIPOS>BOND
     1    1    2 1    
     2    1  127 1    
     3    1  128 1    
     4    1  129 1    
     5    2    3 2    
     6    2    4 am   BACKBONE|DICT|INTERRES
     7    4    5 1    
     8    4  130 1    
     9    5    6 1    
    10    5   65 1    
    11    5  131 1    
    12    6    7 1    
    13    6  132 1    
    14    6  133 1    
    15    7    8 1    
    16    8    9 1    
    17    8  134 1    
    18    8  135 1    
    19    9   10 ar   
    20    9   14 ar   
    21   10   11 ar   
    22   10  136 1    
    23   11   12 ar   
    24   11  126 1    
    25   12   13 ar   
    26   12  137 1    
    27   13   14 ar   
    28   13   15 1    
    29   14  138 1    
    30   15   16 1    
    31   15  139 1    
    32   15  140 1    
    33   16   17 1    
    34   17   18 1    
    35   17  141 1    
    36   17  142 1    
    37   18   19 1    
    38   18   67 1    
    39   18  143 1    
    40   19   20 am   BACKBONE|DICT|INTERRES
    41   19  144 1    
    42   20   21 2    
    43   20   22 1    
    44   22   23 1    
    45   22   24 1    
    46   22  145 1    
    47   23  146 1    
    48   23  147 1    
    49   23  148 1    
    50   24   25 am   BACKBONE|DICT|INTERRES
    51   24  149 1    
    52   25   26 2    
    53   25   27 1    
    54   27   28 1    
    55   27   29 1    
    56   27  150 1    
    57   28  151 1    
    58   28  152 1    
    59   28  153 1    
    60   29   30 am   BACKBONE|DICT|INTERRES
    61   29  154 1    
    62   30   31 2    
    63   30   32 1    
    64   32   33 1    
    65   32   34 1    
    66   32  155 1    
    67   33  156 1    
    68   33  157 1    
    69   33  158 1    
    70   34   35 am   BACKBONE|DICT|INTERRES
    71   34  159 1    
    72   35   36 2    
    73   35   37 1    
    74   37   38 1    
    75   37   39 1    
    76   37  160 1    
    77   38  161 1    
    78   38  162 1    
    79   38  163 1    
    80   39   40 am   BACKBONE|DICT|INTERRES
    81   39  164 1    
    82   40   41 2    
    83   40   42 1    
    84   42   43 1    
    85   42   44 1    
    86   42  165 1    
    87   43  166 1    
    88   43  167 1    
    89   43  168 1    
    90   44   45 am   BACKBONE|DICT|INTERRES
    91   44  169 1    
    92   45   46 2    
    93   45   47 1    
    94   47   48 1    
    95   47   49 1    
    96   47  170 1    
    97   48  171 1    
    98   48  172 1    
    99   48  173 1    
   100   49   50 am   BACKBONE|DICT|INTERRES
   101   49  174 1    
   102   50   51 2    
   103   50   52 1    
   104   52   53 1    
   105   52   54 1    
   106   52  175 1    
   107   53  176 1    
   108   53  177 1    
   109   53  178 1    
   110   54   55 am   BACKBONE|DICT|INTERRES
   111   54  179 1    
   112   55   56 2    
   113   55   57 1    
   114   57   58 1    
   115   57   59 1    
   116   57  180 1    
   117   58  181 1    
   118   58  182 1    
   119   58  183 1    
   120   59   60 am   BACKBONE|DICT|INTERRES
   121   59  184 1    
   122   60   61 2    
   123   60   62 1    
   124   62   63 1    
   125   62   64 1    
   126   62  185 1    
   127   63  186 1    
   128   63  187 1    
   129   63  188 1    
   130   64   65 am   BACKBONE|DICT|INTERRES
   131   64  189 1    
   132   65   66 2    
   133   67   68 2    
   134   67   69 am   BACKBONE|DICT|INTERRES
   135   69   70 1    
   136   69  190 1    
   137   70   71 1    
   138   70   72 1    
   139   70  191 1    
   140   71  192 1    
   141   71  193 1    
   142   71  194 1    
   143   72   73 2    
   144   72   74 am   BACKBONE|DICT|INTERRES
   145   74   75 1    
   146   74  195 1    
   147   75   76 1    
   148   75   77 1    
   149   75  196 1    
   150   76  197 1    
   151   76  198 1    
   152   76  199 1    
   153   77   78 2    
   154   77   79 am   BACKBONE|DICT|INTERRES
   155   79   80 1    
   156   79  200 1    
   157   80   81 1    
   158   80   82 1    
   159   80  201 1    
   160   81  202 1    
   161   81  203 1    
   162   81  204 1    
   163   82   83 2    
   164   82   84 am   BACKBONE|DICT|INTERRES
   165   84   85 1    
   166   84  205 1    
   167   85   86 1    
   168   85   87 1    
   169   85  206 1    
   170   86  207 1    
   171   86  208 1    
   172   86  209 1    
   173   87   88 2    
   174   87   89 am   BACKBONE|DICT|INTERRES
   175   89   90 1    
   176   89  210 1    
   177   90   91 1    
   178   90   92 1    
   179   90  211 1    
   180   91  212 1    
   181   91  213 1    
   182   91  214 1    
   183   92   93 2    
   184   92   94 am   BACKBONE|DICT|INTERRES
   185   94   95 1    
   186   94  215 1    
   187   95   96 1    
   188   95   97 1    
   189   95  216 1    
   190   96  217 1    
   191   96  218 1    
   192   96  219 1    
   193   97   98 2    
   194   97   99 am   BACKBONE|DICT|INTERRES
   195   99  100 1    
   196   99  220 1    
   197  100  101 1    
   198  100  102 1    
   199  100  221 1    
   200  101  222 1    
   201  101  223 1    
   202  101  224 1    
   203  102  103 2    
   204  102  104 am   BACKBONE|DICT|INTERRES
   205  104  105 1    
   206  104  225 1    
   207  105  106 1    
   208  105  107 1    
   209  105  226 1    
   210  106  227 1    
   211  106  228 1    
   212  106  229 1    
   213  107  108 2    
   214  107  109 am   BACKBONE|DICT|INTERRES
   215  109  110 1    
   216  109  230 1    
   217  110  111 1    
   218  110  112 1    
   219  110  231 1    
   220  111  232 1    
   221  111  233 1    
   222  111  234 1    
   223  112  113 2    
   224  112  114 am   BACKBONE|DICT|INTERRES
   225  114  115 1    
   226  114  235 1    
   227  115  116 1    
   228  115  117 1    
   229  115  236 1    
   230  116  237 1    
   231  116  238 1    
   232  116  239 1    
   233  117  118 2    
   234  117  119 am   BACKBONE|DICT|INTERRES
   235  119  120 1    
   236  119  240 1    
   237  120  121 1    
   238  120  124 1    
   239  120  241 1    
   240  121  122 am   BACKBONE|DICT|INTERRES
   241  121  123 2    
   242  122  242 1    
   243  122  243 1    
   244  124  125 1    
   245  124  244 1    
   246  124  245 1    
   247  125  126 1    
   248  126  246 1    
   249  126  247 1    
@<TRIPOS>SUBSTRUCTURE
     1 UNK         1 GROUP             0       ****    0 ROOT    
