@<TRIPOS>MOLECULE
3R540
247   249    1
SMALL
USER_CHARGES


@<TRIPOS>ATOM
      1 CA          6.1051  -14.7248  -51.9468 C.3       0 UNK        -0.1800 
      2 C           6.3040  -15.1935  -50.5127 C.2       0 UNK         0.5000 
      3 O           7.4135  -15.1072  -49.9852 O.2       0 UNK        -0.5000 
      4 N           5.2338  -15.6776  -49.8723 N.am      1 UNK        -0.5000 
      5 CA          5.1897  -16.1839  -48.4941 C.3       1 UNK         0.1400 
      6 C6          4.0470  -17.2184  -48.3073 C.3       23 UNK        -0.0398 
      7 S7          2.4069  -16.6439  -48.8720 S.3       23 UNK        -0.2404 
      8 C8          1.3963  -18.0856  -48.4292 C.3       23 UNK        -0.0205 
      9 C9         -0.0809  -17.7984  -48.6277 C.ar      23 UNK        -0.0193 
     10 C10        -0.7093  -18.0841  -49.8424 C.ar      23 UNK        -0.1150 
     11 C11        -2.0728  -17.8265  -50.0156 C.ar      23 UNK        -0.0193 
     12 C12        -2.8058  -17.2762  -48.9584 C.ar      23 UNK        -0.1150 
     13 C13        -2.1823  -16.9685  -47.7459 C.ar      23 UNK        -0.0193 
     14 C14        -0.8217  -17.2399  -47.5862 C.ar      23 UNK        -0.1150 
     15 C15        -2.9752  -16.3466  -46.6068 C.3       23 UNK        -0.0205 
     16 S16        -3.9252  -17.5910  -45.6807 S.3       23 UNK        -0.2404 
     17 C17        -2.5971  -18.6299  -44.9809 C.3       23 UNK        -0.0398 
     18 CA         -2.2943  -19.8777  -45.8472 C.3       11 UNK         0.1400 
     19 N          -0.9657  -20.4306  -45.5632 N.am      11 UNK        -0.5000 
     20 C          -0.3860  -21.4414  -46.2259 C.2       10 UNK         0.5000 
     21 O          -0.9007  -22.0064  -47.1883 O.2       10 UNK        -0.5000 
     22 CA          0.9672  -21.9430  -45.6996 C.3       10 UNK         0.1400 
     23 CB          2.1254  -21.1040  -46.2578 C.3       10 UNK        -0.1800 
     24 N           0.9994  -21.9283  -44.2384 N.am      10 UNK        -0.5000 
     25 C           0.4443  -22.8738  -43.4672 C.2       9 UNK         0.5000 
     26 O          -0.0670  -23.9026  -43.9092 O.2       9 UNK        -0.5000 
     27 CA          0.4345  -22.6165  -41.9477 C.3       9 UNK         0.1400 
     28 CB          1.7154  -23.1628  -41.2999 C.3       9 UNK        -0.1800 
     29 N           0.2876  -21.2003  -41.6039 N.am      9 UNK        -0.5000 
     30 C          -0.8131  -20.4720  -41.8375 C.2       8 UNK         0.5000 
     31 O          -1.8354  -20.9246  -42.3524 O.2       8 UNK        -0.5000 
     32 CA         -0.7404  -18.9730  -41.4872 C.3       8 UNK         0.1400 
     33 CB         -1.1326  -18.7402  -40.0212 C.3       8 UNK        -0.1800 
     34 N           0.5645  -18.3548  -41.7413 N.am      8 UNK        -0.5000 
     35 C           1.2018  -18.3358  -42.9203 C.2       7 UNK         0.5000 
     36 O           0.7923  -18.9271  -43.9199 O.2       7 UNK        -0.5000 
     37 CA          2.4974  -17.5083  -42.9810 C.3       7 UNK         0.1400 
     38 CB          3.1086  -17.4609  -44.3937 C.3       7 UNK        -0.1800 
     39 N           2.2226  -16.1428  -42.5437 N.am      7 UNK        -0.5000 
     40 C           2.4595  -15.6494  -41.3213 C.2       6 UNK         0.5000 
     41 O           2.9443  -16.3127  -40.4044 O.2       6 UNK        -0.5000 
     42 CA          2.0868  -14.1740  -41.0717 C.3       6 UNK         0.1400 
     43 CB          3.3386  -13.2882  -41.1667 C.3       6 UNK        -0.1800 
     44 N           1.0819  -13.6711  -42.0094 N.am      6 UNK        -0.5000 
     45 C          -0.2227  -13.9778  -41.9755 C.2       5 UNK         0.5000 
     46 O          -0.7433  -14.6606  -41.0932 O.2       5 UNK        -0.5000 
     47 CA         -1.0797  -13.4584  -43.1480 C.3       5 UNK         0.1400 
     48 CB         -1.7039  -12.0990  -42.8004 C.3       5 UNK        -0.1800 
     49 N          -0.3284  -13.3329  -44.4008 N.am      5 UNK        -0.5000 
     50 C           0.2313  -14.3502  -45.0663 C.2       4 UNK         0.5000 
     51 O           0.1621  -15.5177  -44.6884 O.2       4 UNK        -0.5000 
     52 CA          1.0583  -14.0105  -46.3175 C.3       4 UNK         0.1400 
     53 CB          0.1679  -13.6068  -47.5082 C.3       4 UNK        -0.1800 
     54 N           2.1215  -13.0307  -46.0612 N.am      4 UNK        -0.5000 
     55 C           2.0140  -11.7244  -45.7693 C.2       3 UNK         0.5000 
     56 O           0.9357  -11.1344  -45.6874 O.2       3 UNK        -0.5000 
     57 CA          3.3110  -10.9423  -45.4697 C.3       3 UNK         0.1400 
     58 CB          3.2785  -10.3689  -44.0431 C.3       3 UNK        -0.1800 
     59 N           4.5265  -11.7449  -45.6174 N.am      3 UNK        -0.5000 
     60 C           5.1391  -12.0100  -46.7776 C.2       2 UNK         0.5000 
     61 O           4.7617  -11.5681  -47.8642 O.2       2 UNK        -0.5000 
     62 CA          6.3695  -12.9415  -46.7294 C.3       2 UNK         0.1400 
     63 CB          6.8126  -13.3424  -45.3029 C.3       2 UNK        -0.1800 
     64 N           6.1646  -14.1359  -47.5522 N.am      2 UNK        -0.5000 
     65 C           5.1816  -15.0417  -47.4467 C.2       1 UNK         0.5000 
     66 O           4.3075  -14.9907  -46.5789 O.2       1 UNK        -0.5000 
     67 C          -3.4085  -20.9385  -45.7360 C.2       11 UNK         0.5000 
     68 O          -4.2750  -21.0037  -46.6079 O.2       11 UNK        -0.5000 
     69 N          -3.3143  -21.8066  -44.7190 N.am      12 UNK        -0.5000 
     70 CA         -4.1989  -22.9540  -44.4971 C.3       12 UNK         0.1400 
     71 CB         -3.8206  -23.6161  -43.1633 C.3       12 UNK        -0.1800 
     72 C          -4.1954  -23.9975  -45.6367 C.2       12 UNK         0.5000 
     73 O          -5.1535  -24.7626  -45.7492 O.2       12 UNK        -0.5000 
     74 N          -3.1369  -24.0063  -46.4569 N.am      13 UNK        -0.5000 
     75 CA         -2.9827  -24.8545  -47.6375 C.3       13 UNK         0.1400 
     76 CB         -1.6267  -25.5738  -47.5343 C.3       13 UNK        -0.1800 
     77 C          -3.0626  -24.0481  -48.9487 C.2       13 UNK         0.5000 
     78 O          -2.8486  -24.6342  -50.0104 O.2       13 UNK        -0.5000 
     79 N          -3.3227  -22.7310  -48.8651 N.am      14 UNK        -0.5000 
     80 CA         -3.2702  -21.7366  -49.9458 C.3       14 UNK         0.1400 
     81 CB         -4.5184  -21.8511  -50.8411 C.3       14 UNK        -0.1800 
     82 C          -1.9470  -21.8138  -50.7377 C.2       14 UNK         0.5000 
     83 O          -1.9595  -21.9593  -51.9626 O.2       14 UNK        -0.5000 
     84 N          -0.8330  -21.8254  -49.9915 N.am      15 UNK        -0.5000 
     85 CA          0.5259  -22.2124  -50.3811 C.3       15 UNK         0.1400 
     86 CB          1.1049  -21.3242  -51.5007 C.3       15 UNK        -0.1800 
     87 C           0.6080  -23.7134  -50.7138 C.2       15 UNK         0.5000 
     88 O           1.2218  -24.4703  -49.9610 O.2       15 UNK        -0.5000 
     89 N          -0.0406  -24.1131  -51.8115 N.am      16 UNK        -0.5000 
     90 CA         -0.2121  -25.4998  -52.2410 C.3       16 UNK         0.1400 
     91 CB          1.0324  -25.9521  -53.0288 C.3       16 UNK        -0.1800 
     92 C          -1.5077  -25.7068  -53.0532 C.2       16 UNK         0.5000 
     93 O          -1.7171  -26.8041  -53.5725 O.2       16 UNK        -0.5000 
     94 N          -2.3515  -24.6706  -53.1767 N.am      17 UNK        -0.5000 
     95 CA         -3.5637  -24.6818  -53.9996 C.3       17 UNK         0.1400 
     96 CB         -3.8034  -23.2560  -54.5153 C.3       17 UNK        -0.1800 
     97 C          -4.8121  -25.2055  -53.2611 C.2       17 UNK         0.5000 
     98 O          -5.8890  -25.2367  -53.8608 O.2       17 UNK        -0.5000 
     99 N          -4.6734  -25.5548  -51.9740 N.am      18 UNK        -0.5000 
    100 CA        -5.6946  -25.9894  -51.0130 C.3       18 UNK         0.1400 
    101 CB        -6.4174  -27.2700  -51.4751 C.3       18 UNK        -0.1800 
    102 C         -6.6806  -24.8659  -50.6453 C.2       18 UNK         0.5000 
    103 O         -6.7455  -24.4668  -49.4829 O.2       18 UNK        -0.5000 
    104 N         -7.4010  -24.3633  -51.6508 N.am      19 UNK        -0.5000 
    105 CA        -8.3319  -23.2399  -51.5698 C.3       19 UNK         0.1400 
    106 CB        -9.6777  -23.7231  -50.9957 C.3       19 UNK        -0.1800 
    107 C         -8.5207  -22.5384  -52.9308 C.2       19 UNK         0.5000 
    108 O         -9.3011  -21.5888  -53.0061 O.2       19 UNK        -0.5000 
    109 N         -7.8383  -23.0045  -53.9902 N.am      20 UNK        -0.5000 
    110 CA        -8.0109  -22.5137  -55.3610 C.3       20 UNK         0.1400 
    111 CB        -7.6221  -23.6337  -56.3406 C.3       20 UNK        -0.1800 
    112 C         -7.2401  -21.2136  -55.6713 C.2       20 UNK         0.5000 
    113 O         -7.4304  -20.6566  -56.7538 O.2       20 UNK        -0.5000 
    114 N         -6.3942  -20.7505  -54.7427 N.am      21 UNK        -0.5000 
    115 CA        -5.6429  -19.5007  -54.8400 C.3       21 UNK         0.1400 
    116 CB        -4.1366  -19.8091  -54.8643 C.3       21 UNK        -0.1800 
    117 C         -5.9739  -18.6016  -53.6421 C.2       21 UNK         0.5000 
    118 O         -6.3198  -19.1041  -52.5702 O.2       21 UNK        -0.5000 
    119 N         -5.8123  -17.2896  -53.8492 N.am      22 UNK        -0.5000 
    120 CA        -5.9314  -16.2178  -52.8418 C.3       22 UNK         0.1400 
    121 C         -7.3807  -15.9404  -52.3361 C.2       22 UNK         0.5000 
    122 N         -8.4193  -16.4504  -52.9864 N.am      22 UNK        -0.7600 
    123 O         -7.5738  -15.2226  -51.3584 O.2       22 UNK        -0.5000 
    124 C124       -4.9139  -16.3513  -51.6718 C.3       23 UNK        -0.0398 
    125 S125       -3.1941  -16.6163  -52.2406 S.3       23 UNK        -0.2404 
    126 C126       -2.7430  -18.1380  -51.3468 C.3       23 UNK        -0.0205 
    127 H127        6.3531  -13.6670  -52.0334 H         1 UNK         0.0600 
    128 H128        5.0754  -14.8612  -52.2784 H         1 UNK         0.0600 
    129 H129        6.7557  -15.2852  -52.6182 H         1 UNK         0.0600 
    130 H130        4.3413  -15.6904  -50.3467 H         1 UNK         0.3000 
    131 H131        6.1203  -16.7266  -48.3149 H         1 UNK         0.0600 
    132 H132        3.9792  -17.5362  -47.2655 H         1 UNK         0.0800 
    133 H133        4.2903  -18.1198  -48.8714 H         1 UNK         0.0800 
    134 H134        1.5787  -18.3423  -47.3856 H         1 UNK         0.0800 
    135 H135        1.7005  -18.9481  -49.0239 H         1 UNK         0.0800 
    136 H136       -0.1345  -18.5001  -50.6561 H         1 UNK         0.1150 
    137 H137       -3.8601  -17.0755  -49.0783 H         1 UNK         0.1150 
    138 H138       -0.3337  -17.0212  -46.6483 H         1 UNK         0.1150 
    139 H139       -2.3155  -15.8120  -45.9225 H         1 UNK         0.0800 
    140 H140       -3.6640  -15.6018  -47.0078 H         1 UNK         0.0800 
    141 H141       -2.8838  -18.9201  -43.9695 H         1 UNK         0.0800 
    142 H142       -1.7020  -18.0163  -44.8677 H         1 UNK         0.0800 
    143 H143       -2.2662  -19.5741  -46.8945 H         1 UNK         0.0600 
    144 H144       -0.4324  -19.9758  -44.8262 H         1 UNK         0.3000 
    145 H145        1.1002  -22.9689  -46.0504 H         1 UNK         0.0600 
    146 H146        3.0884  -21.5088  -45.9468 H         1 UNK         0.0600 
    147 H147        2.0742  -20.0708  -45.9194 H         1 UNK         0.0600 
    148 H148        2.1129  -21.0950  -47.3482 H         1 UNK         0.0600 
    149 H149        1.3365  -21.0799  -43.8041 H         1 UNK         0.3000 
    150 H150       -0.4177  -23.1556  -41.5280 H         1 UNK         0.0600 
    151 H151        1.8416  -24.2240  -41.5193 H         1 UNK         0.0600 
    152 H152        1.6846  -23.0582  -40.2152 H         1 UNK         0.0600 
    153 H153        2.6038  -22.6446  -41.6631 H         1 UNK         0.0600 
    154 H154        1.0845  -20.7460  -41.1828 H         1 UNK         0.3000 
    155 H155       -1.4668  -18.4545  -42.1145 H         1 UNK         0.0600 
    156 H156       -2.1124  -19.1686  -39.8056 H         1 UNK         0.0600 
    157 H157       -1.1878  -17.6753  -39.7932 H         1 UNK         0.0600 
    158 H158       -0.4164  -19.1945  -39.3353 H         1 UNK         0.0600 
    159 H159        0.9742  -17.8390  -40.9751 H         1 UNK         0.3000 
    160 H160        3.2234  -17.9831  -42.3182 H         1 UNK         0.0600 
    161 H161        4.0054  -16.8415  -44.4142 H         1 UNK         0.0600 
    162 H162        3.3976  -18.4573  -44.7278 H         1 UNK         0.0600 
    163 H163        2.4097  -17.0559  -45.1268 H         1 UNK         0.0600 
    164 H164        1.7129  -15.5750  -43.2086 H         1 UNK         0.3000 
    165 H165        1.6872  -14.0982  -40.0581 H         1 UNK         0.0600 
    166 H166        3.1038  -12.2467  -40.9459 H         1 UNK         0.0600 
    167 H167        4.0971  -13.6068  -40.4503 H         1 UNK         0.0600 
    168 H168        3.7883  -13.3314  -42.1596 H         1 UNK         0.0600 
    169 H169        1.4143  -13.0973  -42.7693 H         1 UNK         0.3000 
    170 H170       -1.8855  -14.1773  -43.3109 H         1 UNK         0.0600 
    171 H171       -0.9420  -11.3316  -42.6573 H         1 UNK         0.0600 
    172 H172       -2.3761  -11.7611  -43.5894 H         1 UNK         0.0600 
    173 H173       -2.2874  -12.1599  -41.8808 H         1 UNK         0.0600 
    174 H174       -0.1798  -12.3964  -44.7672 H         1 UNK         0.3000 
    175 H175        1.5728  -14.9292  -46.6003 H         1 UNK         0.0600 
    176 H176       -0.4049  -12.7009  -47.3108 H         1 UNK         0.0600 
    177 H177        0.7667  -13.4386  -48.4033 H         1 UNK         0.0600 
    178 H178       -0.5475  -14.3945  -47.7432 H         1 UNK         0.0600 
    179 H179        3.0543  -13.4298  -46.0971 H         1 UNK         0.3000 
    180 H180        3.3516  -10.1053  -46.1699 H         1 UNK         0.0600 
    181 H181        4.1713   -9.7791  -43.8345 H         1 UNK         0.0600 
    182 H182        3.2140  -11.1568  -43.2931 H         1 UNK         0.0600 
    183 H183        2.4195   -9.7114  -43.9020 H         1 UNK         0.0600 
    184 H184        4.8974  -12.1609  -44.7756 H         1 UNK         0.3000 
    185 H185        7.1897  -12.3866  -47.1868 H         1 UNK         0.0600 
    186 H186        7.7129  -13.9560  -45.3369 H         1 UNK         0.0600 
    187 H187        7.0509  -12.4642  -44.7015 H         1 UNK         0.0600 
    188 H188        6.0484  -13.9144  -44.7752 H         1 UNK         0.0600 
    189 H189        6.8113  -14.2573  -48.3261 H         1 UNK         0.3000 
    190 H190       -2.5994  -21.6487  -44.0143 H         1 UNK         0.3000 
    191 H191       -5.2178  -22.5713  -44.4130 H         1 UNK         0.0600 
    192 H192       -3.9091  -22.9134  -42.3345 H         1 UNK         0.0600 
    193 H193       -2.7958  -23.9888  -43.1780 H         1 UNK         0.0600 
    194 H194       -4.4752  -24.4605  -42.9438 H         1 UNK         0.0600 
    195 H195       -2.3958  -23.3335  -46.3035 H         1 UNK         0.3000 
    196 H196       -3.7704  -25.6091  -47.6778 H         1 UNK         0.0600 
    197 H197       -1.5587  -26.1580  -46.6164 H         1 UNK         0.0600 
    198 H198       -0.7960  -24.8664  -47.5434 H         1 UNK         0.0600 
    199 H199       -1.4793  -26.2617  -48.3679 H         1 UNK         0.0600 
    200 H200       -3.5216  -22.3478  -47.9479 H         1 UNK         0.3000 
    201 H201       -3.2898  -20.7558  -49.4683 H         1 UNK         0.0600 
    202 H202       -5.4320  -21.7377  -50.2578 H         1 UNK         0.0600 
    203 H203       -4.5620  -22.8144  -51.3451 H         1 UNK         0.0600 
    204 H204       -4.5249  -21.0772  -51.6087 H         1 UNK         0.0600 
    205 H205       -0.9661  -21.7848  -48.9821 H         1 UNK         0.3000 
    206 H206        1.1427  -22.0552  -49.4951 H         1 UNK         0.0600 
    207 H207        0.5159  -21.3608  -52.4166 H         1 UNK         0.0600 
    208 H208        1.1659  -20.2847  -51.1840 H         1 UNK         0.0600 
    209 H209        2.1172  -21.6393  -51.7562 H         1 UNK         0.0600 
    210 H210       -0.5390  -23.4054  -52.3376 H         1 UNK         0.3000 
    211 H211       -0.3119  -26.1294  -51.3542 H         1 UNK         0.0600 
    212 H212        1.1743  -25.3514  -53.9277 H         1 UNK         0.0600 
    213 H213        0.9484  -26.9946  -53.3379 H         1 UNK         0.0600 
    214 H214        1.9361  -25.8696  -52.4248 H         1 UNK         0.0600 
    215 H215       -2.1768  -23.8103  -52.6693 H         1 UNK         0.3000 
    216 H216       -3.4064  -25.3276  -54.8658 H         1 UNK         0.0600 
    217 H217       -4.6162  -23.2262  -55.2393 H         1 UNK         0.0600 
    218 H218       -2.9174  -22.8594  -55.0114 H         1 UNK         0.0600 
    219 H219       -4.0631  -22.5789  -53.7031 H         1 UNK         0.0600 
    220 H220       -3.7661  -25.3834  -51.5487 H         1 UNK         0.3000 
    221 H221       -5.1520  -26.2410  -50.1006 H         1 UNK         0.0600 
    222 H222       -6.9998  -27.1159  -52.3835 H         1 UNK         0.0600 
    223 H223       -5.7058  -28.0727  -51.6678 H         1 UNK         0.0600 
    224 H224       -7.1054  -27.6234  -50.7063 H         1 UNK         0.0600 
    225 H225       -7.2430  -24.7671  -52.5675 H         1 UNK         0.3000 
    226 H226       -7.9133  -22.4901  -50.8952 H         1 UNK         0.0600 
    227 H227       -9.5558  -24.1470  -49.9989 H         1 UNK         0.0600 
    228 H228      -10.3888  -22.9008  -50.9086 H         1 UNK         0.0600 
    229 H229      -10.1306  -24.4853  -51.6306 H         1 UNK         0.0600 
    230 H230       -7.1802  -23.7680  -53.8849 H         1 UNK         0.3000 
    231 H231       -9.0692  -22.2957  -55.5202 H         1 UNK         0.0600 
    232 H232       -7.7927  -23.3292  -57.3739 H         1 UNK         0.0600 
    233 H233       -8.2161  -24.5312  -56.1671 H         1 UNK         0.0600 
    234 H234       -6.5718  -23.9081  -56.2503 H         1 UNK         0.0600 
    235 H235       -6.3637  -21.2091  -53.8437 H         1 UNK         0.3000 
    236 H236       -5.9034  -18.9634  -55.7542 H         1 UNK         0.0600 
    237 H237       -3.7998  -20.2633  -53.9319 H         1 UNK         0.0600 
    238 H238       -3.8845  -20.4842  -55.6819 H         1 UNK         0.0600 
    239 H239       -3.5547  -18.8976  -55.0057 H         1 UNK         0.0600 
    240 H240       -5.5268  -16.9788  -54.7666 H         1 UNK         0.3000 
    241 H241       -5.6634  -15.3076  -53.3792 H         1 UNK         0.0600 
    242 H242       -8.2803  -17.0383  -53.7924 H         1 UNK         0.3800 
    243 H243       -9.3533  -16.2578  -52.6600 H         1 UNK         0.3800 
    244 H244       -5.2209  -17.1597  -51.0078 H         1 UNK         0.0800 
    245 H245       -4.9182  -15.4468  -51.0615 H         1 UNK         0.0800 
    246 H246       -2.0722  -18.7199  -51.9811 H         1 UNK         0.0800 
    247 H247       -3.6198  -18.7665  -51.1883 H         1 UNK         0.0800 
@<TRIPOS>BOND
     1    1    2 1    
     2    1  127 1    
     3    1  128 1    
     4    1  129 1    
     5    2    3 2    
     6    2    4 am   BACKBONE|DICT|INTERRES
     7    4    5 1    
     8    4  130 1    
     9    5    6 1    
    10    5   65 1    
    11    5  131 1    
    12    6    7 1    
    13    6  132 1    
    14    6  133 1    
    15    7    8 1    
    16    8    9 1    
    17    8  134 1    
    18    8  135 1    
    19    9   10 ar   
    20    9   14 ar   
    21   10   11 ar   
    22   10  136 1    
    23   11   12 ar   
    24   11  126 1    
    25   12   13 ar   
    26   12  137 1    
    27   13   14 ar   
    28   13   15 1    
    29   14  138 1    
    30   15   16 1    
    31   15  139 1    
    32   15  140 1    
    33   16   17 1    
    34   17   18 1    
    35   17  141 1    
    36   17  142 1    
    37   18   19 1    
    38   18   67 1    
    39   18  143 1    
    40   19   20 am   BACKBONE|DICT|INTERRES
    41   19  144 1    
    42   20   21 2    
    43   20   22 1    
    44   22   23 1    
    45   22   24 1    
    46   22  145 1    
    47   23  146 1    
    48   23  147 1    
    49   23  148 1    
    50   24   25 am   BACKBONE|DICT|INTERRES
    51   24  149 1    
    52   25   26 2    
    53   25   27 1    
    54   27   28 1    
    55   27   29 1    
    56   27  150 1    
    57   28  151 1    
    58   28  152 1    
    59   28  153 1    
    60   29   30 am   BACKBONE|DICT|INTERRES
    61   29  154 1    
    62   30   31 2    
    63   30   32 1    
    64   32   33 1    
    65   32   34 1    
    66   32  155 1    
    67   33  156 1    
    68   33  157 1    
    69   33  158 1    
    70   34   35 am   BACKBONE|DICT|INTERRES
    71   34  159 1    
    72   35   36 2    
    73   35   37 1    
    74   37   38 1    
    75   37   39 1    
    76   37  160 1    
    77   38  161 1    
    78   38  162 1    
    79   38  163 1    
    80   39   40 am   BACKBONE|DICT|INTERRES
    81   39  164 1    
    82   40   41 2    
    83   40   42 1    
    84   42   43 1    
    85   42   44 1    
    86   42  165 1    
    87   43  166 1    
    88   43  167 1    
    89   43  168 1    
    90   44   45 am   BACKBONE|DICT|INTERRES
    91   44  169 1    
    92   45   46 2    
    93   45   47 1    
    94   47   48 1    
    95   47   49 1    
    96   47  170 1    
    97   48  171 1    
    98   48  172 1    
    99   48  173 1    
   100   49   50 am   BACKBONE|DICT|INTERRES
   101   49  174 1    
   102   50   51 2    
   103   50   52 1    
   104   52   53 1    
   105   52   54 1    
   106   52  175 1    
   107   53  176 1    
   108   53  177 1    
   109   53  178 1    
   110   54   55 am   BACKBONE|DICT|INTERRES
   111   54  179 1    
   112   55   56 2    
   113   55   57 1    
   114   57   58 1    
   115   57   59 1    
   116   57  180 1    
   117   58  181 1    
   118   58  182 1    
   119   58  183 1    
   120   59   60 am   BACKBONE|DICT|INTERRES
   121   59  184 1    
   122   60   61 2    
   123   60   62 1    
   124   62   63 1    
   125   62   64 1    
   126   62  185 1    
   127   63  186 1    
   128   63  187 1    
   129   63  188 1    
   130   64   65 am   BACKBONE|DICT|INTERRES
   131   64  189 1    
   132   65   66 2    
   133   67   68 2    
   134   67   69 am   BACKBONE|DICT|INTERRES
   135   69   70 1    
   136   69  190 1    
   137   70   71 1    
   138   70   72 1    
   139   70  191 1    
   140   71  192 1    
   141   71  193 1    
   142   71  194 1    
   143   72   73 2    
   144   72   74 am   BACKBONE|DICT|INTERRES
   145   74   75 1    
   146   74  195 1    
   147   75   76 1    
   148   75   77 1    
   149   75  196 1    
   150   76  197 1    
   151   76  198 1    
   152   76  199 1    
   153   77   78 2    
   154   77   79 am   BACKBONE|DICT|INTERRES
   155   79   80 1    
   156   79  200 1    
   157   80   81 1    
   158   80   82 1    
   159   80  201 1    
   160   81  202 1    
   161   81  203 1    
   162   81  204 1    
   163   82   83 2    
   164   82   84 am   BACKBONE|DICT|INTERRES
   165   84   85 1    
   166   84  205 1    
   167   85   86 1    
   168   85   87 1    
   169   85  206 1    
   170   86  207 1    
   171   86  208 1    
   172   86  209 1    
   173   87   88 2    
   174   87   89 am   BACKBONE|DICT|INTERRES
   175   89   90 1    
   176   89  210 1    
   177   90   91 1    
   178   90   92 1    
   179   90  211 1    
   180   91  212 1    
   181   91  213 1    
   182   91  214 1    
   183   92   93 2    
   184   92   94 am   BACKBONE|DICT|INTERRES
   185   94   95 1    
   186   94  215 1    
   187   95   96 1    
   188   95   97 1    
   189   95  216 1    
   190   96  217 1    
   191   96  218 1    
   192   96  219 1    
   193   97   98 2    
   194   97   99 am   BACKBONE|DICT|INTERRES
   195   99  100 1    
   196   99  220 1    
   197  100  101 1    
   198  100  102 1    
   199  100  221 1    
   200  101  222 1    
   201  101  223 1    
   202  101  224 1    
   203  102  103 2    
   204  102  104 am   BACKBONE|DICT|INTERRES
   205  104  105 1    
   206  104  225 1    
   207  105  106 1    
   208  105  107 1    
   209  105  226 1    
   210  106  227 1    
   211  106  228 1    
   212  106  229 1    
   213  107  108 2    
   214  107  109 am   BACKBONE|DICT|INTERRES
   215  109  110 1    
   216  109  230 1    
   217  110  111 1    
   218  110  112 1    
   219  110  231 1    
   220  111  232 1    
   221  111  233 1    
   222  111  234 1    
   223  112  113 2    
   224  112  114 am   BACKBONE|DICT|INTERRES
   225  114  115 1    
   226  114  235 1    
   227  115  116 1    
   228  115  117 1    
   229  115  236 1    
   230  116  237 1    
   231  116  238 1    
   232  116  239 1    
   233  117  118 2    
   234  117  119 am   BACKBONE|DICT|INTERRES
   235  119  120 1    
   236  119  240 1    
   237  120  121 1    
   238  120  124 1    
   239  120  241 1    
   240  121  122 am   BACKBONE|DICT|INTERRES
   241  121  123 2    
   242  122  242 1    
   243  122  243 1    
   244  124  125 1    
   245  124  244 1    
   246  124  245 1    
   247  125  126 1    
   248  126  246 1    
   249  126  247 1    
@<TRIPOS>SUBSTRUCTURE
     1 UNK         1 GROUP             0       ****    0 ROOT    
