@<TRIPOS>MOLECULE
3R540
247   249    1
SMALL
USER_CHARGES


@<TRIPOS>ATOM
      1 CA         -4.0683  -11.4611  -48.9168 C.3       0 UNK        -0.1800 
      2 C          -2.9692  -12.4687  -48.6146 C.2       0 UNK         0.5000 
      3 O          -2.0984  -12.1906  -47.7908 O.2       0 UNK        -0.5000 
      4 N          -3.0154  -13.6403  -49.2658 N.am      1 UNK        -0.5000 
      5 CA         -2.0563  -14.7445  -49.1197 C.3       1 UNK         0.1400 
      6 C6         -2.3727  -15.8952  -50.1176 C.3       23 UNK        -0.0398 
      7 S7         -1.5282  -17.4923  -49.8118 S.3       23 UNK        -0.2404 
      8 C8         -0.6205  -17.7641  -51.3591 C.3       23 UNK        -0.0205 
      9 C9          0.3606  -18.9149  -51.2044 C.ar      23 UNK        -0.0193 
     10 C10         0.0997  -20.1747  -51.7561 C.ar      23 UNK        -0.1150 
     11 C11         1.0145  -21.2230  -51.5966 C.ar      23 UNK        -0.0193 
     12 C12         2.1730  -21.0081  -50.8429 C.ar      23 UNK        -0.1150 
     13 C13         2.4351  -19.7601  -50.2762 C.ar      23 UNK        -0.0193 
     14 C14         1.5353  -18.7128  -50.4778 C.ar      23 UNK        -0.1150 
     15 C15         3.6735  -19.5492  -49.4199 C.3       23 UNK        -0.0205 
     16 S16         3.5767  -20.4547  -47.8414 S.3       23 UNK        -0.2404 
     17 C17         1.9872  -19.8729  -47.1527 C.3       23 UNK        -0.0398 
     18 CA          0.9017  -20.9769  -47.1577 C.3       11 UNK         0.1400 
     19 N           1.3128  -22.1345  -46.3624 N.am      11 UNK        -0.5000 
     20 C           0.7355  -23.3400  -46.3956 C.2       10 UNK         0.5000 
     21 O          -0.2160  -23.6271  -47.1224 O.2       10 UNK        -0.5000 
     22 CA          1.3020  -24.3835  -45.4146 C.3       10 UNK         0.1400 
     23 CB          2.5653  -25.0397  -45.9918 C.3       10 UNK        -0.1800 
     24 N           1.6069  -23.8135  -44.0977 N.am      10 UNK        -0.5000 
     25 C           0.6745  -23.3583  -43.2495 C.2       9 UNK         0.5000 
     26 O          -0.5298  -23.3782  -43.4919 O.2       9 UNK        -0.5000 
     27 CA          1.1556  -22.7523  -41.9196 C.3       9 UNK         0.1400 
     28 CB          1.4026  -23.8584  -40.8831 C.3       9 UNK        -0.1800 
     29 N           2.3460  -21.9043  -42.0117 N.am      9 UNK        -0.5000 
     30 C           2.5063  -20.8483  -42.8191 C.2       8 UNK         0.5000 
     31 O           1.7110  -20.5316  -43.7046 O.2       8 UNK        -0.5000 
     32 CA          3.7463  -19.9757  -42.5481 C.3       8 UNK         0.1400 
     33 CB          4.2274  -19.2433  -43.8125 C.3       8 UNK        -0.1800 
     34 N           3.4620  -18.9981  -41.4948 N.am      8 UNK        -0.5000 
     35 C           3.3563  -19.2907  -40.1890 C.2       7 UNK         0.5000 
     36 O           3.5693  -20.4151  -39.7315 O.2       7 UNK        -0.5000 
     37 CA          2.9620  -18.1589  -39.2173 C.3       7 UNK         0.1400 
     38 CB          4.1917  -17.6730  -38.4344 C.3       7 UNK        -0.1800 
     39 N           2.3345  -17.0064  -39.8634 N.am      7 UNK        -0.5000 
     40 C           1.0903  -16.9712  -40.3586 C.2       6 UNK         0.5000 
     41 O           0.3061  -17.9190  -40.3058 O.2       6 UNK        -0.5000 
     42 CA          0.6515  -15.6587  -41.0454 C.3       6 UNK         0.1400 
     43 CB          1.3724  -14.4046  -40.5046 C.3       6 UNK        -0.1800 
     44 N           0.7803  -15.7249  -42.5027 N.am      6 UNK        -0.5000 
     45 C           1.8772  -16.0486  -43.2049 C.2       5 UNK         0.5000 
     46 O           2.9691  -16.3244  -42.7058 O.2       5 UNK        -0.5000 
     47 CA          1.7231  -16.0714  -44.7320 C.3       5 UNK         0.1400 
     48 CB          0.7827  -17.2090  -45.1521 C.3       5 UNK        -0.1800 
     49 N           1.2249  -14.8081  -45.2677 N.am      5 UNK        -0.5000 
     50 C           1.8618  -13.6304  -45.2120 C.2       4 UNK         0.5000 
     51 O           2.9844  -13.4749  -44.7301 O.2       4 UNK        -0.5000 
     52 CA          1.1107  -12.4162  -45.7895 C.3       4 UNK         0.1400 
     53 CB          1.2862  -12.3395  -47.3140 C.3       4 UNK        -0.1800 
     54 N          -0.3156  -12.4379  -45.4660 N.am      4 UNK        -0.5000 
     55 C          -0.8181  -12.2660  -44.2352 C.2       3 UNK         0.5000 
     56 O          -0.1364  -11.9933  -43.2468 O.2       3 UNK        -0.5000 
     57 CA         -2.3371  -12.4546  -44.0776 C.3       3 UNK         0.1400 
     58 CB         -3.0937  -11.1745  -44.4647 C.3       3 UNK        -0.1800 
     59 N          -2.8403  -13.5776  -44.8685 N.am      3 UNK        -0.5000 
     60 C          -2.5958  -14.8669  -44.5957 C.2       2 UNK         0.5000 
     61 O          -1.9411  -15.2524  -43.6257 O.2       2 UNK        -0.5000 
     62 CA         -3.1444  -15.8983  -45.6003 C.3       2 UNK         0.1400 
     63 CB         -4.5831  -16.3007  -45.2477 C.3       2 UNK        -0.1800 
     64 N          -3.0889  -15.4412  -46.9910 N.am      2 UNK        -0.5000 
     65 C          -1.9442  -15.2152  -47.6524 C.2       1 UNK         0.5000 
     66 O          -0.8321  -15.3217  -47.1394 O.2       1 UNK        -0.5000 
     67 C          -0.4579  -20.4401  -46.6646 C.2       11 UNK         0.5000 
     68 O          -1.3440  -20.1655  -47.4745 O.2       11 UNK        -0.5000 
     69 N          -0.6187  -20.3600  -45.3360 N.am      12 UNK        -0.5000 
     70 CA         -1.8519  -19.9499  -44.6671 C.3       12 UNK         0.1400 
     71 CB         -1.5733  -19.7336  -43.1725 C.3       12 UNK        -0.1800 
     72 C          -3.0168  -20.9351  -44.8785 C.2       12 UNK         0.5000 
     73 O          -4.1631  -20.4961  -44.9574 O.2       12 UNK        -0.5000 
     74 N          -2.7110  -22.2361  -44.9834 N.am      13 UNK        -0.5000 
     75 CA         -3.6719  -23.2894  -45.3099 C.3       13 UNK         0.1400 
     76 CB         -3.0716  -24.6656  -44.9847 C.3       13 UNK        -0.1800 
     77 C          -4.1341  -23.2337  -46.7762 C.2       13 UNK         0.5000 
     78 O          -5.3123  -23.4741  -47.0380 O.2       13 UNK        -0.5000 
     79 N          -3.2128  -22.9143  -47.6990 N.am      14 UNK        -0.5000 
     80 CA         -3.5020  -22.7136  -49.1204 C.3       14 UNK         0.1400 
     81 CB         -2.1895  -22.6040  -49.9141 C.3       14 UNK        -0.1800 
     82 C          -4.3911  -21.4806  -49.3528 C.2       14 UNK         0.5000 
     83 O          -5.4102  -21.5811  -50.0409 O.2       14 UNK        -0.5000 
     84 N          -3.9866  -20.3424  -48.7665 N.am      15 UNK        -0.5000 
     85 CA         -4.7068  -19.0621  -48.6926 C.3       15 UNK         0.1400 
     86 CB         -5.9688  -19.2248  -47.8204 C.3       15 UNK        -0.1800 
     87 C          -5.0631  -18.4179  -50.0518 C.2       15 UNK         0.5000 
     88 O          -5.8301  -17.4544  -50.0741 O.2       15 UNK        -0.5000 
     89 N          -4.5278  -18.9656  -51.1543 N.am      16 UNK        -0.5000 
     90 CA         -4.9164  -18.7190  -52.5475 C.3       16 UNK         0.1400 
     91 CB         -4.5086  -17.2987  -52.9917 C.3       16 UNK        -0.1800 
     92 C          -6.4101  -19.0329  -52.8133 C.2       16 UNK         0.5000 
     93 O          -7.0239  -18.4018  -53.6764 O.2       16 UNK        -0.5000 
     94 N          -6.9716  -19.9844  -52.0518 N.am      17 UNK        -0.5000 
     95 CA         -8.3863  -20.3519  -52.0755 C.3       17 UNK         0.1400 
     96 CB         -9.1096  -19.6769  -50.8985 C.3       17 UNK        -0.1800 
     97 C          -8.5779  -21.8750  -52.0406 C.2       17 UNK         0.5000 
     98 O          -9.3686  -22.3990  -52.8262 O.2       17 UNK        -0.5000 
     99 N          -7.8506  -22.5670  -51.1519 N.am      18 UNK        -0.5000 
    100 CA        -7.8526  -24.0305  -51.0515 C.3       18 UNK         0.1400 
    101 CB        -7.4683  -24.4339  -49.6210 C.3       18 UNK        -0.1800 
    102 C         -6.8954  -24.6801  -52.0691 C.2       18 UNK         0.5000 
    103 O         -7.0494  -25.8588  -52.3907 O.2       18 UNK        -0.5000 
    104 N         -5.9369  -23.8924  -52.5616 N.am      19 UNK        -0.5000 
    105 CA        -4.9901  -24.2115  -53.6185 C.3       19 UNK         0.1400 
    106 CB        -3.7336  -24.8559  -53.0058 C.3       19 UNK        -0.1800 
    107 C         -4.6608  -22.9023  -54.3522 C.2       19 UNK         0.5000 
    108 O         -5.0858  -21.8295  -53.9140 O.2       19 UNK        -0.5000 
    109 N         -3.9034  -23.0041  -55.4498 N.am      20 UNK        -0.5000 
    110 CA        -3.3799  -21.8625  -56.2042 C.3       20 UNK         0.1400 
    111 CB        -2.7168  -22.3904  -57.4868 C.3       20 UNK        -0.1800 
    112 C         -2.3737  -21.0280  -55.3852 C.2       20 UNK         0.5000 
    113 O         -1.8495  -21.5052  -54.3759 O.2       20 UNK        -0.5000 
    114 N         -2.0852  -19.8072  -55.8538 N.am      21 UNK        -0.5000 
    115 CA        -1.0837  -18.9005  -55.2851 C.3       21 UNK         0.1400 
    116 CB        -1.3672  -17.4701  -55.7753 C.3       21 UNK        -0.1800 
    117 C          0.3530  -19.3717  -55.6018 C.2       21 UNK         0.5000 
    118 O          1.0522  -18.7525  -56.4054 O.2       21 UNK        -0.5000 
    119 N          0.7332  -20.5031  -55.0002 N.am      22 UNK        -0.5000 
    120 CA         1.9756  -21.2447  -55.2494 C.3       22 UNK         0.1400 
    121 C          3.2844  -20.5936  -54.7100 C.2       22 UNK         0.5000 
    122 N          3.2205  -19.5656  -53.8734 N.am      22 UNK        -0.7600 
    123 O          4.3768  -21.0156  -55.0801 O.2       22 UNK        -0.5000 
    124 C124        1.8033  -22.7446  -54.8738 C.3       23 UNK        -0.0398 
    125 S125        2.1576  -23.2453  -53.1485 S.3       23 UNK        -0.2404 
    126 C126        0.7417  -22.6007  -52.1917 C.3       23 UNK        -0.0205 
    127 H127       -4.6116  -11.2156  -48.0043 H         1 UNK         0.0600 
    128 H128       -4.7821  -11.8444  -49.6462 H         1 UNK         0.0600 
    129 H129       -3.6348  -10.5432  -49.3136 H         1 UNK         0.0600 
    130 H130       -3.7629  -13.7944  -49.9273 H         1 UNK         0.3000 
    131 H131       -1.0753  -14.3465  -49.3879 H         1 UNK         0.0600 
    132 H132       -2.1559  -15.5608  -51.1328 H         1 UNK         0.0800 
    133 H133       -3.4426  -16.0969  -50.1049 H         1 UNK         0.0800 
    134 H134       -1.3352  -17.9645  -52.1551 H         1 UNK         0.0800 
    135 H135       -0.0793  -16.8582  -51.6363 H         1 UNK         0.0800 
    136 H136       -0.8191  -20.3413  -52.2986 H         1 UNK         0.1150 
    137 H137        2.8703  -21.8188  -50.6852 H         1 UNK         0.1150 
    138 H138        1.7282  -17.7442  -50.0382 H         1 UNK         0.1150 
    139 H139        4.5533  -19.8853  -49.9702 H         1 UNK         0.0800 
    140 H140        3.8268  -18.4889  -49.2129 H         1 UNK         0.0800 
    141 H141        1.6475  -18.9932  -47.6997 H         1 UNK         0.0800 
    142 H142        2.1857  -19.5387  -46.1360 H         1 UNK         0.0800 
    143 H143        0.7609  -21.3083  -48.1890 H         1 UNK         0.0600 
    144 H144        2.0555  -21.9736  -45.6980 H         1 UNK         0.3000 
    145 H145        0.5451  -25.1598  -45.2828 H         1 UNK         0.0600 
    146 H146        2.9294  -25.8346  -45.3407 H         1 UNK         0.0600 
    147 H147        2.3617  -25.4863  -46.9660 H         1 UNK         0.0600 
    148 H148        3.3717  -24.3172  -46.1243 H         1 UNK         0.0600 
    149 H149        2.5782  -23.7571  -43.8287 H         1 UNK         0.3000 
    150 H150        0.3486  -22.1196  -41.5457 H         1 UNK         0.0600 
    151 H151        0.5237  -24.4951  -40.7725 H         1 UNK         0.0600 
    152 H152        1.6221  -23.4372  -39.9017 H         1 UNK         0.0600 
    153 H153        2.2385  -24.4982  -41.1687 H         1 UNK         0.0600 
    154 H154        3.0283  -22.0257  -41.2745 H         1 UNK         0.3000 
    155 H155        4.5583  -20.6265  -42.2170 H         1 UNK         0.0600 
    156 H156        3.4726  -18.5609  -44.2005 H         1 UNK         0.0600 
    157 H157        4.4652  -19.9520  -44.6067 H         1 UNK         0.0600 
    158 H158        5.1281  -18.6629  -43.6125 H         1 UNK         0.0600 
    159 H159        3.2674  -18.0488  -41.8000 H         1 UNK         0.3000 
    160 H160        2.2493  -18.5788  -38.5045 H         1 UNK         0.0600 
    161 H161        4.9379  -17.2284  -39.0941 H         1 UNK         0.0600 
    162 H162        4.6709  -18.4981  -37.9057 H         1 UNK         0.0600 
    163 H163        3.9157  -16.9281  -37.6878 H         1 UNK         0.0600 
    164 H164        2.9208  -16.1961  -40.0033 H         1 UNK         0.3000 
    165 H165       -0.4128  -15.5417  -40.8357 H         1 UNK         0.0600 
    166 H166        0.9272  -13.4981  -40.9155 H         1 UNK         0.0600 
    167 H167        1.2891  -14.3405  -39.4189 H         1 UNK         0.0600 
    168 H168        2.4323  -14.3902  -40.7599 H         1 UNK         0.0600 
    169 H169       -0.0786  -15.5414  -43.0141 H         1 UNK         0.3000 
    170 H170        2.7063  -16.2599  -45.1677 H         1 UNK         0.0600 
    171 H171        1.0907  -18.1518  -44.7039 H         1 UNK         0.0600 
    172 H172       -0.2424  -17.0274  -44.8335 H         1 UNK         0.0600 
    173 H173        0.7740  -17.3354  -46.2338 H         1 UNK         0.0600 
    174 H174        0.3400  -14.8541  -45.7669 H         1 UNK         0.3000 
    175 H175        1.5447  -11.5148  -45.3518 H         1 UNK         0.0600 
    176 H176        0.8512  -13.2055  -47.8140 H         1 UNK         0.0600 
    177 H177        0.8104  -11.4469  -47.7204 H         1 UNK         0.0600 
    178 H178        2.3420  -12.2988  -47.5844 H         1 UNK         0.0600 
    179 H179       -0.9549  -12.6019  -46.2383 H         1 UNK         0.3000 
    180 H180       -2.5394  -12.6620  -43.0245 H         1 UNK         0.0600 
    181 H181       -4.1651  -11.2834  -44.2960 H         1 UNK         0.0600 
    182 H182       -2.9435  -10.9158  -45.5133 H         1 UNK         0.0600 
    183 H183       -2.7554  -10.3273  -43.8669 H         1 UNK         0.0600 
    184 H184       -3.3443  -13.3494  -45.7124 H         1 UNK         0.3000 
    185 H185       -2.5197  -16.7882  -45.5238 H         1 UNK         0.0600 
    186 H186       -4.9337  -17.1090  -45.8890 H         1 UNK         0.0600 
    187 H187       -4.6471  -16.6564  -44.2184 H         1 UNK         0.0600 
    188 H188       -5.2740  -15.4632  -45.3505 H         1 UNK         0.0600 
    189 H189       -3.9678  -15.2988  -47.4664 H         1 UNK         0.3000 
    190 H190        0.1721  -20.5808  -44.7344 H         1 UNK         0.3000 
    191 H191       -2.1549  -18.9950  -45.0969 H         1 UNK         0.0600 
    192 H192       -2.4663  -19.3806  -42.6555 H         1 UNK         0.0600 
    193 H193       -0.7926  -18.9882  -43.0173 H         1 UNK         0.0600 
    194 H194       -1.2547  -20.6562  -42.6875 H         1 UNK         0.0600 
    195 H195       -1.7585  -22.5327  -44.7981 H         1 UNK         0.3000 
    196 H196       -4.5533  -23.1516  -44.6800 H         1 UNK         0.0600 
    197 H197       -2.1502  -24.8454  -45.5392 H         1 UNK         0.0600 
    198 H198       -2.8467  -24.7552  -43.9220 H         1 UNK         0.0600 
    199 H199       -3.7686  -25.4660  -45.2361 H         1 UNK         0.0600 
    200 H200       -2.2545  -22.7738  -47.4030 H         1 UNK         0.3000 
    201 H201       -4.0435  -23.5884  -49.4856 H         1 UNK         0.0600 
    202 H202       -1.6145  -23.5278  -49.8492 H         1 UNK         0.0600 
    203 H203       -1.5563  -21.7950  -49.5503 H         1 UNK         0.0600 
    204 H204       -2.3822  -22.4119  -50.9703 H         1 UNK         0.0600 
    205 H205       -3.0959  -20.3578  -48.2733 H         1 UNK         0.3000 
    206 H206       -4.0363  -18.3661  -48.1867 H         1 UNK         0.0600 
    207 H207       -5.7285  -19.6591  -46.8517 H         1 UNK         0.0600 
    208 H208       -6.4468  -18.2632  -47.6306 H         1 UNK         0.0600 
    209 H209       -6.7087  -19.8682  -48.2974 H         1 UNK         0.0600 
    210 H210       -3.9063  -19.7479  -51.0107 H         1 UNK         0.3000 
    211 H211       -4.3427  -19.4229  -53.1510 H         1 UNK         0.0600 
    212 H212       -4.6713  -17.1630  -54.0614 H         1 UNK         0.0600 
    213 H213       -3.4527  -17.1124  -52.8025 H         1 UNK         0.0600 
    214 H214       -5.0833  -16.5304  -52.4742 H         1 UNK         0.0600 
    215 H215       -6.3823  -20.4732  -51.3863 H         1 UNK         0.3000 
    216 H216       -8.8456  -20.0007  -53.0019 H         1 UNK         0.0600 
    217 H217       -8.6865  -19.9776  -49.9393 H         1 UNK         0.0600 
    218 H218      -10.1689  -19.9364  -50.8886 H         1 UNK         0.0600 
    219 H219       -9.0402  -18.5910  -50.9665 H         1 UNK         0.0600 
    220 H220       -7.1822  -22.0860  -50.5575 H         1 UNK         0.3000 
    221 H221       -8.8585  -24.4060  -51.2504 H         1 UNK         0.0600 
    222 H222       -8.1413  -23.9886  -48.8883 H         1 UNK         0.0600 
    223 H223       -6.4536  -24.1206  -49.3775 H         1 UNK         0.0600 
    224 H224       -7.5162  -25.5159  -49.4933 H         1 UNK         0.0600 
    225 H225       -5.9254  -22.9166  -52.2910 H         1 UNK         0.3000 
    226 H226       -5.4514  -24.8973  -54.3320 H         1 UNK         0.0600 
    227 H227       -3.2297  -24.1761  -52.3192 H         1 UNK         0.0600 
    228 H228       -3.9835  -25.7624  -52.4544 H         1 UNK         0.0600 
    229 H229       -3.0150  -25.1349  -53.7770 H         1 UNK         0.0600 
    230 H230       -3.5716  -23.9147  -55.7310 H         1 UNK         0.3000 
    231 H231       -4.2185  -21.2181  -56.4762 H         1 UNK         0.0600 
    232 H232       -1.8662  -23.0357  -57.2626 H         1 UNK         0.0600 
    233 H233       -2.3518  -21.5729  -58.1097 H         1 UNK         0.0600 
    234 H234       -3.4225  -22.9625  -58.0895 H         1 UNK         0.0600 
    235 H235       -2.5272  -19.4972  -56.7071 H         1 UNK         0.3000 
    236 H236       -1.1960  -18.9026  -54.2018 H         1 UNK         0.0600 
    237 H237       -2.3604  -17.1394  -55.4711 H         1 UNK         0.0600 
    238 H238       -0.6490  -16.7646  -55.3556 H         1 UNK         0.0600 
    239 H239       -1.3067  -17.3952  -56.8617 H         1 UNK         0.0600 
    240 H240        0.0506  -20.9662  -54.4100 H         1 UNK         0.3000 
    241 H241        2.0997  -21.2276  -56.3342 H         1 UNK         0.0600 
    242 H242        4.0715  -19.1471  -53.5350 H         1 UNK         0.3800 
    243 H243        2.3291  -19.2407  -53.5367 H         1 UNK         0.3800 
    244 H244        2.4792  -23.3309  -55.4981 H         1 UNK         0.0800 
    245 H245        0.8046  -23.0935  -55.1414 H         1 UNK         0.0800 
    246 H246        0.5447  -23.2881  -51.3684 H         1 UNK         0.0800 
    247 H247       -0.1564  -22.6039  -52.8077 H         1 UNK         0.0800 
@<TRIPOS>BOND
     1    1    2 1    
     2    1  127 1    
     3    1  128 1    
     4    1  129 1    
     5    2    3 2    
     6    2    4 am   BACKBONE|DICT|INTERRES
     7    4    5 1    
     8    4  130 1    
     9    5    6 1    
    10    5   65 1    
    11    5  131 1    
    12    6    7 1    
    13    6  132 1    
    14    6  133 1    
    15    7    8 1    
    16    8    9 1    
    17    8  134 1    
    18    8  135 1    
    19    9   10 ar   
    20    9   14 ar   
    21   10   11 ar   
    22   10  136 1    
    23   11   12 ar   
    24   11  126 1    
    25   12   13 ar   
    26   12  137 1    
    27   13   14 ar   
    28   13   15 1    
    29   14  138 1    
    30   15   16 1    
    31   15  139 1    
    32   15  140 1    
    33   16   17 1    
    34   17   18 1    
    35   17  141 1    
    36   17  142 1    
    37   18   19 1    
    38   18   67 1    
    39   18  143 1    
    40   19   20 am   BACKBONE|DICT|INTERRES
    41   19  144 1    
    42   20   21 2    
    43   20   22 1    
    44   22   23 1    
    45   22   24 1    
    46   22  145 1    
    47   23  146 1    
    48   23  147 1    
    49   23  148 1    
    50   24   25 am   BACKBONE|DICT|INTERRES
    51   24  149 1    
    52   25   26 2    
    53   25   27 1    
    54   27   28 1    
    55   27   29 1    
    56   27  150 1    
    57   28  151 1    
    58   28  152 1    
    59   28  153 1    
    60   29   30 am   BACKBONE|DICT|INTERRES
    61   29  154 1    
    62   30   31 2    
    63   30   32 1    
    64   32   33 1    
    65   32   34 1    
    66   32  155 1    
    67   33  156 1    
    68   33  157 1    
    69   33  158 1    
    70   34   35 am   BACKBONE|DICT|INTERRES
    71   34  159 1    
    72   35   36 2    
    73   35   37 1    
    74   37   38 1    
    75   37   39 1    
    76   37  160 1    
    77   38  161 1    
    78   38  162 1    
    79   38  163 1    
    80   39   40 am   BACKBONE|DICT|INTERRES
    81   39  164 1    
    82   40   41 2    
    83   40   42 1    
    84   42   43 1    
    85   42   44 1    
    86   42  165 1    
    87   43  166 1    
    88   43  167 1    
    89   43  168 1    
    90   44   45 am   BACKBONE|DICT|INTERRES
    91   44  169 1    
    92   45   46 2    
    93   45   47 1    
    94   47   48 1    
    95   47   49 1    
    96   47  170 1    
    97   48  171 1    
    98   48  172 1    
    99   48  173 1    
   100   49   50 am   BACKBONE|DICT|INTERRES
   101   49  174 1    
   102   50   51 2    
   103   50   52 1    
   104   52   53 1    
   105   52   54 1    
   106   52  175 1    
   107   53  176 1    
   108   53  177 1    
   109   53  178 1    
   110   54   55 am   BACKBONE|DICT|INTERRES
   111   54  179 1    
   112   55   56 2    
   113   55   57 1    
   114   57   58 1    
   115   57   59 1    
   116   57  180 1    
   117   58  181 1    
   118   58  182 1    
   119   58  183 1    
   120   59   60 am   BACKBONE|DICT|INTERRES
   121   59  184 1    
   122   60   61 2    
   123   60   62 1    
   124   62   63 1    
   125   62   64 1    
   126   62  185 1    
   127   63  186 1    
   128   63  187 1    
   129   63  188 1    
   130   64   65 am   BACKBONE|DICT|INTERRES
   131   64  189 1    
   132   65   66 2    
   133   67   68 2    
   134   67   69 am   BACKBONE|DICT|INTERRES
   135   69   70 1    
   136   69  190 1    
   137   70   71 1    
   138   70   72 1    
   139   70  191 1    
   140   71  192 1    
   141   71  193 1    
   142   71  194 1    
   143   72   73 2    
   144   72   74 am   BACKBONE|DICT|INTERRES
   145   74   75 1    
   146   74  195 1    
   147   75   76 1    
   148   75   77 1    
   149   75  196 1    
   150   76  197 1    
   151   76  198 1    
   152   76  199 1    
   153   77   78 2    
   154   77   79 am   BACKBONE|DICT|INTERRES
   155   79   80 1    
   156   79  200 1    
   157   80   81 1    
   158   80   82 1    
   159   80  201 1    
   160   81  202 1    
   161   81  203 1    
   162   81  204 1    
   163   82   83 2    
   164   82   84 am   BACKBONE|DICT|INTERRES
   165   84   85 1    
   166   84  205 1    
   167   85   86 1    
   168   85   87 1    
   169   85  206 1    
   170   86  207 1    
   171   86  208 1    
   172   86  209 1    
   173   87   88 2    
   174   87   89 am   BACKBONE|DICT|INTERRES
   175   89   90 1    
   176   89  210 1    
   177   90   91 1    
   178   90   92 1    
   179   90  211 1    
   180   91  212 1    
   181   91  213 1    
   182   91  214 1    
   183   92   93 2    
   184   92   94 am   BACKBONE|DICT|INTERRES
   185   94   95 1    
   186   94  215 1    
   187   95   96 1    
   188   95   97 1    
   189   95  216 1    
   190   96  217 1    
   191   96  218 1    
   192   96  219 1    
   193   97   98 2    
   194   97   99 am   BACKBONE|DICT|INTERRES
   195   99  100 1    
   196   99  220 1    
   197  100  101 1    
   198  100  102 1    
   199  100  221 1    
   200  101  222 1    
   201  101  223 1    
   202  101  224 1    
   203  102  103 2    
   204  102  104 am   BACKBONE|DICT|INTERRES
   205  104  105 1    
   206  104  225 1    
   207  105  106 1    
   208  105  107 1    
   209  105  226 1    
   210  106  227 1    
   211  106  228 1    
   212  106  229 1    
   213  107  108 2    
   214  107  109 am   BACKBONE|DICT|INTERRES
   215  109  110 1    
   216  109  230 1    
   217  110  111 1    
   218  110  112 1    
   219  110  231 1    
   220  111  232 1    
   221  111  233 1    
   222  111  234 1    
   223  112  113 2    
   224  112  114 am   BACKBONE|DICT|INTERRES
   225  114  115 1    
   226  114  235 1    
   227  115  116 1    
   228  115  117 1    
   229  115  236 1    
   230  116  237 1    
   231  116  238 1    
   232  116  239 1    
   233  117  118 2    
   234  117  119 am   BACKBONE|DICT|INTERRES
   235  119  120 1    
   236  119  240 1    
   237  120  121 1    
   238  120  124 1    
   239  120  241 1    
   240  121  122 am   BACKBONE|DICT|INTERRES
   241  121  123 2    
   242  122  242 1    
   243  122  243 1    
   244  124  125 1    
   245  124  244 1    
   246  124  245 1    
   247  125  126 1    
   248  126  246 1    
   249  126  247 1    
@<TRIPOS>SUBSTRUCTURE
     1 UNK         1 GROUP             0       ****    0 ROOT    
