@<TRIPOS>MOLECULE
3R540
247   249    1
SMALL
USER_CHARGES


@<TRIPOS>ATOM
      1 CA         -4.5955  -16.2143  -45.8272 C.3       0 UNK        -0.1800 
      2 C          -4.4075  -14.9012  -46.5744 C.2       0 UNK         0.5000 
      3 O          -4.9512  -13.8769  -46.1629 O.2       0 UNK        -0.5000 
      4 N          -3.6312  -14.9321  -47.6661 N.am      1 UNK        -0.5000 
      5 CA         -3.2865  -13.7812  -48.5151 C.3       1 UNK         0.1400 
      6 C6         -2.5917  -14.2293  -49.8277 C.3       23 UNK        -0.0398 
      7 S7         -0.9795  -15.0799  -49.6266 S.3       23 UNK        -0.2404 
      8 C8         -1.4868  -16.7829  -49.2348 C.3       23 UNK        -0.0205 
      9 C9         -0.4493  -17.7974  -49.6844 C.ar      23 UNK        -0.0193 
     10 C10        -0.6093  -18.4664  -50.9005 C.ar      23 UNK        -0.1150 
     11 C11         0.3136  -19.4339  -51.3048 C.ar      23 UNK        -0.0193 
     12 C12         1.4150  -19.7177  -50.4921 C.ar      23 UNK        -0.1150 
     13 C13         1.5852  -19.0573  -49.2710 C.ar      23 UNK        -0.0193 
     14 C14         0.6504  -18.0951  -48.8739 C.ar      23 UNK        -0.1150 
     15 C15         2.7582  -19.4093  -48.3634 C.3       23 UNK        -0.0205 
     16 S16         2.6556  -21.1143  -47.7199 S.3       23 UNK        -0.2404 
     17 C17         0.9568  -21.1346  -47.0657 C.3       23 UNK        -0.0398 
     18 CA          0.6485  -22.3699  -46.1910 C.3       11 UNK         0.1400 
     19 N           1.4541  -22.4107  -44.9722 N.am      11 UNK        -0.5000 
     20 C           1.5936  -23.4675  -44.1625 C.2       10 UNK         0.5000 
     21 O           1.0931  -24.5691  -44.3938 O.2       10 UNK        -0.5000 
     22 CA          2.3904  -23.2362  -42.8598 C.3       10 UNK         0.1400 
     23 CB          3.1119  -24.5053  -42.3617 C.3       10 UNK        -0.1800 
     24 N           3.3073  -22.0920  -42.9330 N.am      10 UNK        -0.5000 
     25 C           4.3911  -21.9528  -43.7128 C.2       9 UNK         0.5000 
     26 O           4.8211  -22.8368  -44.4542 O.2       9 UNK        -0.5000 
     27 CA          5.1057  -20.5853  -43.6887 C.3       9 UNK         0.1400 
     28 CB          4.8883  -19.8497  -45.0205 C.3       9 UNK        -0.1800 
     29 N           4.6630  -19.7123  -42.5999 N.am      9 UNK        -0.5000 
     30 C           5.0120  -19.8465  -41.3141 C.2       8 UNK         0.5000 
     31 O           5.7997  -20.6996  -40.9041 O.2       8 UNK        -0.5000 
     32 CA          4.3360  -18.8886  -40.3143 C.3       8 UNK         0.1400 
     33 CB          5.0833  -17.5479  -40.2577 C.3       8 UNK        -0.1800 
     34 N           2.9187  -18.6501  -40.6073 N.am      8 UNK        -0.5000 
     35 C           1.9658  -19.5945  -40.5786 C.2       7 UNK         0.5000 
     36 O           2.1822  -20.7759  -40.3102 O.2       7 UNK        -0.5000 
     37 CA          0.5377  -19.1604  -40.9490 C.3       7 UNK         0.1400 
     38 CB         -0.1322  -18.4244  -39.7795 C.3       7 UNK        -0.1800 
     39 N           0.5105  -18.3236  -42.1469 N.am      7 UNK        -0.5000 
     40 C           0.7848  -18.7659  -43.3815 C.2       6 UNK         0.5000 
     41 O           0.9899  -19.9487  -43.6518 O.2       6 UNK        -0.5000 
     42 CA          0.8692  -17.7173  -44.5035 C.3       6 UNK         0.1400 
     43 CB         -0.5207  -17.4333  -45.0933 C.3       6 UNK        -0.1800 
     44 N           1.4826  -16.4668  -44.0609 N.am      6 UNK        -0.5000 
     45 C           2.7453  -16.3428  -43.6303 C.2       5 UNK         0.5000 
     46 O           3.5461  -17.2745  -43.5801 O.2       5 UNK        -0.5000 
     47 CA          3.1680  -14.9548  -43.1251 C.3       5 UNK         0.1400 
     48 CB          3.5372  -14.0320  -44.2962 C.3       5 UNK        -0.1800 
     49 N           2.1213  -14.3321  -42.3165 N.am      5 UNK        -0.5000 
     50 C           1.7826  -14.7287  -41.0825 C.2       4 UNK         0.5000 
     51 O           2.3330  -15.6547  -40.4858 O.2       4 UNK        -0.5000 
     52 CA          0.6041  -13.9880  -40.4232 C.3       4 UNK         0.1400 
     53 CB          1.0632  -12.6429  -39.8407 C.3       4 UNK        -0.1800 
     54 N          -0.5123  -13.7654  -41.3451 N.am      4 UNK        -0.5000 
     55 C          -1.2591  -14.7495  -41.8631 C.2       3 UNK         0.5000 
     56 O          -1.0876  -15.9408  -41.6107 O.2       3 UNK        -0.5000 
     57 CA         -2.3568  -14.3493  -42.8650 C.3       3 UNK         0.1400 
     58 CB         -3.6333  -13.9184  -42.1283 C.3       3 UNK        -0.1800 
     59 N          -1.9895  -13.3185  -43.8428 N.am      3 UNK        -0.5000 
     60 C          -0.8939  -13.3175  -44.6138 C.2       2 UNK         0.5000 
     61 O           0.0449  -14.1010  -44.4823 O.2       2 UNK        -0.5000 
     62 CA         -0.9284  -12.3862  -45.8266 C.3       2 UNK         0.1400 
     63 CB          0.4716  -12.0105  -46.3449 C.3       2 UNK        -0.1800 
     64 N          -1.6384  -13.1587  -46.8298 N.am      2 UNK        -0.5000 
     65 C          -2.4777  -12.7005  -47.7605 C.2       1 UNK         0.5000 
     66 O          -2.6599  -11.5062  -48.0005 O.2       1 UNK        -0.5000 
     67 C          -0.8504  -22.3773  -45.8532 C.2       11 UNK         0.5000 
     68 O          -1.6184  -23.0534  -46.5349 O.2       11 UNK        -0.5000 
     69 N          -1.2386  -21.6409  -44.8002 N.am      12 UNK        -0.5000 
     70 CA         -2.6272  -21.4049  -44.3827 C.3       12 UNK         0.1400 
     71 CB         -2.6258  -20.4518  -43.1771 C.3       12 UNK        -0.1800 
     72 C          -3.4454  -22.6756  -44.0667 C.2       12 UNK         0.5000 
     73 O          -4.6753  -22.6231  -44.0793 O.2       12 UNK        -0.5000 
     74 N          -2.7547  -23.7919  -43.8057 N.am      13 UNK        -0.5000 
     75 CA         -3.3405  -25.1119  -43.5917 C.3       13 UNK         0.1400 
     76 CB         -2.2967  -25.9945  -42.8885 C.3       13 UNK        -0.1800 
     77 C          -3.8344  -25.7954  -44.8852 C.2       13 UNK         0.5000 
     78 O          -4.6224  -26.7371  -44.7824 O.2       13 UNK        -0.5000 
     79 N          -3.3601  -25.3540  -46.0611 N.am      14 UNK        -0.5000 
     80 CA         -3.6177  -26.0128  -47.3465 C.3       14 UNK         0.1400 
     81 CB         -2.3911  -26.8599  -47.7247 C.3       14 UNK        -0.1800 
     82 C          -3.9734  -25.0455  -48.4895 C.2       14 UNK         0.5000 
     83 O          -4.7050  -25.4466  -49.3959 O.2       14 UNK        -0.5000 
     84 N          -3.4465  -23.8145  -48.4605 N.am      15 UNK        -0.5000 
     85 CA         -3.6339  -22.7974  -49.4950 C.3       15 UNK         0.1400 
     86 CB         -2.7110  -21.6018  -49.2021 C.3       15 UNK        -0.1800 
     87 C          -5.0930  -22.3224  -49.5968 C.2       15 UNK         0.5000 
     88 O          -5.6758  -21.9195  -48.5873 O.2       15 UNK        -0.5000 
     89 N          -5.6331  -22.3342  -50.8197 N.am      16 UNK        -0.5000 
     90 CA         -6.8875  -21.6696  -51.1695 C.3       16 UNK         0.1400 
     91 CB         -7.5771  -22.4428  -52.3043 C.3       16 UNK        -0.1800 
     92 C          -6.6165  -20.2158  -51.5935 C.2       16 UNK         0.5000 
     93 O          -7.4270  -19.3369  -51.3008 O.2       16 UNK        -0.5000 
     94 N          -5.4715  -20.0009  -52.2640 N.am      17 UNK        -0.5000 
     95 CA         -4.9292  -18.7201  -52.7336 C.3       17 UNK         0.1400 
     96 CB         -4.5492  -17.8297  -51.5344 C.3       17 UNK        -0.1800 
     97 C          -5.8302  -17.9950  -53.7580 C.2       17 UNK         0.5000 
     98 O          -5.7715  -16.7699  -53.8737 O.2       17 UNK        -0.5000 
     99 N          -6.6437  -18.7662  -54.4925 N.am      18 UNK        -0.5000 
    100 CA        -7.5912  -18.2734  -55.4957 C.3       18 UNK         0.1400 
    101 CB        -8.6342  -19.3705  -55.7609 C.3       18 UNK        -0.1800 
    102 C         -6.9200  -17.8388  -56.8140 C.2       18 UNK         0.5000 
    103 O         -7.5261  -17.0964  -57.5878 O.2       18 UNK        -0.5000 
    104 N         -5.6925  -18.3114  -57.0487 N.am      19 UNK        -0.5000 
    105 CA        -4.8625  -18.0420  -58.2152 C.3       19 UNK         0.1400 
    106 CB        -5.3260  -18.9200  -59.3946 C.3       19 UNK        -0.1800 
    107 C         -3.4011  -18.3339  -57.8428 C.2       19 UNK         0.5000 
    108 O         -3.1343  -18.8405  -56.7480 O.2       19 UNK        -0.5000 
    109 N         -2.4806  -18.0637  -58.7786 N.am      20 UNK        -0.5000 
    110 CA        -1.0388  -18.3247  -58.6590 C.3       20 UNK         0.1400 
    111 CB        -0.3260  -17.7541  -59.8947 C.3       20 UNK        -0.1800 
    112 C         -0.6742  -19.8133  -58.4652 C.2       20 UNK         0.5000 
    113 O          0.4063  -20.1132  -57.9568 O.2       20 UNK        -0.5000 
    114 N         -1.5954  -20.7140  -58.8362 N.am      21 UNK        -0.5000 
    115 CA        -1.5416  -22.1530  -58.5696 C.3       21 UNK         0.1400 
    116 CB        -2.5927  -22.8487  -59.4495 C.3       21 UNK        -0.1800 
    117 C         -1.7522  -22.5204  -57.0825 C.2       21 UNK         0.5000 
    118 O         -1.5308  -23.6752  -56.7177 O.2       21 UNK        -0.5000 
    119 N         -2.1760  -21.5508  -56.2577 N.am      22 UNK        -0.5000 
    120 CA        -2.4247  -21.6571  -54.8107 C.3       22 UNK         0.1400 
    121 C         -3.7853  -22.3108  -54.4225 C.2       22 UNK         0.5000 
    122 N         -4.6317  -22.6995  -55.3671 N.am      22 UNK        -0.7600 
    123 O         -4.1141  -22.4096  -53.2431 O.2       22 UNK        -0.5000 
    124 C124       -1.2104  -22.2381  -54.0303 C.3       23 UNK        -0.0398 
    125 S125       -1.0533  -21.5758  -52.3410 S.3       23 UNK        -0.2404 
    126 C126        0.0967  -20.1928  -52.6028 C.3       23 UNK        -0.0205 
    127 H127       -4.4832  -16.0587  -44.7545 H         1 UNK         0.0600 
    128 H128       -3.8681  -16.9651  -46.1374 H         1 UNK         0.0600 
    129 H129       -5.5950  -16.6086  -46.0101 H         1 UNK         0.0600 
    130 H130       -3.2342  -15.8121  -47.9553 H         1 UNK         0.3000 
    131 H131       -4.2312  -13.3116  -48.7980 H         1 UNK         0.0600 
    132 H132       -3.2623  -14.8747  -50.3963 H         1 UNK         0.0800 
    133 H133       -2.4275  -13.3610  -50.4681 H         1 UNK         0.0800 
    134 H134       -2.4436  -17.0030  -49.7061 H         1 UNK         0.0800 
    135 H135       -1.6415  -16.8786  -48.1598 H         1 UNK         0.0800 
    136 H136       -1.4642  -18.2509  -51.5257 H         1 UNK         0.1150 
    137 H137        2.1257  -20.4745  -50.7935 H         1 UNK         0.1150 
    138 H138        0.7709  -17.5834  -47.9298 H         1 UNK         0.1150 
    139 H139        3.6899  -19.2953  -48.9189 H         1 UNK         0.0800 
    140 H140        2.8174  -18.7174  -47.5218 H         1 UNK         0.0800 
    141 H141        0.2809  -21.1040  -47.9226 H         1 UNK         0.0800 
    142 H142        0.7860  -20.2134  -46.5066 H         1 UNK         0.0800 
    143 H143        0.8615  -23.2689  -46.7735 H         1 UNK         0.0600 
    144 H144        1.8231  -21.5233  -44.6520 H         1 UNK         0.3000 
    145 H145        1.6485  -22.9685  -42.1063 H         1 UNK         0.0600 
    146 H146        3.6652  -24.3087  -41.4434 H         1 UNK         0.0600 
    147 H147        2.3977  -25.3004  -42.1447 H         1 UNK         0.0600 
    148 H148        3.8130  -24.8922  -43.1014 H         1 UNK         0.0600 
    149 H149        3.0494  -21.3051  -42.3513 H         1 UNK         0.3000 
    150 H150        6.1746  -20.7750  -43.5721 H         1 UNK         0.0600 
    151 H151        5.2309  -20.4500  -45.8642 H         1 UNK         0.0600 
    152 H152        5.4388  -18.9092  -45.0468 H         1 UNK         0.0600 
    153 H153        3.8337  -19.6242  -45.1839 H         1 UNK         0.0600 
    154 H154        4.0686  -18.9296  -42.8640 H         1 UNK         0.3000 
    155 H155        4.3953  -19.3499  -39.3264 H         1 UNK         0.0600 
    156 H156        6.1375  -17.6972  -40.0210 H         1 UNK         0.0600 
    157 H157        4.6670  -16.8968  -39.4888 H         1 UNK         0.0600 
    158 H158        5.0317  -17.0180  -41.2090 H         1 UNK         0.0600 
    159 H159        2.6550  -17.6920  -40.8111 H         1 UNK         0.3000 
    160 H160       -0.0408  -20.0639  -41.1518 H         1 UNK         0.0600 
    161 H161        0.3649  -17.4791  -39.5589 H         1 UNK         0.0600 
    162 H162       -0.1104  -19.0288  -38.8719 H         1 UNK         0.0600 
    163 H163       -1.1775  -18.2083  -40.0004 H         1 UNK         0.0600 
    164 H164        0.2658  -17.3475  -42.0137 H         1 UNK         0.3000 
    165 H165        1.4988  -18.1291  -45.2945 H         1 UNK         0.0600 
    166 H166       -0.4649  -16.6997  -45.8974 H         1 UNK         0.0600 
    167 H167       -0.9633  -18.3403  -45.5072 H         1 UNK         0.0600 
    168 H168       -1.2053  -17.0475  -44.3378 H         1 UNK         0.0600 
    169 H169        0.9044  -15.6291  -44.1019 H         1 UNK         0.3000 
    170 H170        4.0553  -15.0801  -42.5011 H         1 UNK         0.0600 
    171 H171        4.3427  -14.4636  -44.8915 H         1 UNK         0.0600 
    172 H172        2.6916  -13.8643  -44.9636 H         1 UNK         0.0600 
    173 H173        3.8805  -13.0608  -43.9399 H         1 UNK         0.0600 
    174 H174        1.5533  -13.6333  -42.7746 H         1 UNK         0.3000 
    175 H175        0.2437  -14.6085  -39.5997 H         1 UNK         0.0600 
    176 H176        1.8867  -12.7828  -39.1391 H         1 UNK         0.0600 
    177 H177        1.4072  -11.9611  -40.6194 H         1 UNK         0.0600 
    178 H178        0.2551  -12.1524  -39.2978 H         1 UNK         0.0600 
    179 H179       -0.7074  -12.8130  -41.6167 H         1 UNK         0.3000 
    180 H180       -2.5946  -15.2464  -43.4384 H         1 UNK         0.0600 
    181 H181       -3.4877  -12.9843  -41.5844 H         1 UNK         0.0600 
    182 H182       -3.9438  -14.6750  -41.4062 H         1 UNK         0.0600 
    183 H183       -4.4610  -13.7775  -42.8239 H         1 UNK         0.0600 
    184 H184       -2.7155  -12.6506  -44.0592 H         1 UNK         0.3000 
    185 H185       -1.4808  -11.4799  -45.5696 H         1 UNK         0.0600 
    186 H186        1.0508  -11.5044  -45.5718 H         1 UNK         0.0600 
    187 H187        1.0365  -12.8885  -46.6608 H         1 UNK         0.0600 
    188 H188        0.4040  -11.3360  -47.1984 H         1 UNK         0.0600 
    189 H189       -1.5700  -14.1598  -46.7134 H         1 UNK         0.3000 
    190 H190       -0.5221  -21.1395  -44.2856 H         1 UNK         0.3000 
    191 H191       -3.1321  -20.9044  -45.2114 H         1 UNK         0.0600 
    192 H192       -2.0783  -20.8742  -42.3340 H         1 UNK         0.0600 
    193 H193       -3.6416  -20.2446  -42.8380 H         1 UNK         0.0600 
    194 H194       -2.1717  -19.4938  -43.4285 H         1 UNK         0.0600 
    195 H195       -1.7467  -23.7444  -43.8323 H         1 UNK         0.3000 
    196 H196       -4.2008  -25.0064  -42.9274 H         1 UNK         0.0600 
    197 H197       -2.6985  -26.9867  -42.6790 H         1 UNK         0.0600 
    198 H198       -1.9910  -25.5618  -41.9357 H         1 UNK         0.0600 
    199 H199       -1.4028  -26.1243  -43.5005 H         1 UNK         0.0600 
    200 H200       -2.7300  -24.5581  -46.0728 H         1 UNK         0.3000 
    201 H201       -4.4723  -26.6864  -47.2553 H         1 UNK         0.0600 
    202 H202       -2.1983  -27.6294  -46.9770 H         1 UNK         0.0600 
    203 H203       -1.4937  -26.2462  -47.8133 H         1 UNK         0.0600 
    204 H204       -2.5411  -27.3655  -48.6796 H         1 UNK         0.0600 
    205 H205       -2.8316  -23.5509  -47.6943 H         1 UNK         0.3000 
    206 H206       -3.3334  -23.2314  -50.4514 H         1 UNK         0.0600 
    207 H207       -1.6630  -21.9000  -49.2246 H         1 UNK         0.0600 
    208 H208       -2.8391  -20.8149  -49.9467 H         1 UNK         0.0600 
    209 H209       -2.9156  -21.1630  -48.2247 H         1 UNK         0.0600 
    210 H210       -5.0685  -22.6549  -51.6023 H         1 UNK         0.3000 
    211 H211       -7.5589  -21.6569  -50.3082 H         1 UNK         0.0600 
    212 H212       -8.5227  -21.9728  -52.5776 H         1 UNK         0.0600 
    213 H213       -7.7976  -23.4671  -52.0033 H         1 UNK         0.0600 
    214 H214       -6.9594  -22.4840  -53.2017 H         1 UNK         0.0600 
    215 H215       -4.9041  -20.8157  -52.4781 H         1 UNK         0.3000 
    216 H216       -4.0076  -18.9617  -53.2647 H         1 UNK         0.0600 
    217 H217       -3.9612  -16.9693  -51.8554 H         1 UNK         0.0600 
    218 H218       -3.9513  -18.3870  -50.8139 H         1 UNK         0.0600 
    219 H219       -5.4304  -17.4512  -51.0155 H         1 UNK         0.0600 
    220 H220       -6.6323  -19.7621  -54.3304 H         1 UNK         0.3000 
    221 H221       -8.1075  -17.4024  -55.0867 H         1 UNK         0.0600 
    222 H222       -8.1747  -20.2731  -56.1659 H         1 UNK         0.0600 
    223 H223       -9.1617  -19.6428  -54.8464 H         1 UNK         0.0600 
    224 H224       -9.3832  -19.0331  -56.4785 H         1 UNK         0.0600 
    225 H225       -5.2311  -18.8623  -56.3363 H         1 UNK         0.3000 
    226 H226       -4.9424  -16.9860  -58.4812 H         1 UNK         0.0600 
    227 H227       -6.3671  -18.7229  -59.6504 H         1 UNK         0.0600 
    228 H228       -4.7375  -18.7275  -60.2921 H         1 UNK         0.0600 
    229 H229       -5.2370  -19.9822  -59.1625 H         1 UNK         0.0600 
    230 H230       -2.7832  -17.6541  -59.6509 H         1 UNK         0.3000 
    231 H231       -0.6789  -17.7891  -57.7781 H         1 UNK         0.0600 
    232 H232       -0.4995  -16.6822  -59.9913 H         1 UNK         0.0600 
    233 H233       -0.6664  -18.2349  -60.8127 H         1 UNK         0.0600 
    234 H234        0.7528  -17.9015  -59.8275 H         1 UNK         0.0600 
    235 H235       -2.4421  -20.3697  -59.2633 H         1 UNK         0.3000 
    236 H236       -0.5541  -22.5188  -58.8582 H         1 UNK         0.0600 
    237 H237       -2.5663  -23.9305  -59.3120 H         1 UNK         0.0600 
    238 H238       -3.6028  -22.5120  -59.2129 H         1 UNK         0.0600 
    239 H239       -2.4129  -22.6543  -60.5071 H         1 UNK         0.0600 
    240 H240       -2.3665  -20.6325  -56.6462 H         1 UNK         0.3000 
    241 H241       -2.5342  -20.6164  -54.5049 H         1 UNK         0.0600 
    242 H242       -5.5082  -23.1207  -55.1062 H         1 UNK         0.3800 
    243 H243       -4.3839  -22.6201  -56.3393 H         1 UNK         0.3800 
    244 H244       -1.2707  -23.3263  -53.9765 H         1 UNK         0.0800 
    245 H245       -0.2803  -22.0230  -54.5581 H         1 UNK         0.0800 
    246 H246        1.0456  -20.5718  -52.9856 H         1 UNK         0.0800 
    247 H247       -0.3032  -19.5214  -53.3643 H         1 UNK         0.0800 
@<TRIPOS>BOND
     1    1    2 1    
     2    1  127 1    
     3    1  128 1    
     4    1  129 1    
     5    2    3 2    
     6    2    4 am   BACKBONE|DICT|INTERRES
     7    4    5 1    
     8    4  130 1    
     9    5    6 1    
    10    5   65 1    
    11    5  131 1    
    12    6    7 1    
    13    6  132 1    
    14    6  133 1    
    15    7    8 1    
    16    8    9 1    
    17    8  134 1    
    18    8  135 1    
    19    9   10 ar   
    20    9   14 ar   
    21   10   11 ar   
    22   10  136 1    
    23   11   12 ar   
    24   11  126 1    
    25   12   13 ar   
    26   12  137 1    
    27   13   14 ar   
    28   13   15 1    
    29   14  138 1    
    30   15   16 1    
    31   15  139 1    
    32   15  140 1    
    33   16   17 1    
    34   17   18 1    
    35   17  141 1    
    36   17  142 1    
    37   18   19 1    
    38   18   67 1    
    39   18  143 1    
    40   19   20 am   BACKBONE|DICT|INTERRES
    41   19  144 1    
    42   20   21 2    
    43   20   22 1    
    44   22   23 1    
    45   22   24 1    
    46   22  145 1    
    47   23  146 1    
    48   23  147 1    
    49   23  148 1    
    50   24   25 am   BACKBONE|DICT|INTERRES
    51   24  149 1    
    52   25   26 2    
    53   25   27 1    
    54   27   28 1    
    55   27   29 1    
    56   27  150 1    
    57   28  151 1    
    58   28  152 1    
    59   28  153 1    
    60   29   30 am   BACKBONE|DICT|INTERRES
    61   29  154 1    
    62   30   31 2    
    63   30   32 1    
    64   32   33 1    
    65   32   34 1    
    66   32  155 1    
    67   33  156 1    
    68   33  157 1    
    69   33  158 1    
    70   34   35 am   BACKBONE|DICT|INTERRES
    71   34  159 1    
    72   35   36 2    
    73   35   37 1    
    74   37   38 1    
    75   37   39 1    
    76   37  160 1    
    77   38  161 1    
    78   38  162 1    
    79   38  163 1    
    80   39   40 am   BACKBONE|DICT|INTERRES
    81   39  164 1    
    82   40   41 2    
    83   40   42 1    
    84   42   43 1    
    85   42   44 1    
    86   42  165 1    
    87   43  166 1    
    88   43  167 1    
    89   43  168 1    
    90   44   45 am   BACKBONE|DICT|INTERRES
    91   44  169 1    
    92   45   46 2    
    93   45   47 1    
    94   47   48 1    
    95   47   49 1    
    96   47  170 1    
    97   48  171 1    
    98   48  172 1    
    99   48  173 1    
   100   49   50 am   BACKBONE|DICT|INTERRES
   101   49  174 1    
   102   50   51 2    
   103   50   52 1    
   104   52   53 1    
   105   52   54 1    
   106   52  175 1    
   107   53  176 1    
   108   53  177 1    
   109   53  178 1    
   110   54   55 am   BACKBONE|DICT|INTERRES
   111   54  179 1    
   112   55   56 2    
   113   55   57 1    
   114   57   58 1    
   115   57   59 1    
   116   57  180 1    
   117   58  181 1    
   118   58  182 1    
   119   58  183 1    
   120   59   60 am   BACKBONE|DICT|INTERRES
   121   59  184 1    
   122   60   61 2    
   123   60   62 1    
   124   62   63 1    
   125   62   64 1    
   126   62  185 1    
   127   63  186 1    
   128   63  187 1    
   129   63  188 1    
   130   64   65 am   BACKBONE|DICT|INTERRES
   131   64  189 1    
   132   65   66 2    
   133   67   68 2    
   134   67   69 am   BACKBONE|DICT|INTERRES
   135   69   70 1    
   136   69  190 1    
   137   70   71 1    
   138   70   72 1    
   139   70  191 1    
   140   71  192 1    
   141   71  193 1    
   142   71  194 1    
   143   72   73 2    
   144   72   74 am   BACKBONE|DICT|INTERRES
   145   74   75 1    
   146   74  195 1    
   147   75   76 1    
   148   75   77 1    
   149   75  196 1    
   150   76  197 1    
   151   76  198 1    
   152   76  199 1    
   153   77   78 2    
   154   77   79 am   BACKBONE|DICT|INTERRES
   155   79   80 1    
   156   79  200 1    
   157   80   81 1    
   158   80   82 1    
   159   80  201 1    
   160   81  202 1    
   161   81  203 1    
   162   81  204 1    
   163   82   83 2    
   164   82   84 am   BACKBONE|DICT|INTERRES
   165   84   85 1    
   166   84  205 1    
   167   85   86 1    
   168   85   87 1    
   169   85  206 1    
   170   86  207 1    
   171   86  208 1    
   172   86  209 1    
   173   87   88 2    
   174   87   89 am   BACKBONE|DICT|INTERRES
   175   89   90 1    
   176   89  210 1    
   177   90   91 1    
   178   90   92 1    
   179   90  211 1    
   180   91  212 1    
   181   91  213 1    
   182   91  214 1    
   183   92   93 2    
   184   92   94 am   BACKBONE|DICT|INTERRES
   185   94   95 1    
   186   94  215 1    
   187   95   96 1    
   188   95   97 1    
   189   95  216 1    
   190   96  217 1    
   191   96  218 1    
   192   96  219 1    
   193   97   98 2    
   194   97   99 am   BACKBONE|DICT|INTERRES
   195   99  100 1    
   196   99  220 1    
   197  100  101 1    
   198  100  102 1    
   199  100  221 1    
   200  101  222 1    
   201  101  223 1    
   202  101  224 1    
   203  102  103 2    
   204  102  104 am   BACKBONE|DICT|INTERRES
   205  104  105 1    
   206  104  225 1    
   207  105  106 1    
   208  105  107 1    
   209  105  226 1    
   210  106  227 1    
   211  106  228 1    
   212  106  229 1    
   213  107  108 2    
   214  107  109 am   BACKBONE|DICT|INTERRES
   215  109  110 1    
   216  109  230 1    
   217  110  111 1    
   218  110  112 1    
   219  110  231 1    
   220  111  232 1    
   221  111  233 1    
   222  111  234 1    
   223  112  113 2    
   224  112  114 am   BACKBONE|DICT|INTERRES
   225  114  115 1    
   226  114  235 1    
   227  115  116 1    
   228  115  117 1    
   229  115  236 1    
   230  116  237 1    
   231  116  238 1    
   232  116  239 1    
   233  117  118 2    
   234  117  119 am   BACKBONE|DICT|INTERRES
   235  119  120 1    
   236  119  240 1    
   237  120  121 1    
   238  120  124 1    
   239  120  241 1    
   240  121  122 am   BACKBONE|DICT|INTERRES
   241  121  123 2    
   242  122  242 1    
   243  122  243 1    
   244  124  125 1    
   245  124  244 1    
   246  124  245 1    
   247  125  126 1    
   248  126  246 1    
   249  126  247 1    
@<TRIPOS>SUBSTRUCTURE
     1 UNK         1 GROUP             0       ****    0 ROOT    
