@<TRIPOS>MOLECULE
3R540
247   249    1
SMALL
USER_CHARGES


@<TRIPOS>ATOM
      1 CA          4.8230  -11.1984  -50.1670 C.3       0 UNK        -0.1800 
      2 C           4.2097  -12.0729  -49.0830 C.2       0 UNK         0.5000 
      3 O           4.1724  -11.6733  -47.9186 O.2       0 UNK        -0.5000 
      4 N           3.7115  -13.2581  -49.4579 N.am      1 UNK        -0.5000 
      5 CA          3.0829  -14.2522  -48.5774 C.3       1 UNK         0.1400 
      6 C6          3.2013  -15.6756  -49.1876 C.3       23 UNK        -0.0398 
      7 S7          3.1235  -16.9969  -47.9302 S.3       23 UNK        -0.2404 
      8 C8          2.6744  -18.4467  -48.9456 C.3       23 UNK        -0.0205 
      9 C9          1.3174  -18.3237  -49.6293 C.ar      23 UNK        -0.0193 
     10 C10         1.1869  -18.6445  -50.9842 C.ar      23 UNK        -0.1150 
     11 C11        -0.0505  -18.5348  -51.6252 C.ar      23 UNK        -0.0193 
     12 C12        -1.1638  -18.1001  -50.9015 C.ar      23 UNK        -0.1150 
     13 C13        -1.0504  -17.7879  -49.5446 C.ar      23 UNK        -0.0193 
     14 C14         0.1912  -17.9050  -48.9144 C.ar      23 UNK        -0.1150 
     15 C15        -2.2659  -17.3073  -48.7677 C.3       23 UNK        -0.0205 
     16 S16        -3.2098  -18.6940  -48.0594 S.3       23 UNK        -0.2404 
     17 C17        -2.1222  -19.2233  -46.6986 C.3       23 UNK        -0.0398 
     18 CA         -1.3096  -20.5122  -47.0010 C.3       11 UNK         0.1400 
     19 N          -0.0695  -20.5519  -46.2153 N.am      11 UNK        -0.5000 
     20 C           0.8622  -21.5158  -46.2443 C.2       10 UNK         0.5000 
     21 O           0.8229  -22.4849  -46.9995 O.2       10 UNK        -0.5000 
     22 CA          1.9999  -21.4201  -45.2087 C.3       10 UNK         0.1400 
     23 CB          3.1219  -20.4922  -45.6936 C.3       10 UNK        -0.1800 
     24 N           1.5323  -20.9901  -43.8894 N.am      10 UNK        -0.5000 
     25 C           0.6841  -21.6932  -43.1245 C.2       9 UNK         0.5000 
     26 O           0.2423  -22.7982  -43.4358 O.2       9 UNK        -0.5000 
     27 CA          0.2037  -21.0341  -41.8197 C.3       9 UNK         0.1400 
     28 CB          1.2605  -21.1686  -40.7135 C.3       9 UNK        -0.1800 
     29 N          -0.1456  -19.6263  -42.0031 N.am      9 UNK        -0.5000 
     30 C          -1.1317  -19.1843  -42.7963 C.2       8 UNK         0.5000 
     31 O          -1.9035  -19.9265  -43.4055 O.2       8 UNK        -0.5000 
     32 CA         -1.2286  -17.6583  -42.9901 C.3       8 UNK         0.1400 
     33 CB         -1.9639  -16.9960  -41.8161 C.3       8 UNK        -0.1800 
     34 N           0.0852  -17.0342  -43.1678 N.am      8 UNK        -0.5000 
     35 C           0.9067  -17.2930  -44.1959 C.2       7 UNK         0.5000 
     36 O           0.6194  -18.0427  -45.1248 O.2       7 UNK        -0.5000 
     37 CA          2.2999  -16.6512  -44.1580 C.3       7 UNK         0.1400 
     38 CB          2.2481  -15.2235  -44.7115 C.3       7 UNK        -0.1800 
     39 N           2.8578  -16.6534  -42.8070 N.am      7 UNK        -0.5000 
     40 C           3.3049  -17.7571  -42.1901 C.2       6 UNK         0.5000 
     41 O           3.3306  -18.8692  -42.7169 O.2       6 UNK        -0.5000 
     42 CA          3.7563  -17.6019  -40.7256 C.3       6 UNK         0.1400 
     43 CB          5.2189  -17.1387  -40.6564 C.3       6 UNK        -0.1800 
     44 N           2.9167  -16.6706  -39.9705 N.am      6 UNK        -0.5000 
     45 C           1.6188  -16.8682  -39.7001 C.2       5 UNK         0.5000 
     46 O           1.0057  -17.8872  -40.0144 O.2       5 UNK        -0.5000 
     47 CA          0.8657  -15.7166  -39.0074 C.3       5 UNK         0.1400 
     48 CB          0.8977  -15.8955  -37.4826 C.3       5 UNK        -0.1800 
     49 N           1.3713  -14.3825  -39.3479 N.am      5 UNK        -0.5000 
     50 C           1.4111  -13.8576  -40.5809 C.2       4 UNK         0.5000 
     51 O           1.0475  -14.4724  -41.5856 O.2       4 UNK        -0.5000 
     52 CA          1.9542  -12.4202  -40.7265 C.3       4 UNK         0.1400 
     53 CB          2.6302  -11.8781  -39.4510 C.3       4 UNK        -0.1800 
     54 N           2.9245  -12.3563  -41.8227 N.am      4 UNK        -0.5000 
     55 C           2.7121  -12.0411  -43.1081 C.2       3 UNK         0.5000 
     56 O           3.6289  -12.0797  -43.9308 O.2       3 UNK        -0.5000 
     57 CA          1.3160  -11.5923  -43.5814 C.3       3 UNK         0.1400 
     58 CB          1.0842  -10.0994  -43.2695 C.3       3 UNK        -0.1800 
     59 N           1.2215  -11.8081  -45.0230 N.am      3 UNK        -0.5000 
     60 C           0.0875  -11.8572  -45.7323 C.2       2 UNK         0.5000 
     61 O          -1.0315  -11.7552  -45.2281 O.2       2 UNK        -0.5000 
     62 CA          0.2045  -12.0396  -47.2561 C.3       2 UNK         0.1400 
     63 CB          0.0617  -10.6823  -47.9634 C.3       2 UNK        -0.1800 
     64 N           1.4802  -12.6373  -47.6531 N.am      2 UNK        -0.5000 
     65 C           1.6326  -13.8455  -48.2076 C.2       1 UNK         0.5000 
     66 O           0.6899  -14.6007  -48.4449 O.2       1 UNK        -0.5000 
     67 C          -2.1694  -21.7745  -46.7759 C.2       11 UNK         0.5000 
     68 O          -2.5989  -22.4134  -47.7403 O.2       11 UNK        -0.5000 
     69 N          -2.3649  -22.1224  -45.4953 N.am      12 UNK        -0.5000 
     70 CA         -3.0933  -23.3078  -45.0513 C.3       12 UNK         0.1400 
     71 CB         -3.3564  -23.2091  -43.5412 C.3       12 UNK        -0.1800 
     72 C          -2.3675  -24.6191  -45.4006 C.2       12 UNK         0.5000 
     73 O          -3.0131  -25.5515  -45.8783 O.2       12 UNK        -0.5000 
     74 N          -1.0448  -24.6634  -45.1843 N.am      13 UNK        -0.5000 
     75 CA         -0.1868  -25.8152  -45.4772 C.3       13 UNK         0.1400 
     76 CB          1.2129  -25.5808  -44.8900 C.3       13 UNK        -0.1800 
     77 C          -0.0966  -26.1361  -46.9801 C.2       13 UNK         0.5000 
     78 O          -0.1225  -27.3096  -47.3531 O.2       13 UNK        -0.5000 
     79 N          -0.0255  -25.0910  -47.8156 N.am      14 UNK        -0.5000 
     80 CA         -0.0721  -25.1873  -49.2757 C.3       14 UNK         0.1400 
     81 CB          0.4000  -23.8542  -49.8796 C.3       14 UNK        -0.1800 
     82 C          -1.4731  -25.5382  -49.8129 C.2       14 UNK         0.5000 
     83 O          -1.5800  -25.9912  -50.9530 O.2       14 UNK        -0.5000 
     84 N          -2.5105  -25.2975  -48.9950 N.am      15 UNK        -0.5000 
     85 CA         -3.9396  -25.3913  -49.3056 C.3       15 UNK         0.1400 
     86 CB         -4.3603  -26.8559  -49.5442 C.3       15 UNK        -0.1800 
     87 C          -4.3266  -24.4486  -50.4619 C.2       15 UNK         0.5000 
     88 O          -5.0704  -24.8379  -51.3632 O.2       15 UNK        -0.5000 
     89 N          -3.7861  -23.2215  -50.4166 N.am      16 UNK        -0.5000 
     90 CA         -3.8284  -22.2209  -51.4866 C.3       16 UNK         0.1400 
     91 CB         -3.1144  -20.9583  -50.9992 C.3       16 UNK        -0.1800 
     92 C          -5.2422  -21.8554  -51.9666 C.2       16 UNK         0.5000 
     93 O          -5.4316  -21.6018  -53.1577 O.2       16 UNK        -0.5000 
     94 N          -6.1999  -21.8707  -51.0291 N.am      17 UNK        -0.5000 
     95 CA         -7.6199  -21.5934  -51.2368 C.3       17 UNK         0.1400 
     96 CB         -8.3243  -21.5639  -49.8725 C.3       17 UNK        -0.1800 
     97 C          -8.3245  -22.5827  -52.1839 C.2       17 UNK         0.5000 
     98 O          -9.3214  -22.2067  -52.8017 O.2       17 UNK        -0.5000 
     99 N          -7.7866  -23.8049  -52.3268 N.am      18 UNK        -0.5000 
    100 CA        -8.2802  -24.8206  -53.2638 C.3       18 UNK         0.1400 
    101 CB        -7.6065  -26.1672  -52.9605 C.3       18 UNK        -0.1800 
    102 C         -8.0727  -24.4327  -54.7425 C.2       18 UNK         0.5000 
    103 O         -8.7682  -24.9622  -55.6099 O.2       18 UNK        -0.5000 
    104 N         -7.1454  -23.5009  -54.9950 N.am      19 UNK        -0.5000 
    105 CA        -6.8833  -22.8817  -56.2901 C.3       19 UNK         0.1400 
    106 CB        -5.5051  -23.3475  -56.7889 C.3       19 UNK        -0.1800 
    107 C         -6.9918  -21.3492  -56.1626 C.2       19 UNK         0.5000 
    108 O         -6.2338  -20.6228  -56.8093 O.2       19 UNK        -0.5000 
    109 N         -7.9106  -20.8861  -55.2993 N.am      20 UNK        -0.5000 
    110 CA        -8.2135  -19.5020  -54.9097 C.3       20 UNK         0.1400 
    111 CB        -8.6923  -18.6676  -56.1132 C.3       20 UNK        -0.1800 
    112 C         -7.0726  -18.7952  -54.1512 C.2       20 UNK         0.5000 
    113 O         -7.2918  -18.3051  -53.0431 O.2       20 UNK        -0.5000 
    114 N         -5.8829  -18.7701  -54.7539 N.am      21 UNK        -0.5000 
    115 CA        -4.6415  -18.2327  -54.2148 C.3       21 UNK         0.1400 
    116 CB        -4.6609  -16.6905  -54.2372 C.3       21 UNK        -0.1800 
    117 C         -3.4735  -18.8367  -55.0101 C.2       21 UNK         0.5000 
    118 O         -2.7254  -18.1055  -55.6610 O.2       21 UNK        -0.5000 
    119 N         -3.3592  -20.1706  -54.9610 N.am      22 UNK        -0.5000 
    120 CA        -2.3113  -20.9722  -55.6280 C.3       22 UNK         0.1400 
    121 C         -2.4203  -21.0313  -57.1857 C.2       22 UNK         0.5000 
    122 N         -3.5554  -20.7173  -57.7958 N.am      22 UNK        -0.7600 
    123 O         -1.4620  -21.3908  -57.8652 O.2       22 UNK        -0.5000 
    124 C124       -0.8591  -20.6184  -55.1797 C.3       23 UNK        -0.0398 
    125 S125       -0.6001  -20.6122  -53.3735 S.3       23 UNK        -0.2404 
    126 C126       -0.1822  -18.8614  -53.1035 C.3       23 UNK        -0.0205 
    127 H127        5.8665  -10.9880  -49.9328 H         1 UNK         0.0600 
    128 H128        4.2888  -10.2505  -50.2305 H         1 UNK         0.0600 
    129 H129        4.7838  -11.6776  -51.1455 H         1 UNK         0.0600 
    130 H130        3.7390  -13.5061  -50.4368 H         1 UNK         0.3000 
    131 H131        3.6484  -14.2530  -47.6426 H         1 UNK         0.0600 
    132 H132        4.1644  -15.7877  -49.6874 H         1 UNK         0.0800 
    133 H133        2.4475  -15.8351  -49.9603 H         1 UNK         0.0800 
    134 H134        3.4640  -18.6131  -49.6798 H         1 UNK         0.0800 
    135 H135        2.6535  -19.3310  -48.3104 H         1 UNK         0.0800 
    136 H136        2.0489  -18.9780  -51.5448 H         1 UNK         0.1150 
    137 H137       -2.1211  -18.0061  -51.3939 H         1 UNK         0.1150 
    138 H138        0.2879  -17.6556  -47.8672 H         1 UNK         0.1150 
    139 H139       -2.9219  -16.7407  -49.4301 H         1 UNK         0.0800 
    140 H140       -1.9653  -16.6149  -47.9794 H         1 UNK         0.0800 
    141 H141       -2.7331  -19.3345  -45.8022 H         1 UNK         0.0800 
    142 H142       -1.4537  -18.3943  -46.4779 H         1 UNK         0.0800 
    143 H143       -1.0073  -20.5010  -48.0503 H         1 UNK         0.0600 
    144 H144        0.0972  -19.7532  -45.6078 H         1 UNK         0.3000 
    145 H145        2.4251  -22.4187  -45.0941 H         1 UNK         0.0600 
    146 H146        3.5292  -20.8399  -46.6434 H         1 UNK         0.0600 
    147 H147        3.9455  -20.4631  -44.9803 H         1 UNK         0.0600 
    148 H148        2.7693  -19.4716  -45.8376 H         1 UNK         0.0600 
    149 H149        1.8889  -20.1053  -43.5452 H         1 UNK         0.3000 
    150 H150       -0.6962  -21.5601  -41.4944 H         1 UNK         0.0600 
    151 H151        1.5197  -22.2148  -40.5466 H         1 UNK         0.0600 
    152 H152        0.8932  -20.7690  -39.7681 H         1 UNK         0.0600 
    153 H153        2.1790  -20.6382  -40.9651 H         1 UNK         0.0600 
    154 H154        0.4050  -18.9490  -41.4824 H         1 UNK         0.3000 
    155 H155       -1.8071  -17.4750  -43.8978 H         1 UNK         0.0600 
    156 H156       -1.4573  -17.1745  -40.8682 H         1 UNK         0.0600 
    157 H157       -2.9770  -17.3890  -41.7229 H         1 UNK         0.0600 
    158 H158       -2.0438  -15.9178  -41.9568 H         1 UNK         0.0600 
    159 H159        0.3903  -16.3808  -42.4566 H         1 UNK         0.3000 
    160 H160        2.9584  -17.2366  -44.8030 H         1 UNK         0.0600 
    161 H161        1.5906  -14.5859  -44.1233 H         1 UNK         0.0600 
    162 H162        1.8615  -15.2266  -45.7291 H         1 UNK         0.0600 
    163 H163        3.2385  -14.7695  -44.7372 H         1 UNK         0.0600 
    164 H164        2.7924  -15.7895  -42.2870 H         1 UNK         0.3000 
    165 H165        3.6849  -18.5826  -40.2504 H         1 UNK         0.0600 
    166 H166        5.5721  -17.1003  -39.6258 H         1 UNK         0.0600 
    167 H167        5.8712  -17.8259  -41.1969 H         1 UNK         0.0600 
    168 H168        5.3503  -16.1484  -41.0943 H         1 UNK         0.0600 
    169 H169        3.3441  -15.8069  -39.6712 H         1 UNK         0.3000 
    170 H170       -0.1749  -15.7651  -39.3335 H         1 UNK         0.0600 
    171 H171        0.2876  -15.1423  -36.9836 H         1 UNK         0.0600 
    172 H172        1.9124  -15.8217  -37.0894 H         1 UNK         0.0600 
    173 H173        0.5044  -16.8718  -37.1955 H         1 UNK         0.0600 
    174 H174        1.6928  -13.8166  -38.5757 H         1 UNK         0.3000 
    175 H175        1.0942  -11.7822  -40.9259 H         1 UNK         0.0600 
    176 H176        1.9279  -11.8212  -38.6183 H         1 UNK         0.0600 
    177 H177        3.4744  -12.4957  -39.1411 H         1 UNK         0.0600 
    178 H178        3.0059  -10.8672  -39.6122 H         1 UNK         0.0600 
    179 H179        3.8583  -12.6443  -41.5725 H         1 UNK         0.3000 
    180 H180        0.5554  -12.2043  -43.0946 H         1 UNK         0.0600 
    181 H181        0.0723   -9.7908  -43.5322 H         1 UNK         0.0600 
    182 H182        1.7791   -9.4661  -43.8224 H         1 UNK         0.0600 
    183 H183        1.2212   -9.8801  -42.2108 H         1 UNK         0.0600 
    184 H184        2.1165  -11.9415  -45.4763 H         1 UNK         0.3000 
    185 H185       -0.6294  -12.6719  -47.5676 H         1 UNK         0.0600 
    186 H186        0.0799  -10.8004  -49.0469 H         1 UNK         0.0600 
    187 H187       -0.8833  -10.2027  -47.7050 H         1 UNK         0.0600 
    188 H188        0.8649   -9.9979  -47.6872 H         1 UNK         0.0600 
    189 H189        2.3156  -12.0706  -47.5378 H         1 UNK         0.3000 
    190 H190       -1.9857  -21.5254  -44.7678 H         1 UNK         0.3000 
    191 H191       -4.0584  -23.3166  -45.5623 H         1 UNK         0.0600 
    192 H192       -3.9327  -22.3156  -43.2999 H         1 UNK         0.0600 
    193 H193       -3.9248  -24.0697  -43.1866 H         1 UNK         0.0600 
    194 H194       -2.4283  -23.1700  -42.9702 H         1 UNK         0.0600 
    195 H195       -0.5957  -23.8686  -44.7353 H         1 UNK         0.3000 
    196 H196       -0.6202  -26.6851  -44.9795 H         1 UNK         0.0600 
    197 H197        1.8613  -26.4391  -45.0701 H         1 UNK         0.0600 
    198 H198        1.1682  -25.4278  -43.8117 H         1 UNK         0.0600 
    199 H199        1.6922  -24.7082  -45.3335 H         1 UNK         0.0600 
    200 H200        0.0669  -24.1541  -47.4286 H         1 UNK         0.3000 
    201 H201        0.6149  -25.9737  -49.5949 H         1 UNK         0.0600 
    202 H202        0.4028  -23.8944  -50.9697 H         1 UNK         0.0600 
    203 H203        1.4141  -23.6132  -49.5606 H         1 UNK         0.0600 
    204 H204       -0.2487  -23.0280  -49.5842 H         1 UNK         0.0600 
    205 H205       -2.2967  -24.9211  -48.0810 H         1 UNK         0.3000 
    206 H206       -4.4708  -25.0322  -48.4231 H         1 UNK         0.0600 
    207 H207       -4.0733  -27.4882  -48.7039 H         1 UNK         0.0600 
    208 H208       -5.4420  -26.9367  -49.6576 H         1 UNK         0.0600 
    209 H209       -3.9067  -27.2683  -50.4458 H         1 UNK         0.0600 
    210 H210       -3.2282  -22.9817  -49.6023 H         1 UNK         0.3000 
    211 H211       -3.2801  -22.6249  -52.3398 H         1 UNK         0.0600 
    212 H212       -3.6220  -20.5352  -50.1348 H         1 UNK         0.0600 
    213 H213       -3.0987  -20.1941  -51.7761 H         1 UNK         0.0600 
    214 H214       -2.0817  -21.1632  -50.7154 H         1 UNK         0.0600 
    215 H215       -5.9234  -22.1062  -50.0873 H         1 UNK         0.3000 
    216 H216       -7.7004  -20.6018  -51.6839 H         1 UNK         0.0600 
    217 H217       -8.2524  -22.5252  -49.3620 H         1 UNK         0.0600 
    218 H218       -9.3838  -21.3295  -49.9843 H         1 UNK         0.0600 
    219 H219       -7.8924  -20.8034  -49.2216 H         1 UNK         0.0600 
    220 H220       -6.9361  -24.0353  -51.8232 H         1 UNK         0.3000 
    221 H221       -9.3541  -24.9336  -53.1010 H         1 UNK         0.0600 
    222 H222       -6.5363  -26.1369  -53.1679 H         1 UNK         0.0600 
    223 H223       -7.7390  -26.4520  -51.9166 H         1 UNK         0.0600 
    224 H224       -8.0341  -26.9626  -53.5722 H         1 UNK         0.0600 
    225 H225       -6.6316  -23.1054  -54.2154 H         1 UNK         0.3000 
    226 H226       -7.6344  -23.1853  -57.0216 H         1 UNK         0.0600 
    227 H227       -5.4577  -24.4345  -56.8527 H         1 UNK         0.0600 
    228 H228       -5.2951  -22.9582  -57.7853 H         1 UNK         0.0600 
    229 H229       -4.7070  -23.0174  -56.1235 H         1 UNK         0.0600 
    230 H230       -8.4454  -21.5797  -54.7913 H         1 UNK         0.3000 
    231 H231       -9.0507  -19.5739  -54.2134 H         1 UNK         0.0600 
    232 H232       -7.9127  -18.5434  -56.8651 H         1 UNK         0.0600 
    233 H233       -8.9980  -17.6700  -55.7957 H         1 UNK         0.0600 
    234 H234       -9.5518  -19.1324  -56.5963 H         1 UNK         0.0600 
    235 H235       -5.8109  -19.2559  -55.6448 H         1 UNK         0.3000 
    236 H236       -4.5340  -18.5645  -53.1800 H         1 UNK         0.0600 
    237 H237       -4.8084  -16.3066  -55.2473 H         1 UNK         0.0600 
    238 H238       -5.4569  -16.2920  -53.6086 H         1 UNK         0.0600 
    239 H239       -3.7212  -16.2834  -53.8619 H         1 UNK         0.0600 
    240 H240       -4.0472  -20.6929  -54.4292 H         1 UNK         0.3000 
    241 H241       -2.4966  -21.9965  -55.3039 H         1 UNK         0.0600 
    242 H242       -3.5938  -20.7641  -58.8010 H         1 UNK         0.3800 
    243 H243       -4.4034  -20.5066  -57.2801 H         1 UNK         0.3800 
    244 H244       -0.5575  -19.6567  -55.5970 H         1 UNK         0.0800 
    245 H245       -0.1563  -21.3457  -55.5891 H         1 UNK         0.0800 
    246 H246        0.7494  -18.6292  -53.6220 H         1 UNK         0.0800 
    247 H247       -0.9474  -18.2265  -53.5508 H         1 UNK         0.0800 
@<TRIPOS>BOND
     1    1    2 1    
     2    1  127 1    
     3    1  128 1    
     4    1  129 1    
     5    2    3 2    
     6    2    4 am   BACKBONE|DICT|INTERRES
     7    4    5 1    
     8    4  130 1    
     9    5    6 1    
    10    5   65 1    
    11    5  131 1    
    12    6    7 1    
    13    6  132 1    
    14    6  133 1    
    15    7    8 1    
    16    8    9 1    
    17    8  134 1    
    18    8  135 1    
    19    9   10 ar   
    20    9   14 ar   
    21   10   11 ar   
    22   10  136 1    
    23   11   12 ar   
    24   11  126 1    
    25   12   13 ar   
    26   12  137 1    
    27   13   14 ar   
    28   13   15 1    
    29   14  138 1    
    30   15   16 1    
    31   15  139 1    
    32   15  140 1    
    33   16   17 1    
    34   17   18 1    
    35   17  141 1    
    36   17  142 1    
    37   18   19 1    
    38   18   67 1    
    39   18  143 1    
    40   19   20 am   BACKBONE|DICT|INTERRES
    41   19  144 1    
    42   20   21 2    
    43   20   22 1    
    44   22   23 1    
    45   22   24 1    
    46   22  145 1    
    47   23  146 1    
    48   23  147 1    
    49   23  148 1    
    50   24   25 am   BACKBONE|DICT|INTERRES
    51   24  149 1    
    52   25   26 2    
    53   25   27 1    
    54   27   28 1    
    55   27   29 1    
    56   27  150 1    
    57   28  151 1    
    58   28  152 1    
    59   28  153 1    
    60   29   30 am   BACKBONE|DICT|INTERRES
    61   29  154 1    
    62   30   31 2    
    63   30   32 1    
    64   32   33 1    
    65   32   34 1    
    66   32  155 1    
    67   33  156 1    
    68   33  157 1    
    69   33  158 1    
    70   34   35 am   BACKBONE|DICT|INTERRES
    71   34  159 1    
    72   35   36 2    
    73   35   37 1    
    74   37   38 1    
    75   37   39 1    
    76   37  160 1    
    77   38  161 1    
    78   38  162 1    
    79   38  163 1    
    80   39   40 am   BACKBONE|DICT|INTERRES
    81   39  164 1    
    82   40   41 2    
    83   40   42 1    
    84   42   43 1    
    85   42   44 1    
    86   42  165 1    
    87   43  166 1    
    88   43  167 1    
    89   43  168 1    
    90   44   45 am   BACKBONE|DICT|INTERRES
    91   44  169 1    
    92   45   46 2    
    93   45   47 1    
    94   47   48 1    
    95   47   49 1    
    96   47  170 1    
    97   48  171 1    
    98   48  172 1    
    99   48  173 1    
   100   49   50 am   BACKBONE|DICT|INTERRES
   101   49  174 1    
   102   50   51 2    
   103   50   52 1    
   104   52   53 1    
   105   52   54 1    
   106   52  175 1    
   107   53  176 1    
   108   53  177 1    
   109   53  178 1    
   110   54   55 am   BACKBONE|DICT|INTERRES
   111   54  179 1    
   112   55   56 2    
   113   55   57 1    
   114   57   58 1    
   115   57   59 1    
   116   57  180 1    
   117   58  181 1    
   118   58  182 1    
   119   58  183 1    
   120   59   60 am   BACKBONE|DICT|INTERRES
   121   59  184 1    
   122   60   61 2    
   123   60   62 1    
   124   62   63 1    
   125   62   64 1    
   126   62  185 1    
   127   63  186 1    
   128   63  187 1    
   129   63  188 1    
   130   64   65 am   BACKBONE|DICT|INTERRES
   131   64  189 1    
   132   65   66 2    
   133   67   68 2    
   134   67   69 am   BACKBONE|DICT|INTERRES
   135   69   70 1    
   136   69  190 1    
   137   70   71 1    
   138   70   72 1    
   139   70  191 1    
   140   71  192 1    
   141   71  193 1    
   142   71  194 1    
   143   72   73 2    
   144   72   74 am   BACKBONE|DICT|INTERRES
   145   74   75 1    
   146   74  195 1    
   147   75   76 1    
   148   75   77 1    
   149   75  196 1    
   150   76  197 1    
   151   76  198 1    
   152   76  199 1    
   153   77   78 2    
   154   77   79 am   BACKBONE|DICT|INTERRES
   155   79   80 1    
   156   79  200 1    
   157   80   81 1    
   158   80   82 1    
   159   80  201 1    
   160   81  202 1    
   161   81  203 1    
   162   81  204 1    
   163   82   83 2    
   164   82   84 am   BACKBONE|DICT|INTERRES
   165   84   85 1    
   166   84  205 1    
   167   85   86 1    
   168   85   87 1    
   169   85  206 1    
   170   86  207 1    
   171   86  208 1    
   172   86  209 1    
   173   87   88 2    
   174   87   89 am   BACKBONE|DICT|INTERRES
   175   89   90 1    
   176   89  210 1    
   177   90   91 1    
   178   90   92 1    
   179   90  211 1    
   180   91  212 1    
   181   91  213 1    
   182   91  214 1    
   183   92   93 2    
   184   92   94 am   BACKBONE|DICT|INTERRES
   185   94   95 1    
   186   94  215 1    
   187   95   96 1    
   188   95   97 1    
   189   95  216 1    
   190   96  217 1    
   191   96  218 1    
   192   96  219 1    
   193   97   98 2    
   194   97   99 am   BACKBONE|DICT|INTERRES
   195   99  100 1    
   196   99  220 1    
   197  100  101 1    
   198  100  102 1    
   199  100  221 1    
   200  101  222 1    
   201  101  223 1    
   202  101  224 1    
   203  102  103 2    
   204  102  104 am   BACKBONE|DICT|INTERRES
   205  104  105 1    
   206  104  225 1    
   207  105  106 1    
   208  105  107 1    
   209  105  226 1    
   210  106  227 1    
   211  106  228 1    
   212  106  229 1    
   213  107  108 2    
   214  107  109 am   BACKBONE|DICT|INTERRES
   215  109  110 1    
   216  109  230 1    
   217  110  111 1    
   218  110  112 1    
   219  110  231 1    
   220  111  232 1    
   221  111  233 1    
   222  111  234 1    
   223  112  113 2    
   224  112  114 am   BACKBONE|DICT|INTERRES
   225  114  115 1    
   226  114  235 1    
   227  115  116 1    
   228  115  117 1    
   229  115  236 1    
   230  116  237 1    
   231  116  238 1    
   232  116  239 1    
   233  117  118 2    
   234  117  119 am   BACKBONE|DICT|INTERRES
   235  119  120 1    
   236  119  240 1    
   237  120  121 1    
   238  120  124 1    
   239  120  241 1    
   240  121  122 am   BACKBONE|DICT|INTERRES
   241  121  123 2    
   242  122  242 1    
   243  122  243 1    
   244  124  125 1    
   245  124  244 1    
   246  124  245 1    
   247  125  126 1    
   248  126  246 1    
   249  126  247 1    
@<TRIPOS>SUBSTRUCTURE
     1 UNK         1 GROUP             0       ****    0 ROOT    
