@<TRIPOS>MOLECULE
3R540
247   249    1
SMALL
USER_CHARGES


@<TRIPOS>ATOM
      1 CA          3.8074  -17.4158  -49.8710 C.3       0 UNK        -0.1800 
      2 C           4.1449  -15.9507  -50.1402 C.2       0 UNK         0.5000 
      3 O           4.5068  -15.6142  -51.2661 O.2       0 UNK        -0.5000 
      4 N           4.0556  -15.0464  -49.1580 N.am      1 UNK        -0.5000 
      5 CA          3.7022  -15.2711  -47.7544 C.3       1 UNK         0.1400 
      6 C6          2.2875  -14.7383  -47.4170 C.3       23 UNK        -0.0398 
      7 S7          0.9537  -15.7368  -48.1571 S.3       23 UNK        -0.2404 
      8 C8          0.2239  -14.5594  -49.3403 C.3       23 UNK        -0.0205 
      9 C9         -1.2107  -14.9282  -49.6901 C.ar      23 UNK        -0.0193 
     10 C10        -1.6063  -15.1077  -51.0204 C.ar      23 UNK        -0.1150 
     11 C11        -2.9412  -15.3929  -51.3325 C.ar      23 UNK        -0.0193 
     12 C12        -3.8740  -15.5197  -50.2972 C.ar      23 UNK        -0.1150 
     13 C13        -3.4860  -15.3607  -48.9649 C.ar      23 UNK        -0.0193 
     14 C14        -2.1592  -15.0462  -48.6711 C.ar      23 UNK        -0.1150 
     15 C15        -4.5007  -15.5150  -47.8443 C.3       23 UNK        -0.0205 
     16 S16        -4.7079  -17.2569  -47.3601 S.3       23 UNK        -0.2404 
     17 C17        -3.1310  -17.6231  -46.5061 C.3       23 UNK        -0.0398 
     18 CA         -2.2020  -18.6121  -47.2589 C.3       11 UNK         0.1400 
     19 N          -0.9139  -18.7721  -46.5748 N.am      11 UNK        -0.5000 
     20 C           0.1165  -19.5153  -47.0076 C.2       10 UNK         0.5000 
     21 O           0.1319  -20.1021  -48.0869 O.2       10 UNK        -0.5000 
     22 CA          1.3063  -19.6994  -46.0474 C.3       10 UNK         0.1400 
     23 CB          2.2687  -18.5082  -46.1175 C.3       10 UNK        -0.1800 
     24 N           0.8853  -19.9185  -44.6645 N.am      10 UNK        -0.5000 
     25 C           0.1746  -20.9760  -44.2473 C.2       9 UNK         0.5000 
     26 O          -0.1661  -21.9040  -44.9796 O.2       9 UNK        -0.5000 
     27 CA         -0.2744  -20.9700  -42.7770 C.3       9 UNK         0.1400 
     28 CB          0.8485  -21.4640  -41.8524 C.3       9 UNK        -0.1800 
     29 N          -0.7172  -19.6424  -42.3536 N.am      9 UNK        -0.5000 
     30 C          -1.8411  -19.0513  -42.7820 C.2       8 UNK         0.5000 
     31 O          -2.6492  -19.5873  -43.5421 O.2       8 UNK        -0.5000 
     32 CA         -2.0705  -17.6007  -42.3174 C.3       8 UNK         0.1400 
     33 CB         -2.6495  -17.5684  -40.8954 C.3       8 UNK        -0.1800 
     34 N          -0.8444  -16.8006  -42.3625 N.am      8 UNK        -0.5000 
     35 C          -0.2131  -16.4615  -43.4971 C.2       7 UNK         0.5000 
     36 O          -0.6292  -16.7523  -44.6157 O.2       7 UNK        -0.5000 
     37 CA          1.1255  -15.7096  -43.3731 C.3       7 UNK         0.1400 
     38 CB          0.8690  -14.1971  -43.3727 C.3       7 UNK        -0.1800 
     39 N           1.9011  -16.0796  -42.1878 N.am      7 UNK        -0.5000 
     40 C           2.2875  -17.3274  -41.8753 C.2       6 UNK         0.5000 
     41 O           2.1264  -18.2872  -42.6284 O.2       6 UNK        -0.5000 
     42 CA          2.9071  -17.5707  -40.4817 C.3       6 UNK         0.1400 
     43 CB          4.4136  -17.8455  -40.6014 C.3       6 UNK        -0.1800 
     44 N           2.7017  -16.4787  -39.5279 N.am      6 UNK        -0.5000 
     45 C           1.5216  -15.9984  -39.1081 C.2       5 UNK         0.5000 
     46 O           0.4363  -16.5022  -39.4023 O.2       5 UNK        -0.5000 
     47 CA          1.5617  -14.6911  -38.2859 C.3       5 UNK         0.1400 
     48 CB          1.4083  -14.9961  -36.7884 C.3       5 UNK        -0.1800 
     49 N           2.7742  -13.8820  -38.4889 N.am      5 UNK        -0.5000 
     50 C           3.1993  -13.3952  -39.6643 C.2       4 UNK         0.5000 
     51 O           2.6010  -13.5727  -40.7285 O.2       4 UNK        -0.5000 
     52 CA          4.5407  -12.6448  -39.6592 C.3       4 UNK         0.1400 
     53 CB          5.6875  -13.5624  -39.1857 C.3       4 UNK        -0.1800 
     54 N           4.8169  -12.1747  -41.0133 N.am      4 UNK        -0.5000 
     55 C           5.7050  -11.2402  -41.3666 C.2       3 UNK         0.5000 
     56 O           6.3836  -10.6076  -40.5551 O.2       3 UNK        -0.5000 
     57 CA          5.8903  -11.0188  -42.8825 C.3       3 UNK         0.1400 
     58 CB          7.0295  -10.0350  -43.2074 C.3       3 UNK        -0.1800 
     59 N           6.1684  -12.2967  -43.5427 N.am      3 UNK        -0.5000 
     60 C           5.2498  -13.0781  -44.1204 C.2       2 UNK         0.5000 
     61 O           4.0613  -12.7708  -44.2244 O.2       2 UNK        -0.5000 
     62 CA          5.7341  -14.4641  -44.5888 C.3       2 UNK         0.1400 
     63 CB          5.7623  -15.4337  -43.3957 C.3       2 UNK        -0.1800 
     64 N           4.8751  -15.0390  -45.6247 N.am      2 UNK        -0.5000 
     65 C           4.7531  -14.5709  -46.8732 C.2       1 UNK         0.5000 
     66 O           5.4132  -13.6296  -47.3236 O.2       1 UNK        -0.5000 
     67 C          -2.8821  -19.9786  -47.4830 C.2       11 UNK         0.5000 
     68 O          -3.2469  -20.2939  -48.6150 O.2       11 UNK        -0.5000 
     69 N          -2.9948  -20.7817  -46.4138 N.am      12 UNK        -0.5000 
     70 CA         -3.5723  -22.1261  -46.4511 C.3       12 UNK         0.1400 
     71 CB         -3.6759  -22.6823  -45.0233 C.3       12 UNK        -0.1800 
     72 C          -2.7958  -23.0911  -47.3669 C.2       12 UNK         0.5000 
     73 O          -3.4155  -23.8126  -48.1499 O.2       12 UNK        -0.5000 
     74 N          -1.4590  -23.0587  -47.2815 N.am      13 UNK        -0.5000 
     75 CA         -0.5515  -23.8470  -48.1151 C.3       13 UNK         0.1400 
     76 CB          0.8817  -23.7190  -47.5774 C.3       13 UNK        -0.1800 
     77 C          -0.6115  -23.4600  -49.6040 C.2       13 UNK         0.5000 
     78 O          -0.6168  -24.3477  -50.4569 O.2       13 UNK        -0.5000 
     79 N          -0.6708  -22.1517  -49.8894 N.am      14 UNK        -0.5000 
     80 CA         -0.7985  -21.6039  -51.2392 C.3       14 UNK         0.1400 
     81 CB         -0.4852  -20.1001  -51.2198 C.3       14 UNK        -0.1800 
     82 C          -2.1841  -21.8653  -51.8529 C.2       14 UNK         0.5000 
     83 O          -2.2748  -22.1020  -53.0572 O.2       14 UNK        -0.5000 
     84 N          -3.2402  -21.8191  -51.0294 N.am      15 UNK        -0.5000 
     85 CA         -4.6020  -22.1669  -51.4257 C.3       15 UNK         0.1400 
     86 CB         -5.6000  -21.7143  -50.3506 C.3       15 UNK        -0.1800 
     87 C          -4.7537  -23.6687  -51.7131 C.2       15 UNK         0.5000 
     88 O          -5.3688  -24.0284  -52.7191 O.2       15 UNK        -0.5000 
     89 N          -4.1933  -24.5061  -50.8278 N.am      16 UNK        -0.5000 
     90 CA         -4.2008  -25.9720  -50.8639 C.3       16 UNK         0.1400 
     91 CB         -3.3391  -26.4883  -52.0347 C.3       16 UNK        -0.1800 
     92 C          -5.6356  -26.5352  -50.8820 C.2       16 UNK         0.5000 
     93 O          -5.9824  -27.3221  -51.7622 O.2       16 UNK        -0.5000 
     94 N          -6.4706  -26.0492  -49.9501 N.am      17 UNK        -0.5000 
     95 CA         -7.9155  -26.3118  -49.8505 C.3       17 UNK         0.1400 
     96 CB         -8.1828  -27.7850  -49.4770 C.3       17 UNK        -0.1800 
     97 C          -8.6942  -25.8561  -51.1075 C.2       17 UNK         0.5000 
     98 O          -9.6716  -26.4930  -51.5024 O.2       17 UNK        -0.5000 
     99 N          -8.2136  -24.7608  -51.7141 N.am      18 UNK        -0.5000 
    100 CA        -8.6648  -24.1276  -52.9570 C.3       18 UNK         0.1400 
    101 CB       -10.1391  -23.6830  -52.8630 C.3       18 UNK        -0.1800 
    102 C         -8.3668  -24.9425  -54.2349 C.2       18 UNK         0.5000 
    103 O         -8.8925  -24.5999  -55.2950 O.2       18 UNK        -0.5000 
    104 N         -7.5155  -25.9765  -54.1450 N.am      19 UNK        -0.5000 
    105 CA        -7.0629  -26.7563  -55.2998 C.3       19 UNK         0.1400 
    106 CB        -6.5112  -28.1116  -54.8336 C.3       19 UNK        -0.1800 
    107 C         -6.0076  -26.0035  -56.1303 C.2       19 UNK         0.5000 
    108 O         -6.0129  -26.1156  -57.3569 O.2       19 UNK        -0.5000 
    109 N         -5.1328  -25.2489  -55.4517 N.am      20 UNK        -0.5000 
    110 CA        -4.1167  -24.3958  -56.0708 C.3       20 UNK         0.1400 
    111 CB        -2.8069  -24.5171  -55.2795 C.3       20 UNK        -0.1800 
    112 C         -4.5894  -22.9334  -56.1431 C.2       20 UNK         0.5000 
    113 O         -4.2634  -22.2374  -57.1055 O.2       20 UNK        -0.5000 
    114 N         -5.3715  -22.5085  -55.1384 N.am      21 UNK        -0.5000 
    115 CA        -6.0734  -21.2244  -55.0312 C.3       21 UNK         0.1400 
    116 CB        -7.2031  -21.1492  -56.0791 C.3       21 UNK        -0.1800 
    117 C         -5.1528  -19.9824  -55.0506 C.2       21 UNK         0.5000 
    118 O         -5.5902  -18.9160  -55.4829 O.2       21 UNK        -0.5000 
    119 N         -3.9078  -20.1493  -54.5789 N.am      22 UNK        -0.5000 
    120 CA        -2.8462  -19.1365  -54.4225 C.3       22 UNK         0.1400 
    121 C         -2.4342  -18.3374  -55.6973 C.2       22 UNK         0.5000 
    122 N         -2.7517  -18.8076  -56.8974 N.am      22 UNK        -0.7600 
    123 O         -1.7721  -17.3072  -55.6058 O.2       22 UNK        -0.5000 
    124 C124       -2.9932  -18.2865  -53.1253 C.3       23 UNK        -0.0398 
    125 S125       -4.3201  -17.0340  -53.1331 S.3       23 UNK        -0.2404 
    126 C126       -3.3869  -15.5066  -52.7871 C.3       23 UNK        -0.0205 
    127 H127        4.4979  -17.8453  -49.1453 H         1 UNK         0.0600 
    128 H128        3.8853  -18.0000  -50.7881 H         1 UNK         0.0600 
    129 H129        2.7898  -17.5249  -49.4992 H         1 UNK         0.0600 
    130 H130        4.3602  -14.1003  -49.3447 H         1 UNK         0.3000 
    131 H131        3.7518  -16.3319  -47.5115 H         1 UNK         0.0600 
    132 H132        2.1166  -14.7477  -46.3395 H         1 UNK         0.0800 
    133 H133        2.1922  -13.6943  -47.7194 H         1 UNK         0.0800 
    134 H134        0.8511  -14.5179  -50.2321 H         1 UNK         0.0800 
    135 H135        0.2174  -13.5563  -48.9123 H         1 UNK         0.0800 
    136 H136       -0.8806  -14.9990  -51.8142 H         1 UNK         0.1150 
    137 H137       -4.9062  -15.7419  -50.5291 H         1 UNK         0.1150 
    138 H138       -1.8562  -14.8983  -47.6441 H         1 UNK         0.1150 
    139 H139       -4.2117  -14.9217  -46.9753 H         1 UNK         0.0800 
    140 H140       -5.4656  -15.1240  -48.1702 H         1 UNK         0.0800 
    141 H141       -3.3739  -18.0077  -45.5157 H         1 UNK         0.0800 
    142 H142       -2.6024  -16.6876  -46.3290 H         1 UNK         0.0800 
    143 H143       -1.9858  -18.1870  -48.2416 H         1 UNK         0.0600 
    144 H144       -0.8058  -18.2537  -45.7071 H         1 UNK         0.3000 
    145 H145        1.8541  -20.5886  -46.3657 H         1 UNK         0.0600 
    146 H146        3.1139  -18.6374  -45.4413 H         1 UNK         0.0600 
    147 H147        2.6675  -18.4026  -47.1261 H         1 UNK         0.0600 
    148 H148        1.7684  -17.5762  -45.8610 H         1 UNK         0.0600 
    149 H149        1.1754  -19.2268  -43.9786 H         1 UNK         0.3000 
    150 H150       -1.1175  -21.6578  -42.6824 H         1 UNK         0.0600 
    151 H151        1.1643  -22.4703  -42.1302 H         1 UNK         0.0600 
    152 H152        0.5162  -21.5029  -40.8149 H         1 UNK         0.0600 
    153 H153        1.7281  -20.8218  -41.8990 H         1 UNK         0.0600 
    154 H154       -0.0806  -19.1131  -41.7765 H         1 UNK         0.3000 
    155 H155       -2.7990  -17.1459  -42.9921 H         1 UNK         0.0600 
    156 H156       -2.8809  -16.5485  -40.5878 H         1 UNK         0.0600 
    157 H157       -3.5743  -18.1438  -40.8370 H         1 UNK         0.0600 
    158 H158       -1.9542  -17.9871  -40.1666 H         1 UNK         0.0600 
    159 H159       -0.4315  -16.5434  -41.4738 H         1 UNK         0.3000 
    160 H160        1.7310  -15.9525  -44.2459 H         1 UNK         0.0600 
    161 H161        0.2810  -13.8893  -42.5071 H         1 UNK         0.0600 
    162 H162        0.3267  -13.8906  -44.2682 H         1 UNK         0.0600 
    163 H163        1.8026  -13.6383  -43.3535 H         1 UNK         0.0600 
    164 H164        2.0952  -15.3272  -41.5345 H         1 UNK         0.3000 
    165 H165        2.4270  -18.4619  -40.0728 H         1 UNK         0.0600 
    166 H166        4.8349  -18.1506  -39.6434 H         1 UNK         0.0600 
    167 H167        4.6123  -18.6495  -41.3116 H         1 UNK         0.0600 
    168 H168        4.9585  -16.9644  -40.9406 H         1 UNK         0.0600 
    169 H169        3.5322  -15.9917  -39.2267 H         1 UNK         0.3000 
    170 H170        0.7084  -14.0880  -38.6023 H         1 UNK         0.0600 
    171 H171        0.5024  -15.5733  -36.5974 H         1 UNK         0.0600 
    172 H172        2.2517  -15.5731  -36.4072 H         1 UNK         0.0600 
    173 H173        1.3356  -14.0790  -36.2037 H         1 UNK         0.0600 
    174 H174        3.3242  -13.6973  -37.6621 H         1 UNK         0.3000 
    175 H175        4.4483  -11.7866  -38.9907 H         1 UNK         0.0600 
    176 H176        5.7917  -14.4367  -39.8297 H         1 UNK         0.0600 
    177 H177        6.6428  -13.0376  -39.1833 H         1 UNK         0.0600 
    178 H178        5.5226  -13.9190  -38.1686 H         1 UNK         0.0600 
    179 H179        4.2400  -12.6096  -41.7249 H         1 UNK         0.3000 
    180 H180        4.9620  -10.5880  -43.2636 H         1 UNK         0.0600 
    181 H181        6.8431   -9.0581  -42.7594 H         1 UNK         0.0600 
    182 H182        7.1231   -9.8841  -44.2830 H         1 UNK         0.0600 
    183 H183        7.9905  -10.3915  -42.8345 H         1 UNK         0.0600 
    184 H184        7.1147  -12.6394  -43.4550 H         1 UNK         0.3000 
    185 H185        6.7437  -14.3655  -44.9932 H         1 UNK         0.0600 
    186 H186        6.4227  -15.0715  -42.6066 H         1 UNK         0.0600 
    187 H187        4.7701  -15.5565  -42.9598 H         1 UNK         0.0600 
    188 H188        6.1235  -16.4187  -43.6921 H         1 UNK         0.0600 
    189 H189        4.2878  -15.8034  -45.3284 H         1 UNK         0.3000 
    190 H190       -2.6726  -20.4490  -45.5120 H         1 UNK         0.3000 
    191 H191       -4.5840  -22.0365  -46.8519 H         1 UNK         0.0600 
    192 H192       -2.6970  -22.7762  -44.5530 H         1 UNK         0.0600 
    193 H193       -4.1370  -23.6708  -45.0223 H         1 UNK         0.0600 
    194 H194       -4.2875  -22.0367  -44.3927 H         1 UNK         0.0600 
    195 H195       -1.0287  -22.4674  -46.5748 H         1 UNK         0.3000 
    196 H196       -0.8512  -24.8939  -48.0332 H         1 UNK         0.0600 
    197 H197        1.5759  -24.3190  -48.1669 H         1 UNK         0.0600 
    198 H198        0.9476  -24.0641  -46.5454 H         1 UNK         0.0600 
    199 H199        1.2312  -22.6867  -47.6073 H         1 UNK         0.0600 
    200 H200       -0.6000  -21.4749  -49.1328 H         1 UNK         0.3000 
    201 H201       -0.0578  -22.0942  -51.8743 H         1 UNK         0.0600 
    202 H202        0.5113  -19.9108  -50.8203 H         1 UNK         0.0600 
    203 H203       -1.1998  -19.5462  -50.6091 H         1 UNK         0.0600 
    204 H204       -0.5104  -19.6828  -52.2260 H         1 UNK         0.0600 
    205 H205       -3.1048  -21.5184  -50.0674 H         1 UNK         0.3000 
    206 H206       -4.8352  -21.6248  -52.3413 H         1 UNK         0.0600 
    207 H207       -5.5532  -20.6349  -50.2038 H         1 UNK         0.0600 
    208 H208       -6.6239  -21.9580  -50.6366 H         1 UNK         0.0600 
    209 H209       -5.4025  -22.1889  -49.3889 H         1 UNK         0.0600 
    210 H210       -3.7541  -24.1040  -50.0031 H         1 UNK         0.3000 
    211 H211       -3.7395  -26.3095  -49.9348 H         1 UNK         0.0600 
    212 H212       -3.7841  -26.2553  -53.0015 H         1 UNK         0.0600 
    213 H213       -3.2234  -27.5713  -51.9837 H         1 UNK         0.0600 
    214 H214       -2.3405  -26.0519  -52.0117 H         1 UNK         0.0600 
    215 H215       -6.0945  -25.3962  -49.2762 H         1 UNK         0.3000 
    216 H216       -8.2829  -25.6943  -49.0296 H         1 UNK         0.0600 
    217 H217       -9.2392  -27.9477  -49.2608 H         1 UNK         0.0600 
    218 H218       -7.6230  -28.0739  -48.5876 H         1 UNK         0.0600 
    219 H219       -7.9070  -28.4656  -50.2830 H         1 UNK         0.0600 
    220 H220       -7.3732  -24.3619  -51.3230 H         1 UNK         0.3000 
    221 H221       -8.0662  -23.2206  -53.0511 H         1 UNK         0.0600 
    222 H222      -10.8213  -24.5332  -52.8631 H         1 UNK         0.0600 
    223 H223      -10.3206  -23.1051  -51.9569 H         1 UNK         0.0600 
    224 H224      -10.4110  -23.0501  -53.7084 H         1 UNK         0.0600 
    225 H225       -7.1136  -26.2167  -53.2462 H         1 UNK         0.3000 
    226 H226       -7.9230  -26.9518  -55.9440 H         1 UNK         0.0600 
    227 H227       -7.2302  -28.6386  -54.2062 H         1 UNK         0.0600 
    228 H228       -6.2898  -28.7534  -55.6870 H         1 UNK         0.0600 
    229 H229       -5.5875  -27.9984  -54.2655 H         1 UNK         0.0600 
    230 H230       -5.2281  -25.1817  -54.4450 H         1 UNK         0.3000 
    231 H231       -3.9169  -24.7250  -57.0926 H         1 UNK         0.0600 
    232 H232       -2.3997  -25.5257  -55.3495 H         1 UNK         0.0600 
    233 H233       -2.9530  -24.2936  -54.2238 H         1 UNK         0.0600 
    234 H234       -2.0494  -23.8310  -55.6606 H         1 UNK         0.0600 
    235 H235       -5.5144  -23.1480  -54.3624 H         1 UNK         0.3000 
    236 H236       -6.5476  -21.2236  -54.0491 H         1 UNK         0.0600 
    237 H237       -6.8084  -21.0869  -57.0936 H         1 UNK         0.0600 
    238 H238       -7.8499  -22.0249  -56.0248 H         1 UNK         0.0600 
    239 H239       -7.8332  -20.2739  -55.9179 H         1 UNK         0.0600 
    240 H240       -3.6323  -21.0786  -54.2824 H         1 UNK         0.3000 
    241 H241       -1.9582  -19.7452  -54.2545 H         1 UNK         0.0600 
    242 H242       -2.4716  -18.2998  -57.7215 H         1 UNK         0.3800 
    243 H243       -3.2910  -19.6560  -56.9867 H         1 UNK         0.3800 
    244 H244       -2.0439  -17.7976  -52.9019 H         1 UNK         0.0800 
    245 H245       -3.1788  -18.9465  -52.2773 H         1 UNK         0.0800 
    246 H246       -4.0243  -14.6523  -53.0180 H         1 UNK         0.0800 
    247 H247       -2.5356  -15.4445  -53.4672 H         1 UNK         0.0800 
@<TRIPOS>BOND
     1    1    2 1    
     2    1  127 1    
     3    1  128 1    
     4    1  129 1    
     5    2    3 2    
     6    2    4 am   BACKBONE|DICT|INTERRES
     7    4    5 1    
     8    4  130 1    
     9    5    6 1    
    10    5   65 1    
    11    5  131 1    
    12    6    7 1    
    13    6  132 1    
    14    6  133 1    
    15    7    8 1    
    16    8    9 1    
    17    8  134 1    
    18    8  135 1    
    19    9   10 ar   
    20    9   14 ar   
    21   10   11 ar   
    22   10  136 1    
    23   11   12 ar   
    24   11  126 1    
    25   12   13 ar   
    26   12  137 1    
    27   13   14 ar   
    28   13   15 1    
    29   14  138 1    
    30   15   16 1    
    31   15  139 1    
    32   15  140 1    
    33   16   17 1    
    34   17   18 1    
    35   17  141 1    
    36   17  142 1    
    37   18   19 1    
    38   18   67 1    
    39   18  143 1    
    40   19   20 am   BACKBONE|DICT|INTERRES
    41   19  144 1    
    42   20   21 2    
    43   20   22 1    
    44   22   23 1    
    45   22   24 1    
    46   22  145 1    
    47   23  146 1    
    48   23  147 1    
    49   23  148 1    
    50   24   25 am   BACKBONE|DICT|INTERRES
    51   24  149 1    
    52   25   26 2    
    53   25   27 1    
    54   27   28 1    
    55   27   29 1    
    56   27  150 1    
    57   28  151 1    
    58   28  152 1    
    59   28  153 1    
    60   29   30 am   BACKBONE|DICT|INTERRES
    61   29  154 1    
    62   30   31 2    
    63   30   32 1    
    64   32   33 1    
    65   32   34 1    
    66   32  155 1    
    67   33  156 1    
    68   33  157 1    
    69   33  158 1    
    70   34   35 am   BACKBONE|DICT|INTERRES
    71   34  159 1    
    72   35   36 2    
    73   35   37 1    
    74   37   38 1    
    75   37   39 1    
    76   37  160 1    
    77   38  161 1    
    78   38  162 1    
    79   38  163 1    
    80   39   40 am   BACKBONE|DICT|INTERRES
    81   39  164 1    
    82   40   41 2    
    83   40   42 1    
    84   42   43 1    
    85   42   44 1    
    86   42  165 1    
    87   43  166 1    
    88   43  167 1    
    89   43  168 1    
    90   44   45 am   BACKBONE|DICT|INTERRES
    91   44  169 1    
    92   45   46 2    
    93   45   47 1    
    94   47   48 1    
    95   47   49 1    
    96   47  170 1    
    97   48  171 1    
    98   48  172 1    
    99   48  173 1    
   100   49   50 am   BACKBONE|DICT|INTERRES
   101   49  174 1    
   102   50   51 2    
   103   50   52 1    
   104   52   53 1    
   105   52   54 1    
   106   52  175 1    
   107   53  176 1    
   108   53  177 1    
   109   53  178 1    
   110   54   55 am   BACKBONE|DICT|INTERRES
   111   54  179 1    
   112   55   56 2    
   113   55   57 1    
   114   57   58 1    
   115   57   59 1    
   116   57  180 1    
   117   58  181 1    
   118   58  182 1    
   119   58  183 1    
   120   59   60 am   BACKBONE|DICT|INTERRES
   121   59  184 1    
   122   60   61 2    
   123   60   62 1    
   124   62   63 1    
   125   62   64 1    
   126   62  185 1    
   127   63  186 1    
   128   63  187 1    
   129   63  188 1    
   130   64   65 am   BACKBONE|DICT|INTERRES
   131   64  189 1    
   132   65   66 2    
   133   67   68 2    
   134   67   69 am   BACKBONE|DICT|INTERRES
   135   69   70 1    
   136   69  190 1    
   137   70   71 1    
   138   70   72 1    
   139   70  191 1    
   140   71  192 1    
   141   71  193 1    
   142   71  194 1    
   143   72   73 2    
   144   72   74 am   BACKBONE|DICT|INTERRES
   145   74   75 1    
   146   74  195 1    
   147   75   76 1    
   148   75   77 1    
   149   75  196 1    
   150   76  197 1    
   151   76  198 1    
   152   76  199 1    
   153   77   78 2    
   154   77   79 am   BACKBONE|DICT|INTERRES
   155   79   80 1    
   156   79  200 1    
   157   80   81 1    
   158   80   82 1    
   159   80  201 1    
   160   81  202 1    
   161   81  203 1    
   162   81  204 1    
   163   82   83 2    
   164   82   84 am   BACKBONE|DICT|INTERRES
   165   84   85 1    
   166   84  205 1    
   167   85   86 1    
   168   85   87 1    
   169   85  206 1    
   170   86  207 1    
   171   86  208 1    
   172   86  209 1    
   173   87   88 2    
   174   87   89 am   BACKBONE|DICT|INTERRES
   175   89   90 1    
   176   89  210 1    
   177   90   91 1    
   178   90   92 1    
   179   90  211 1    
   180   91  212 1    
   181   91  213 1    
   182   91  214 1    
   183   92   93 2    
   184   92   94 am   BACKBONE|DICT|INTERRES
   185   94   95 1    
   186   94  215 1    
   187   95   96 1    
   188   95   97 1    
   189   95  216 1    
   190   96  217 1    
   191   96  218 1    
   192   96  219 1    
   193   97   98 2    
   194   97   99 am   BACKBONE|DICT|INTERRES
   195   99  100 1    
   196   99  220 1    
   197  100  101 1    
   198  100  102 1    
   199  100  221 1    
   200  101  222 1    
   201  101  223 1    
   202  101  224 1    
   203  102  103 2    
   204  102  104 am   BACKBONE|DICT|INTERRES
   205  104  105 1    
   206  104  225 1    
   207  105  106 1    
   208  105  107 1    
   209  105  226 1    
   210  106  227 1    
   211  106  228 1    
   212  106  229 1    
   213  107  108 2    
   214  107  109 am   BACKBONE|DICT|INTERRES
   215  109  110 1    
   216  109  230 1    
   217  110  111 1    
   218  110  112 1    
   219  110  231 1    
   220  111  232 1    
   221  111  233 1    
   222  111  234 1    
   223  112  113 2    
   224  112  114 am   BACKBONE|DICT|INTERRES
   225  114  115 1    
   226  114  235 1    
   227  115  116 1    
   228  115  117 1    
   229  115  236 1    
   230  116  237 1    
   231  116  238 1    
   232  116  239 1    
   233  117  118 2    
   234  117  119 am   BACKBONE|DICT|INTERRES
   235  119  120 1    
   236  119  240 1    
   237  120  121 1    
   238  120  124 1    
   239  120  241 1    
   240  121  122 am   BACKBONE|DICT|INTERRES
   241  121  123 2    
   242  122  242 1    
   243  122  243 1    
   244  124  125 1    
   245  124  244 1    
   246  124  245 1    
   247  125  126 1    
   248  126  246 1    
   249  126  247 1    
@<TRIPOS>SUBSTRUCTURE
     1 UNK         1 GROUP             0       ****    0 ROOT    
