@<TRIPOS>MOLECULE
3R540
247   249    1
SMALL
USER_CHARGES


@<TRIPOS>ATOM
      1 CA          4.9324  -12.1886  -47.0975 C.3       0 UNK        -0.1800 
      2 C           3.8693  -13.2698  -47.2233 C.2       0 UNK         0.5000 
      3 O           4.0526  -14.3712  -46.7082 O.2       0 UNK        -0.5000 
      4 N           2.7576  -12.9563  -47.9006 N.am      1 UNK        -0.5000 
      5 CA          1.6424  -13.8779  -48.1646 C.3       1 UNK         0.1400 
      6 C6          0.6752  -13.3265  -49.2416 C.3       23 UNK        -0.0398 
      7 S7          1.5331  -12.9255  -50.8039 S.3       23 UNK        -0.2404 
      8 C8          0.5182  -13.7935  -52.0472 C.3       23 UNK        -0.0205 
      9 C9          0.4967  -15.3123  -51.8987 C.ar      23 UNK        -0.0193 
     10 C10        -0.7009  -16.0043  -52.1045 C.ar      23 UNK        -0.1150 
     11 C11        -0.7458  -17.3999  -52.0251 C.ar      23 UNK        -0.0193 
     12 C12         0.4154  -18.1017  -51.6938 C.ar      23 UNK        -0.1150 
     13 C13         1.6157  -17.4236  -51.4620 C.ar      23 UNK        -0.0193 
     14 C14         1.6569  -16.0329  -51.5931 C.ar      23 UNK        -0.1150 
     15 C15         2.8548  -18.1923  -51.0234 C.3       23 UNK        -0.0205 
     16 S16         3.3283  -17.8686  -49.2845 S.3       23 UNK        -0.2404 
     17 C17         1.7232  -17.7298  -48.4248 C.3       23 UNK        -0.0398 
     18 CA          0.9897  -19.0891  -48.2773 C.3       11 UNK         0.1400 
     19 N           1.3508  -19.7738  -47.0391 N.am      11 UNK        -0.5000 
     20 C           1.6292  -21.0783  -46.9326 C.2       10 UNK         0.5000 
     21 O           1.5497  -21.8798  -47.8642 O.2       10 UNK        -0.5000 
     22 CA          2.1056  -21.5708  -45.5540 C.3       10 UNK         0.1400 
     23 CB          3.5602  -21.1472  -45.2938 C.3       10 UNK        -0.1800 
     24 N           1.2584  -21.0918  -44.4643 N.am      10 UNK        -0.5000 
     25 C           0.0520  -21.5945  -44.1710 C.2       9 UNK         0.5000 
     26 O          -0.4559  -22.5450  -44.7666 O.2       9 UNK        -0.5000 
     27 CA         -0.7211  -20.9267  -43.0168 C.3       9 UNK         0.1400 
     28 CB         -0.3330  -21.5559  -41.6704 C.3       9 UNK        -0.1800 
     29 N          -0.5258  -19.4781  -42.9514 N.am      9 UNK        -0.5000 
     30 C          -0.9129  -18.6168  -43.9028 C.2       8 UNK         0.5000 
     31 O          -1.5157  -18.9464  -44.9216 O.2       8 UNK        -0.5000 
     32 CA         -0.5204  -17.1441  -43.7081 C.3       8 UNK         0.1400 
     33 CB         -1.4891  -16.4458  -42.7420 C.3       8 UNK        -0.1800 
     34 N           0.8526  -16.9880  -43.2292 N.am      8 UNK        -0.5000 
     35 C           1.9458  -17.3984  -43.8878 C.2       7 UNK         0.5000 
     36 O           1.9187  -17.9384  -44.9908 O.2       7 UNK        -0.5000 
     37 CA          3.2900  -17.2436  -43.1595 C.3       7 UNK         0.1400 
     38 CB          3.8067  -15.7999  -43.2487 C.3       7 UNK        -0.1800 
     39 N           3.1902  -17.6551  -41.7597 N.am      7 UNK        -0.5000 
     40 C           3.0097  -18.9220  -41.3588 C.2       6 UNK         0.5000 
     41 O           2.9559  -19.8817  -42.1277 O.2       6 UNK        -0.5000 
     42 CA          2.8226  -19.1468  -39.8472 C.3       6 UNK         0.1400 
     43 CB          4.1835  -19.2565  -39.1437 C.3       6 UNK        -0.1800 
     44 N           2.0338  -18.0876  -39.2150 N.am      6 UNK        -0.5000 
     45 C           0.7289  -17.8800  -39.4414 C.2       5 UNK         0.5000 
     46 O           0.0445  -18.5803  -40.1870 O.2       5 UNK        -0.5000 
     47 CA          0.1002  -16.6469  -38.7632 C.3       5 UNK         0.1400 
     48 CB         -0.3136  -16.9735  -37.3206 C.3       5 UNK        -0.1800 
     49 N           0.9782  -15.4705  -38.7670 N.am      5 UNK        -0.5000 
     50 C           1.4350  -14.8788  -39.8775 C.2       4 UNK         0.5000 
     51 O           1.1741  -15.2789  -41.0163 O.2       4 UNK        -0.5000 
     52 CA          2.3649  -13.6704  -39.6996 C.3       4 UNK         0.1400 
     53 CB          3.7477  -14.1036  -39.1805 C.3       4 UNK        -0.1800 
     54 N           2.5044  -13.0478  -41.0077 N.am      4 UNK        -0.5000 
     55 C           2.8342  -11.7846  -41.2831 C.2       3 UNK         0.5000 
     56 O           3.1340  -10.9526  -40.4259 O.2       3 UNK        -0.5000 
     57 CA          2.8256  -11.3820  -42.7740 C.3       3 UNK         0.1400 
     58 CB          4.2610  -11.2807  -43.3122 C.3       3 UNK        -0.1800 
     59 N           2.0653  -12.2980  -43.6357 N.am      3 UNK        -0.5000 
     60 C           0.7282  -12.4055  -43.6466 C.2       2 UNK         0.5000 
     61 O          -0.0112  -11.7290  -42.9310 O.2       2 UNK        -0.5000 
     62 CA          0.1358  -13.4188  -44.6417 C.3       2 UNK         0.1400 
     63 CB         -1.3912  -13.2852  -44.8134 C.3       2 UNK        -0.1800 
     64 N           0.8089  -13.2953  -45.9318 N.am      2 UNK        -0.5000 
     65 C           0.8590  -14.2365  -46.8833 C.2       1 UNK         0.5000 
     66 O           0.3224  -15.3406  -46.7887 O.2       1 UNK        -0.5000 
     67 C          -0.5413  -18.9675  -48.3927 C.2       11 UNK         0.5000 
     68 O          -1.1548  -19.8466  -48.9970 O.2       11 UNK        -0.5000 
     69 N          -1.1279  -17.8745  -47.8759 N.am      12 UNK        -0.5000 
     70 CA         -2.5101  -17.4442  -48.1323 C.3       12 UNK         0.1400 
     71 CB         -2.8230  -16.1985  -47.2907 C.3       12 UNK        -0.1800 
     72 C          -3.6046  -18.5107  -47.9313 C.2       12 UNK         0.5000 
     73 O          -4.5448  -18.5680  -48.7250 O.2       12 UNK        -0.5000 
     74 N          -3.4519  -19.3544  -46.9033 N.am      13 UNK        -0.5000 
     75 CA         -4.3680  -20.4452  -46.5674 C.3       13 UNK         0.1400 
     76 CB         -3.9592  -21.0533  -45.2190 C.3       13 UNK        -0.1800 
     77 C          -4.4679  -21.5468  -47.6403 C.2       13 UNK         0.5000 
     78 O          -5.4734  -22.2557  -47.6664 O.2       13 UNK        -0.5000 
     79 N          -3.4646  -21.6644  -48.5243 N.am      14 UNK        -0.5000 
     80 CA         -3.4497  -22.6242  -49.6323 C.3       14 UNK         0.1400 
     81 CB         -2.0504  -22.6613  -50.2618 C.3       14 UNK        -0.1800 
     82 C          -4.5263  -22.3479  -50.7016 C.2       14 UNK         0.5000 
     83 O          -4.8875  -23.2635  -51.4400 O.2       14 UNK        -0.5000 
     84 N          -5.0630  -21.1179  -50.7396 N.am      15 UNK        -0.5000 
     85 CA         -6.1830  -20.7313  -51.5982 C.3       15 UNK         0.1400 
     86 CB         -6.4124  -19.2175  -51.4779 C.3       15 UNK        -0.1800 
     87 C          -7.4834  -21.5006  -51.2903 C.2       15 UNK         0.5000 
     88 O          -8.2925  -21.6964  -52.1982 O.2       15 UNK        -0.5000 
     89 N          -7.6543  -21.9547  -50.0383 N.am      16 UNK        -0.5000 
     90 CA         -8.7539  -22.8190  -49.6139 C.3       16 UNK         0.1400 
     91 CB         -8.7604  -22.9358  -48.0816 C.3       16 UNK        -0.1800 
     92 C          -8.6328  -24.1980  -50.2870 C.2       16 UNK         0.5000 
     93 O          -7.7005  -24.9455  -49.9873 O.2       16 UNK        -0.5000 
     94 N          -9.5527  -24.4701  -51.2221 N.am      17 UNK        -0.5000 
     95 CA         -9.6089  -25.6416  -52.1052 C.3       17 UNK         0.1400 
     96 CB         -9.7477  -26.9498  -51.2971 C.3       17 UNK        -0.1800 
     97 C          -8.4709  -25.7057  -53.1507 C.2       17 UNK         0.5000 
     98 O          -8.2951  -26.7548  -53.7720 O.2       17 UNK        -0.5000 
     99 N          -7.7583  -24.5845  -53.3589 N.am      18 UNK        -0.5000 
    100 CA        -6.6945  -24.3663  -54.3474 C.3       18 UNK         0.1400 
    101 CB        -7.3130  -24.2470  -55.7558 C.3       18 UNK        -0.1800 
    102 C         -5.5718  -25.4245  -54.2778 C.2       18 UNK         0.5000 
    103 O         -5.3571  -26.1743  -55.2341 O.2       18 UNK        -0.5000 
    104 N         -4.8829  -25.4819  -53.1327 N.am      19 UNK        -0.5000 
    105 CA        -3.8015  -26.4187  -52.8249 C.3       19 UNK         0.1400 
    106 CB        -3.6512  -26.5129  -51.2960 C.3       19 UNK        -0.1800 
    107 C         -2.4854  -26.0289  -53.5312 C.2       19 UNK         0.5000 
    108 O         -1.5039  -25.6761  -52.8737 O.2       19 UNK        -0.5000 
    109 N         -2.5068  -26.0923  -54.8694 N.am      20 UNK        -0.5000 
    110 CA        -1.4660  -25.7180  -55.8313 C.3       20 UNK         0.1400 
    111 CB        -0.1738  -26.5373  -55.6380 C.3       20 UNK        -0.1800 
    112 C         -1.2071  -24.2018  -55.8477 C.2       20 UNK         0.5000 
    113 O         -1.5716  -23.5352  -56.8186 O.2       20 UNK        -0.5000 
    114 N         -0.6241  -23.6759  -54.7635 N.am      21 UNK        -0.5000 
    115 CA        -0.4336  -22.2471  -54.5271 C.3       21 UNK         0.1400 
    116 CB         0.4615  -22.0468  -53.2944 C.3       21 UNK        -0.1800 
    117 C         -1.8006  -21.5663  -54.3508 C.2       21 UNK         0.5000 
    118 O         -2.5219  -21.8933  -53.4093 O.2       21 UNK        -0.5000 
    119 N         -2.1497  -20.6836  -55.2929 N.am      22 UNK        -0.5000 
    120 CA        -3.4821  -20.0666  -55.4245 C.3       22 UNK         0.1400 
    121 C         -4.6087  -21.0767  -55.8097 C.2       22 UNK         0.5000 
    122 N         -4.2896  -22.2208  -56.4058 N.am      22 UNK        -0.7600 
    123 O         -5.7893  -20.8135  -55.6002 O.2       22 UNK        -0.5000 
    124 C124       -3.8643  -19.1529  -54.2247 C.3       23 UNK        -0.0398 
    125 S125       -2.6583  -17.8072  -53.9806 S.3       23 UNK        -0.2404 
    126 C126       -2.0425  -18.1504  -52.3005 C.3       23 UNK        -0.0205 
    127 H127        5.7374  -12.3724  -47.8090 H         1 UNK         0.0600 
    128 H128        5.3590  -12.1918  -46.0946 H         1 UNK         0.0600 
    129 H129        4.5229  -11.1965  -47.2894 H         1 UNK         0.0600 
    130 H130        2.6788  -12.0442  -48.3281 H         1 UNK         0.3000 
    131 H131        2.0739  -14.8049  -48.5469 H         1 UNK         0.0600 
    132 H132       -0.1183  -14.0494  -49.4406 H         1 UNK         0.0800 
    133 H133        0.1785  -12.4211  -48.8880 H         1 UNK         0.0800 
    134 H134        0.9038  -13.5525  -53.0385 H         1 UNK         0.0800 
    135 H135       -0.4946  -13.3897  -52.0054 H         1 UNK         0.0800 
    136 H136       -1.6003  -15.4597  -52.3560 H         1 UNK         0.1150 
    137 H137        0.3796  -19.1775  -51.5980 H         1 UNK         0.1150 
    138 H138        2.5893  -15.5124  -51.4262 H         1 UNK         0.1150 
    139 H139        2.7023  -19.2653  -51.1498 H         1 UNK         0.0800 
    140 H140        3.6911  -17.9286  -51.6722 H         1 UNK         0.0800 
    141 H141        1.1225  -16.9896  -48.9528 H         1 UNK         0.0800 
    142 H142        1.9145  -17.2856  -47.4492 H         1 UNK         0.0800 
    143 H143        1.2847  -19.7115  -49.1243 H         1 UNK         0.0600 
    144 H144        1.4563  -19.1800  -46.2181 H         1 UNK         0.3000 
    145 H145        2.0752  -22.6626  -45.5611 H         1 UNK         0.0600 
    146 H146        3.9270  -21.5587  -44.3533 H         1 UNK         0.0600 
    147 H147        4.2188  -21.5057  -46.0858 H         1 UNK         0.0600 
    148 H148        3.6647  -20.0630  -45.2454 H         1 UNK         0.0600 
    149 H149        1.6206  -20.3310  -43.9031 H         1 UNK         0.3000 
    150 H150       -1.7843  -21.1110  -43.1781 H         1 UNK         0.0600 
    151 H151       -0.4866  -22.6356  -41.6844 H         1 UNK         0.0600 
    152 H152       -0.9375  -21.1522  -40.8580 H         1 UNK         0.0600 
    153 H153        0.7149  -21.3757  -41.4292 H         1 UNK         0.0600 
    154 H154       -0.0854  -19.1154  -42.1116 H         1 UNK         0.3000 
    155 H155       -0.5917  -16.6524  -44.6792 H         1 UNK         0.0600 
    156 H156       -1.4939  -16.9222  -41.7616 H         1 UNK         0.0600 
    157 H157       -2.5092  -16.4747  -43.1269 H         1 UNK         0.0600 
    158 H158       -1.2241  -15.3991  -42.5974 H         1 UNK         0.0600 
    159 H159        0.9688  -16.5283  -42.3290 H         1 UNK         0.3000 
    160 H160        4.0166  -17.8926  -43.6533 H         1 UNK         0.0600 
    161 H161        4.7580  -15.6853  -42.7291 H         1 UNK         0.0600 
    162 H162        3.1024  -15.0884  -42.8230 H         1 UNK         0.0600 
    163 H163        3.9681  -15.5142  -44.2881 H         1 UNK         0.0600 
    164 H164        3.1747  -16.9222  -41.0676 H         1 UNK         0.3000 
    165 H165        2.2923  -20.0924  -39.7148 H         1 UNK         0.0600 
    166 H166        4.0624  -19.4910  -38.0859 H         1 UNK         0.0600 
    167 H167        4.7871  -20.0511  -39.5845 H         1 UNK         0.0600 
    168 H168        4.7539  -18.3300  -39.2196 H         1 UNK         0.0600 
    169 H169        2.5206  -17.4641  -38.5883 H         1 UNK         0.3000 
    170 H170       -0.8005  -16.3893  -39.3243 H         1 UNK         0.0600 
    171 H171       -0.9809  -17.8360  -37.2920 H         1 UNK         0.0600 
    172 H172        0.5494  -17.2049  -36.6951 H         1 UNK         0.0600 
    173 H173       -0.8453  -16.1383  -36.8643 H         1 UNK         0.0600 
    174 H174        1.2347  -15.0942  -37.8655 H         1 UNK         0.3000 
    175 H175        1.9004  -12.9681  -39.0047 H         1 UNK         0.0600 
    176 H176        3.6725  -14.5771  -38.2011 H         1 UNK         0.0600 
    177 H177        4.4141  -13.2477  -39.0729 H         1 UNK         0.0600 
    178 H178        4.2261  -14.8143  -39.8557 H         1 UNK         0.0600 
    179 H179        2.1975  -13.6457  -41.7635 H         1 UNK         0.3000 
    180 H180        2.3681  -10.3925  -42.8377 H         1 UNK         0.0600 
    181 H181        4.7554  -12.2529  -43.3279 H         1 UNK         0.0600 
    182 H182        4.8658  -10.6143  -42.6956 H         1 UNK         0.0600 
    183 H183        4.2716  -10.8781  -44.3248 H         1 UNK         0.0600 
    184 H184        2.6055  -12.8931  -44.2471 H         1 UNK         0.3000 
    185 H185        0.3545  -14.4050  -44.2323 H         1 UNK         0.0600 
    186 H186       -1.9058  -13.3611  -43.8550 H         1 UNK         0.0600 
    187 H187       -1.6602  -12.3265  -45.2576 H         1 UNK         0.0600 
    188 H188       -1.7897  -14.0733  -45.4507 H         1 UNK         0.0600 
    189 H189        1.2789  -12.4165  -46.1003 H         1 UNK         0.3000 
    190 H190       -0.5562  -17.2079  -47.3686 H         1 UNK         0.3000 
    191 H191       -2.5512  -17.1513  -49.1829 H         1 UNK         0.0600 
    192 H192       -2.6575  -16.3816  -46.2283 H         1 UNK         0.0600 
    193 H193       -3.8615  -15.8880  -47.4139 H         1 UNK         0.0600 
    194 H194       -2.2017  -15.3556  -47.5914 H         1 UNK         0.0600 
    195 H195       -2.6497  -19.2290  -46.2863 H         1 UNK         0.3000 
    196 H196       -5.3644  -20.0130  -46.4560 H         1 UNK         0.0600 
    197 H197       -4.6530  -21.8380  -44.9147 H         1 UNK         0.0600 
    198 H198       -3.9525  -20.3009  -44.4303 H         1 UNK         0.0600 
    199 H199       -2.9650  -21.4966  -45.2735 H         1 UNK         0.0600 
    200 H200       -2.6816  -21.0179  -48.4775 H         1 UNK         0.3000 
    201 H201       -3.6563  -23.6118  -49.2153 H         1 UNK         0.0600 
    202 H202       -1.2823  -22.8759  -49.5185 H         1 UNK         0.0600 
    203 H203       -1.8027  -21.7126  -50.7385 H         1 UNK         0.0600 
    204 H204       -1.9894  -23.4336  -51.0297 H         1 UNK         0.0600 
    205 H205       -4.7278  -20.4212  -50.0858 H         1 UNK         0.3000 
    206 H206       -5.9064  -20.9603  -52.6292 H         1 UNK         0.0600 
    207 H207       -5.5069  -18.6557  -51.7068 H         1 UNK         0.0600 
    208 H208       -7.1863  -18.8850  -52.1708 H         1 UNK         0.0600 
    209 H209       -6.7297  -18.9395  -50.4720 H         1 UNK         0.0600 
    210 H210       -6.9075  -21.8231  -49.3676 H         1 UNK         0.3000 
    211 H211       -9.6920  -22.3488  -49.9166 H         1 UNK         0.0600 
    212 H212       -7.8615  -23.4272  -47.7083 H         1 UNK         0.0600 
    213 H213       -9.6157  -23.5209  -47.7419 H         1 UNK         0.0600 
    214 H214       -8.8269  -21.9555  -47.6096 H         1 UNK         0.0600 
    215 H215      -10.2507  -23.7636  -51.4122 H         1 UNK         0.3000 
    216 H216      -10.5263  -25.5249  -52.6837 H         1 UNK         0.0600 
    217 H217       -9.9824  -27.7901  -51.9514 H         1 UNK         0.0600 
    218 H218      -10.5511  -26.8786  -50.5640 H         1 UNK         0.0600 
    219 H219       -8.8288  -27.2007  -50.7669 H         1 UNK         0.0600 
    220 H220       -7.9913  -23.7753  -52.7960 H         1 UNK         0.3000 
    221 H221       -6.2333  -23.4071  -54.1050 H         1 UNK         0.0600 
    222 H222       -6.5482  -24.0605  -56.5092 H         1 UNK         0.0600 
    223 H223       -8.0217  -23.4200  -55.8029 H         1 UNK         0.0600 
    224 H224       -7.8390  -25.1569  -56.0464 H         1 UNK         0.0600 
    225 H225       -5.0520  -24.7604  -52.4321 H         1 UNK         0.3000 
    226 H226       -4.0857  -27.4084  -53.1882 H         1 UNK         0.0600 
    227 H227       -2.8858  -27.2400  -51.0223 H         1 UNK         0.0600 
    228 H228       -3.3663  -25.5556  -50.8597 H         1 UNK         0.0600 
    229 H229       -4.5835  -26.8284  -50.8270 H         1 UNK         0.0600 
    230 H230       -3.4055  -26.3264  -55.2826 H         1 UNK         0.3000 
    231 H231       -1.8654  -25.9771  -56.8131 H         1 UNK         0.0600 
    232 H232       -0.3748  -27.6064  -55.7066 H         1 UNK         0.0600 
    233 H233        0.3011  -26.3497  -54.6751 H         1 UNK         0.0600 
    234 H234        0.5561  -26.2945  -56.4112 H         1 UNK         0.0600 
    235 H235       -0.4972  -24.2907  -53.9665 H         1 UNK         0.3000 
    236 H236        0.0769  -21.8190  -55.3923 H         1 UNK         0.0600 
    237 H237        1.4390  -22.5071  -53.4385 H         1 UNK         0.0600 
    238 H238        0.6262  -20.9863  -53.1042 H         1 UNK         0.0600 
    239 H239        0.0179  -22.4792  -52.3971 H         1 UNK         0.0600 
    240 H240       -1.5052  -20.4912  -56.0460 H         1 UNK         0.3000 
    241 H241       -3.4087  -19.4176  -56.2976 H         1 UNK         0.0600 
    242 H242       -5.0233  -22.8444  -56.6949 H         1 UNK         0.3800 
    243 H243       -3.3231  -22.4635  -56.5914 H         1 UNK         0.3800 
    244 H244       -3.9623  -19.7370  -53.3104 H         1 UNK         0.0800 
    245 H245       -4.8366  -18.6867  -54.3913 H         1 UNK         0.0800 
    246 H246       -1.8920  -19.2251  -52.1819 H         1 UNK         0.0800 
    247 H247       -2.7979  -17.8595  -51.5696 H         1 UNK         0.0800 
@<TRIPOS>BOND
     1    1    2 1    
     2    1  127 1    
     3    1  128 1    
     4    1  129 1    
     5    2    3 2    
     6    2    4 am   BACKBONE|DICT|INTERRES
     7    4    5 1    
     8    4  130 1    
     9    5    6 1    
    10    5   65 1    
    11    5  131 1    
    12    6    7 1    
    13    6  132 1    
    14    6  133 1    
    15    7    8 1    
    16    8    9 1    
    17    8  134 1    
    18    8  135 1    
    19    9   10 ar   
    20    9   14 ar   
    21   10   11 ar   
    22   10  136 1    
    23   11   12 ar   
    24   11  126 1    
    25   12   13 ar   
    26   12  137 1    
    27   13   14 ar   
    28   13   15 1    
    29   14  138 1    
    30   15   16 1    
    31   15  139 1    
    32   15  140 1    
    33   16   17 1    
    34   17   18 1    
    35   17  141 1    
    36   17  142 1    
    37   18   19 1    
    38   18   67 1    
    39   18  143 1    
    40   19   20 am   BACKBONE|DICT|INTERRES
    41   19  144 1    
    42   20   21 2    
    43   20   22 1    
    44   22   23 1    
    45   22   24 1    
    46   22  145 1    
    47   23  146 1    
    48   23  147 1    
    49   23  148 1    
    50   24   25 am   BACKBONE|DICT|INTERRES
    51   24  149 1    
    52   25   26 2    
    53   25   27 1    
    54   27   28 1    
    55   27   29 1    
    56   27  150 1    
    57   28  151 1    
    58   28  152 1    
    59   28  153 1    
    60   29   30 am   BACKBONE|DICT|INTERRES
    61   29  154 1    
    62   30   31 2    
    63   30   32 1    
    64   32   33 1    
    65   32   34 1    
    66   32  155 1    
    67   33  156 1    
    68   33  157 1    
    69   33  158 1    
    70   34   35 am   BACKBONE|DICT|INTERRES
    71   34  159 1    
    72   35   36 2    
    73   35   37 1    
    74   37   38 1    
    75   37   39 1    
    76   37  160 1    
    77   38  161 1    
    78   38  162 1    
    79   38  163 1    
    80   39   40 am   BACKBONE|DICT|INTERRES
    81   39  164 1    
    82   40   41 2    
    83   40   42 1    
    84   42   43 1    
    85   42   44 1    
    86   42  165 1    
    87   43  166 1    
    88   43  167 1    
    89   43  168 1    
    90   44   45 am   BACKBONE|DICT|INTERRES
    91   44  169 1    
    92   45   46 2    
    93   45   47 1    
    94   47   48 1    
    95   47   49 1    
    96   47  170 1    
    97   48  171 1    
    98   48  172 1    
    99   48  173 1    
   100   49   50 am   BACKBONE|DICT|INTERRES
   101   49  174 1    
   102   50   51 2    
   103   50   52 1    
   104   52   53 1    
   105   52   54 1    
   106   52  175 1    
   107   53  176 1    
   108   53  177 1    
   109   53  178 1    
   110   54   55 am   BACKBONE|DICT|INTERRES
   111   54  179 1    
   112   55   56 2    
   113   55   57 1    
   114   57   58 1    
   115   57   59 1    
   116   57  180 1    
   117   58  181 1    
   118   58  182 1    
   119   58  183 1    
   120   59   60 am   BACKBONE|DICT|INTERRES
   121   59  184 1    
   122   60   61 2    
   123   60   62 1    
   124   62   63 1    
   125   62   64 1    
   126   62  185 1    
   127   63  186 1    
   128   63  187 1    
   129   63  188 1    
   130   64   65 am   BACKBONE|DICT|INTERRES
   131   64  189 1    
   132   65   66 2    
   133   67   68 2    
   134   67   69 am   BACKBONE|DICT|INTERRES
   135   69   70 1    
   136   69  190 1    
   137   70   71 1    
   138   70   72 1    
   139   70  191 1    
   140   71  192 1    
   141   71  193 1    
   142   71  194 1    
   143   72   73 2    
   144   72   74 am   BACKBONE|DICT|INTERRES
   145   74   75 1    
   146   74  195 1    
   147   75   76 1    
   148   75   77 1    
   149   75  196 1    
   150   76  197 1    
   151   76  198 1    
   152   76  199 1    
   153   77   78 2    
   154   77   79 am   BACKBONE|DICT|INTERRES
   155   79   80 1    
   156   79  200 1    
   157   80   81 1    
   158   80   82 1    
   159   80  201 1    
   160   81  202 1    
   161   81  203 1    
   162   81  204 1    
   163   82   83 2    
   164   82   84 am   BACKBONE|DICT|INTERRES
   165   84   85 1    
   166   84  205 1    
   167   85   86 1    
   168   85   87 1    
   169   85  206 1    
   170   86  207 1    
   171   86  208 1    
   172   86  209 1    
   173   87   88 2    
   174   87   89 am   BACKBONE|DICT|INTERRES
   175   89   90 1    
   176   89  210 1    
   177   90   91 1    
   178   90   92 1    
   179   90  211 1    
   180   91  212 1    
   181   91  213 1    
   182   91  214 1    
   183   92   93 2    
   184   92   94 am   BACKBONE|DICT|INTERRES
   185   94   95 1    
   186   94  215 1    
   187   95   96 1    
   188   95   97 1    
   189   95  216 1    
   190   96  217 1    
   191   96  218 1    
   192   96  219 1    
   193   97   98 2    
   194   97   99 am   BACKBONE|DICT|INTERRES
   195   99  100 1    
   196   99  220 1    
   197  100  101 1    
   198  100  102 1    
   199  100  221 1    
   200  101  222 1    
   201  101  223 1    
   202  101  224 1    
   203  102  103 2    
   204  102  104 am   BACKBONE|DICT|INTERRES
   205  104  105 1    
   206  104  225 1    
   207  105  106 1    
   208  105  107 1    
   209  105  226 1    
   210  106  227 1    
   211  106  228 1    
   212  106  229 1    
   213  107  108 2    
   214  107  109 am   BACKBONE|DICT|INTERRES
   215  109  110 1    
   216  109  230 1    
   217  110  111 1    
   218  110  112 1    
   219  110  231 1    
   220  111  232 1    
   221  111  233 1    
   222  111  234 1    
   223  112  113 2    
   224  112  114 am   BACKBONE|DICT|INTERRES
   225  114  115 1    
   226  114  235 1    
   227  115  116 1    
   228  115  117 1    
   229  115  236 1    
   230  116  237 1    
   231  116  238 1    
   232  116  239 1    
   233  117  118 2    
   234  117  119 am   BACKBONE|DICT|INTERRES
   235  119  120 1    
   236  119  240 1    
   237  120  121 1    
   238  120  124 1    
   239  120  241 1    
   240  121  122 am   BACKBONE|DICT|INTERRES
   241  121  123 2    
   242  122  242 1    
   243  122  243 1    
   244  124  125 1    
   245  124  244 1    
   246  124  245 1    
   247  125  126 1    
   248  126  246 1    
   249  126  247 1    
@<TRIPOS>SUBSTRUCTURE
     1 UNK         1 GROUP             0       ****    0 ROOT    
