@<TRIPOS>MOLECULE
3R540
247   249    1
SMALL
USER_CHARGES


@<TRIPOS>ATOM
      1 CA          6.2687  -12.3908  -45.4870 C.3       0 UNK        -0.1800 
      2 C           4.8793  -12.9818  -45.6712 C.2       0 UNK         0.5000 
      3 O           4.0247  -12.8136  -44.8037 O.2       0 UNK        -0.5000 
      4 N           4.6392  -13.6512  -46.8061 N.am      1 UNK        -0.5000 
      5 CA          3.3787  -14.3229  -47.1606 C.3       1 UNK         0.1400 
      6 C6          3.5429  -15.1191  -48.4794 C.3       23 UNK        -0.0398 
      7 S7          2.3708  -16.5073  -48.6570 S.3       23 UNK        -0.2404 
      8 C8          1.8364  -16.2987  -50.3855 C.3       23 UNK        -0.0205 
      9 C9          1.4941  -17.6351  -51.0242 C.ar      23 UNK        -0.0193 
     10 C10         0.1730  -17.9634  -51.3432 C.ar      23 UNK        -0.1150 
     11 C11        -0.1270  -19.1877  -51.9502 C.ar      23 UNK        -0.0193 
     12 C12         0.9076  -20.0923  -52.2174 C.ar      23 UNK        -0.1150 
     13 C13         2.2342  -19.7653  -51.9237 C.ar      23 UNK        -0.0193 
     14 C14         2.5185  -18.5355  -51.3265 C.ar      23 UNK        -0.1150 
     15 C15         3.3701  -20.7131  -52.2886 C.3       23 UNK        -0.0205 
     16 S16         3.3477  -22.2725  -51.3482 S.3       23 UNK        -0.2404 
     17 C17         3.5106  -21.6971  -49.6218 C.3       23 UNK        -0.0398 
     18 CA          2.5605  -22.4494  -48.6603 C.3       11 UNK         0.1400 
     19 N           2.9281  -22.2390  -47.2564 N.am      11 UNK        -0.5000 
     20 C           2.4686  -22.9873  -46.2440 C.2       10 UNK         0.5000 
     21 O           1.6955  -23.9339  -46.3893 O.2       10 UNK        -0.5000 
     22 CA          2.9247  -22.5963  -44.8272 C.3       10 UNK         0.1400 
     23 CB          4.3166  -23.1738  -44.5296 C.3       10 UNK        -0.1800 
     24 N           2.9305  -21.1535  -44.5651 N.am      10 UNK        -0.5000 
     25 C           1.8558  -20.3579  -44.6426 C.2       9 UNK         0.5000 
     26 O           0.7677  -20.7174  -45.0908 O.2       9 UNK        -0.5000 
     27 CA          2.0072  -18.9262  -44.1023 C.3       9 UNK         0.1400 
     28 CB          1.7390  -17.8843  -45.1976 C.3       9 UNK        -0.1800 
     29 N           1.0820  -18.7123  -42.9913 N.am      9 UNK        -0.5000 
     30 C           1.2110  -19.2803  -41.7839 C.2       8 UNK         0.5000 
     31 O           2.1848  -19.9546  -41.4456 O.2       8 UNK        -0.5000 
     32 CA          0.0571  -19.0746  -40.7916 C.3       8 UNK         0.1400 
     33 CB          0.1585  -17.6967  -40.1194 C.3       8 UNK        -0.1800 
     34 N          -1.2439  -19.2100  -41.4490 N.am      8 UNK        -0.5000 
     35 C          -1.9367  -20.3559  -41.5276 C.2       7 UNK         0.5000 
     36 O          -1.5422  -21.4187  -41.0468 O.2       7 UNK        -0.5000 
     37 CA         -3.3106  -20.3244  -42.2295 C.3       7 UNK         0.1400 
     38 CB         -4.4407  -20.4924  -41.2012 C.3       7 UNK        -0.1800 
     39 N          -3.5394  -19.0817  -42.9665 N.am      7 UNK        -0.5000 
     40 C          -3.3268  -18.9251  -44.2790 C.2       6 UNK         0.5000 
     41 O          -2.9995  -19.8385  -45.0319 O.2       6 UNK        -0.5000 
     42 CA         -3.5120  -17.5076  -44.8560 C.3       6 UNK         0.1400 
     43 CB         -4.8972  -17.3805  -45.5054 C.3       6 UNK        -0.1800 
     44 N          -3.3487  -16.4207  -43.8841 N.am      6 UNK        -0.5000 
     45 C          -2.2353  -16.1633  -43.1874 C.2       5 UNK         0.5000 
     46 O          -1.2234  -16.8694  -43.2267 O.2       5 UNK        -0.5000 
     47 CA         -2.2994  -14.9588  -42.2302 C.3       5 UNK         0.1400 
     48 CB         -2.9511  -15.3690  -40.9001 C.3       5 UNK        -0.1800 
     49 N          -0.9679  -14.4202  -41.9592 N.am      5 UNK        -0.5000 
     50 C          -0.2386  -13.7393  -42.8504 C.2       4 UNK         0.5000 
     51 O          -0.6598  -13.3945  -43.9573 O.2       4 UNK        -0.5000 
     52 CA          1.2104  -13.4260  -42.4321 C.3       4 UNK         0.1400 
     53 CB          2.1159  -14.6410  -42.6904 C.3       4 UNK        -0.1800 
     54 N           1.7602  -12.2811  -43.1527 N.am      4 UNK        -0.5000 
     55 C           1.3736  -11.0086  -43.0006 C.2       3 UNK         0.5000 
     56 O           0.5543  -10.6345  -42.1600 O.2       3 UNK        -0.5000 
     57 CA          2.0097   -9.9839  -43.9545 C.3       3 UNK         0.1400 
     58 CB          3.4078   -9.5750  -43.4636 C.3       3 UNK        -0.1800 
     59 N           2.1094  -10.5106  -45.3164 N.am      3 UNK        -0.5000 
     60 C           1.1430  -10.4121  -46.2400 C.2       2 UNK         0.5000 
     61 O           0.0710   -9.8380  -46.0450 O.2       2 UNK        -0.5000 
     62 CA          1.4205  -11.0288  -47.6261 C.3       2 UNK         0.1400 
     63 CB          1.8905   -9.9437  -48.6079 C.3       2 UNK        -0.1800 
     64 N           2.4212  -12.0961  -47.5911 N.am      2 UNK        -0.5000 
     65 C           2.1684  -13.3607  -47.2242 C.2       1 UNK         0.5000 
     66 O           1.0475  -13.7695  -46.9243 O.2       1 UNK        -0.5000 
     67 C           1.0751  -22.1148  -48.9137 C.2       11 UNK         0.5000 
     68 O           0.3871  -22.8764  -49.5944 O.2       11 UNK        -0.5000 
     69 N           0.5935  -21.0181  -48.3117 N.am      12 UNK        -0.5000 
     70 CA         -0.8089  -20.6120  -48.3632 C.3       12 UNK         0.1400 
     71 CB         -0.9628  -19.2016  -47.7807 C.3       12 UNK        -0.1800 
     72 C          -1.7220  -21.6145  -47.6379 C.2       12 UNK         0.5000 
     73 O          -2.7729  -21.9645  -48.1726 O.2       12 UNK        -0.5000 
     74 N          -1.2837  -22.0912  -46.4646 N.am      13 UNK        -0.5000 
     75 CA         -1.9707  -23.0938  -45.6537 C.3       13 UNK         0.1400 
     76 CB         -1.2426  -23.2625  -44.3123 C.3       13 UNK        -0.1800 
     77 C          -2.1082  -24.4402  -46.3829 C.2       13 UNK         0.5000 
     78 O          -3.2015  -25.0076  -46.3982 O.2       13 UNK        -0.5000 
     79 N          -1.0139  -24.8951  -47.0131 N.am      14 UNK        -0.5000 
     80 CA         -0.9663  -26.0918  -47.8561 C.3       14 UNK         0.1400 
     81 CB          0.4833  -26.3637  -48.2845 C.3       14 UNK        -0.1800 
     82 C          -1.8880  -25.9902  -49.0851 C.2       14 UNK         0.5000 
     83 O          -2.5654  -26.9619  -49.4211 O.2       14 UNK        -0.5000 
     84 N          -1.9560  -24.7980  -49.6900 N.am      15 UNK        -0.5000 
     85 CA         -2.8700  -24.4337  -50.7735 C.3       15 UNK         0.1400 
     86 CB         -2.2425  -23.2780  -51.5668 C.3       15 UNK        -0.1800 
     87 C          -4.2890  -24.0927  -50.2619 C.2       15 UNK         0.5000 
     88 O          -4.8734  -23.0953  -50.6883 O.2       15 UNK        -0.5000 
     89 N          -4.8140  -24.9317  -49.3568 N.am      16 UNK        -0.5000 
     90 CA         -6.1631  -24.9168  -48.7823 C.3       16 UNK         0.1400 
     91 CB         -7.1778  -25.4296  -49.8240 C.3       16 UNK        -0.1800 
     92 C          -6.5700  -23.5692  -48.1457 C.2       16 UNK         0.5000 
     93 O          -7.7023  -23.1187  -48.3288 O.2       16 UNK        -0.5000 
     94 N          -5.6319  -22.9633  -47.4034 N.am      17 UNK        -0.5000 
     95 CA         -5.7360  -21.6617  -46.7339 C.3       17 UNK         0.1400 
     96 CB         -6.7652  -21.7042  -45.5856 C.3       17 UNK        -0.1800 
     97 C          -5.9749  -20.5123  -47.7340 C.2       17 UNK         0.5000 
     98 O          -6.9784  -19.8019  -47.6484 O.2       17 UNK        -0.5000 
     99 N          -5.0194  -20.3656  -48.6600 N.am      18 UNK        -0.5000 
    100 CA        -4.9377  -19.3596  -49.7200 C.3       18 UNK         0.1400 
    101 CB        -4.7721  -17.9418  -49.1319 C.3       18 UNK        -0.1800 
    102 C         -6.0923  -19.4535  -50.7357 C.2       18 UNK         0.5000 
    103 O         -6.6993  -18.4371  -51.0827 O.2       18 UNK        -0.5000 
    104 N         -6.3668  -20.6733  -51.2137 N.am      19 UNK        -0.5000 
    105 CA        -7.2654  -20.9198  -52.3396 C.3       19 UNK         0.1400 
    106 CB        -7.6620  -22.4045  -52.3471 C.3       19 UNK        -0.1800 
    107 C         -6.6104  -20.5189  -53.6770 C.2       19 UNK         0.5000 
    108 O         -5.4001  -20.2879  -53.7406 O.2       19 UNK        -0.5000 
    109 N         -7.4218  -20.4898  -54.7430 N.am      20 UNK        -0.5000 
    110 CA        -7.0220  -20.1351  -56.1117 C.3       20 UNK         0.1400 
    111 CB        -8.2861  -20.0318  -56.9811 C.3       20 UNK        -0.1800 
    112 C         -5.9958  -21.0909  -56.7620 C.2       20 UNK         0.5000 
    113 O         -5.4466  -20.7575  -57.8132 O.2       20 UNK        -0.5000 
    114 N         -5.7413  -22.2451  -56.1276 N.am      21 UNK        -0.5000 
    115 CA        -4.7905  -23.2833  -56.5320 C.3       21 UNK         0.1400 
    116 CB        -4.8110  -24.4036  -55.4784 C.3       21 UNK        -0.1800 
    117 C         -3.3464  -22.7887  -56.7552 C.2       21 UNK         0.5000 
    118 O         -2.6479  -23.3577  -57.5959 O.2       21 UNK        -0.5000 
    119 N         -2.9294  -21.7431  -56.0258 N.am      22 UNK        -0.5000 
    120 CA        -1.6327  -21.0718  -56.2172 C.3       22 UNK         0.1400 
    121 C         -1.6111  -19.9956  -57.3451 C.2       22 UNK         0.5000 
    122 N         -2.7116  -19.7159  -58.0349 N.am      22 UNK        -0.7600 
    123 O         -0.5636  -19.4162  -57.6203 O.2       22 UNK        -0.5000 
    124 C124       -1.0318  -20.5650  -54.8816 C.3       23 UNK        -0.0398 
    125 S125       -1.9637  -19.2260  -54.0569 S.3       23 UNK        -0.2404 
    126 C126       -1.5688  -19.5324  -52.3034 C.3       23 UNK        -0.0205 
    127 H127        6.9174  -12.6068  -46.3351 H         1 UNK         0.0600 
    128 H128        6.7326  -12.7999  -44.5901 H         1 UNK         0.0600 
    129 H129        6.2035  -11.3091  -45.3739 H         1 UNK         0.0600 
    130 H130        5.3852  -13.7401  -47.4812 H         1 UNK         0.3000 
    131 H131        3.1777  -15.0328  -46.3552 H         1 UNK         0.0600 
    132 H132        3.4862  -14.4510  -49.3403 H         1 UNK         0.0800 
    133 H133        4.5374  -15.5653  -48.5217 H         1 UNK         0.0800 
    134 H134        0.9855  -15.6167  -50.4180 H         1 UNK         0.0800 
    135 H135        2.6291  -15.8345  -50.9735 H         1 UNK         0.0800 
    136 H136       -0.6211  -17.2632  -51.1253 H         1 UNK         0.1150 
    137 H137        0.6892  -21.0501  -52.6656 H         1 UNK         0.1150 
    138 H138        3.5414  -18.2718  -51.0960 H         1 UNK         0.1150 
    139 H139        3.3039  -20.9465  -53.3521 H         1 UNK         0.0800 
    140 H140        4.3385  -20.2311  -52.1449 H         1 UNK         0.0800 
    141 H141        3.3559  -20.6198  -49.5528 H         1 UNK         0.0800 
    142 H142        4.5464  -21.8691  -49.3263 H         1 UNK         0.0800 
    143 H143        2.6805  -23.5177  -48.8561 H         1 UNK         0.0600 
    144 H144        3.5535  -21.4743  -47.0495 H         1 UNK         0.3000 
    145 H145        2.2187  -23.0466  -44.1265 H         1 UNK         0.0600 
    146 H146        4.5991  -23.0063  -43.4901 H         1 UNK         0.0600 
    147 H147        4.3374  -24.2511  -44.7002 H         1 UNK         0.0600 
    148 H148        5.0835  -22.7261  -45.1628 H         1 UNK         0.0600 
    149 H149        3.7823  -20.7777  -44.1743 H         1 UNK         0.3000 
    150 H150        3.0285  -18.7845  -43.7426 H         1 UNK         0.0600 
    151 H151        2.3374  -18.0875  -46.0860 H         1 UNK         0.0600 
    152 H152        1.9947  -16.8827  -44.8571 H         1 UNK         0.0600 
    153 H153        0.6916  -17.8701  -45.4971 H         1 UNK         0.0600 
    154 H154        0.2498  -18.1660  -43.1910 H         1 UNK         0.3000 
    155 H155        0.1531  -19.8288  -40.0075 H         1 UNK         0.0600 
    156 H156        0.0768  -16.8864  -40.8424 H         1 UNK         0.0600 
    157 H157       -0.6246  -17.5650  -39.3729 H         1 UNK         0.0600 
    158 H158        1.1154  -17.5829  -39.6085 H         1 UNK         0.0600 
    159 H159       -1.5754  -18.3998  -41.9573 H         1 UNK         0.3000 
    160 H160       -3.3476  -21.1771  -42.9109 H         1 UNK         0.0600 
    161 H161       -4.4503  -19.6780  -40.4757 H         1 UNK         0.0600 
    162 H162       -4.3311  -21.4254  -40.6468 H         1 UNK         0.0600 
    163 H163       -5.4153  -20.5197  -41.6892 H         1 UNK         0.0600 
    164 H164       -3.8405  -18.2825  -42.4292 H         1 UNK         0.3000 
    165 H165       -2.7540  -17.3765  -45.6311 H         1 UNK         0.0600 
    166 H166       -4.9954  -16.4415  -46.0504 H         1 UNK         0.0600 
    167 H167       -5.0689  -18.1868  -46.2170 H         1 UNK         0.0600 
    168 H168       -5.6960  -17.4274  -44.7644 H         1 UNK         0.0600 
    169 H169       -4.1416  -15.8048  -43.7747 H         1 UNK         0.3000 
    170 H170       -2.9048  -14.1750  -42.6907 H         1 UNK         0.0600 
    171 H171       -2.3989  -16.1685  -40.4062 H         1 UNK         0.0600 
    172 H172       -3.0060  -14.5255  -40.2116 H         1 UNK         0.0600 
    173 H173       -3.9707  -15.7238  -41.0550 H         1 UNK         0.0600 
    174 H174       -0.5477  -14.6844  -41.0810 H         1 UNK         0.3000 
    175 H175        1.2223  -13.1978  -41.3642 H         1 UNK         0.0600 
    176 H176        3.1246  -14.4672  -42.3155 H         1 UNK         0.0600 
    177 H177        2.1908  -14.8542  -43.7570 H         1 UNK         0.0600 
    178 H178        1.7350  -15.5379  -42.2005 H         1 UNK         0.0600 
    179 H179        2.4659  -12.4922  -43.8534 H         1 UNK         0.3000 
    180 H180        1.3827   -9.0896  -43.9544 H         1 UNK         0.0600 
    181 H181        4.0929  -10.4228  -43.4345 H         1 UNK         0.0600 
    182 H182        3.3600   -9.1580  -42.4569 H         1 UNK         0.0600 
    183 H183        3.8447   -8.8138  -44.1104 H         1 UNK         0.0600 
    184 H184        2.9300  -11.0618  -45.5267 H         1 UNK         0.3000 
    185 H185        0.4790  -11.4376  -47.9999 H         1 UNK         0.0600 
    186 H186        1.1565   -9.1405  -48.6833 H         1 UNK         0.0600 
    187 H187        2.8345   -9.4966  -48.2932 H         1 UNK         0.0600 
    188 H188        2.0281  -10.3510  -49.6098 H         1 UNK         0.0600 
    189 H189        3.3700  -11.8403  -47.8230 H         1 UNK         0.3000 
    190 H190        1.2004  -20.4774  -47.7146 H         1 UNK         0.3000 
    191 H191       -1.1107  -20.5798  -49.4118 H         1 UNK         0.0600 
    192 H192       -0.3187  -18.4845  -48.2903 H         1 UNK         0.0600 
    193 H193       -1.9888  -18.8543  -47.8839 H         1 UNK         0.0600 
    194 H194       -0.7248  -19.1800  -46.7182 H         1 UNK         0.0600 
    195 H195       -0.4417  -21.6846  -46.0623 H         1 UNK         0.3000 
    196 H196       -2.9735  -22.7192  -45.4444 H         1 UNK         0.0600 
    197 H197       -1.7780  -23.9540  -43.6610 H         1 UNK         0.0600 
    198 H198       -1.1661  -22.3112  -43.7863 H         1 UNK         0.0600 
    199 H199       -0.2325  -23.6492  -44.4454 H         1 UNK         0.0600 
    200 H200       -0.1441  -24.3792  -46.9133 H         1 UNK         0.3000 
    201 H201       -1.3084  -26.9355  -47.2536 H         1 UNK         0.0600 
    202 H202        1.1264  -26.5228  -47.4188 H         1 UNK         0.0600 
    203 H203        0.8958  -25.5335  -48.8588 H         1 UNK         0.0600 
    204 H204        0.5469  -27.2579  -48.9057 H         1 UNK         0.0600 
    205 H205       -1.3514  -24.0548  -49.3565 H         1 UNK         0.3000 
    206 H206       -2.9723  -25.2838  -51.4507 H         1 UNK         0.0600 
    207 H207       -1.2659  -23.5530  -51.9658 H         1 UNK         0.0600 
    208 H208       -2.8683  -22.9794  -52.4091 H         1 UNK         0.0600 
    209 H209       -2.1077  -22.4113  -50.9213 H         1 UNK         0.0600 
    210 H210       -4.2286  -25.7064  -49.0673 H         1 UNK         0.3000 
    211 H211       -6.1487  -25.6356  -47.9618 H         1 UNK         0.0600 
    212 H212       -7.2251  -24.7769  -50.6943 H         1 UNK         0.0600 
    213 H213       -8.1817  -25.4938  -49.4029 H         1 UNK         0.0600 
    214 H214       -6.9110  -26.4273  -50.1723 H         1 UNK         0.0600 
    215 H215       -4.7199  -23.4015  -47.3644 H         1 UNK         0.3000 
    216 H216       -4.7637  -21.4699  -46.2810 H         1 UNK         0.0600 
    217 H217       -6.7626  -20.7653  -45.0306 H         1 UNK         0.0600 
    218 H218       -6.5319  -22.4996  -44.8780 H         1 UNK         0.0600 
    219 H219       -7.7799  -21.8650  -45.9505 H         1 UNK         0.0600 
    220 H220       -4.2499  -21.0336  -48.6319 H         1 UNK         0.3000 
    221 H221       -4.0289  -19.5929  -50.2746 H         1 UNK         0.0600 
    222 H222       -5.6754  -17.6082  -48.6205 H         1 UNK         0.0600 
    223 H223       -3.9506  -17.8943  -48.4204 H         1 UNK         0.0600 
    224 H224       -4.5583  -17.2178  -49.9189 H         1 UNK         0.0600 
    225 H225       -5.8056  -21.4660  -50.9088 H         1 UNK         0.3000 
    226 H226       -8.1688  -20.3210  -52.2055 H         1 UNK         0.0600 
    227 H227       -8.0999  -22.6931  -51.3913 H         1 UNK         0.0600 
    228 H228       -8.4051  -22.6144  -53.1172 H         1 UNK         0.0600 
    229 H229       -6.8039  -23.0509  -52.5354 H         1 UNK         0.0600 
    230 H230       -8.3992  -20.7094  -54.6133 H         1 UNK         0.3000 
    231 H231       -6.5540  -19.1489  -56.0728 H         1 UNK         0.0600 
    232 H232       -8.8108  -20.9866  -57.0412 H         1 UNK         0.0600 
    233 H233       -8.0398  -19.7285  -58.0001 H         1 UNK         0.0600 
    234 H234       -8.9795  -19.2896  -56.5841 H         1 UNK         0.0600 
    235 H235       -6.2376  -22.4123  -55.2656 H         1 UNK         0.3000 
    236 H236       -5.1437  -23.6947  -57.4802 H         1 UNK         0.0600 
    237 H237       -5.8062  -24.8383  -55.3826 H         1 UNK         0.0600 
    238 H238       -4.1305  -25.2120  -55.7517 H         1 UNK         0.0600 
    239 H239       -4.5079  -24.0368  -54.4958 H         1 UNK         0.0600 
    240 H240       -3.5652  -21.3119  -55.3672 H         1 UNK         0.3000 
    241 H241       -0.9296  -21.8293  -56.5690 H         1 UNK         0.0600 
    242 H242       -3.5911  -20.1890  -57.8516 H         1 UNK         0.3800 
    243 H243       -2.6691  -19.0232  -58.7653 H         1 UNK         0.3800 
    244 H244       -0.9611  -21.4127  -54.1995 H         1 UNK         0.0800 
    245 H245       -0.0078  -20.2208  -55.0362 H         1 UNK         0.0800 
    246 H246       -2.2501  -18.9409  -51.6912 H         1 UNK         0.0800 
    247 H247       -1.7743  -20.5725  -52.0657 H         1 UNK         0.0800 
@<TRIPOS>BOND
     1    1    2 1    
     2    1  127 1    
     3    1  128 1    
     4    1  129 1    
     5    2    3 2    
     6    2    4 am   BACKBONE|DICT|INTERRES
     7    4    5 1    
     8    4  130 1    
     9    5    6 1    
    10    5   65 1    
    11    5  131 1    
    12    6    7 1    
    13    6  132 1    
    14    6  133 1    
    15    7    8 1    
    16    8    9 1    
    17    8  134 1    
    18    8  135 1    
    19    9   10 ar   
    20    9   14 ar   
    21   10   11 ar   
    22   10  136 1    
    23   11   12 ar   
    24   11  126 1    
    25   12   13 ar   
    26   12  137 1    
    27   13   14 ar   
    28   13   15 1    
    29   14  138 1    
    30   15   16 1    
    31   15  139 1    
    32   15  140 1    
    33   16   17 1    
    34   17   18 1    
    35   17  141 1    
    36   17  142 1    
    37   18   19 1    
    38   18   67 1    
    39   18  143 1    
    40   19   20 am   BACKBONE|DICT|INTERRES
    41   19  144 1    
    42   20   21 2    
    43   20   22 1    
    44   22   23 1    
    45   22   24 1    
    46   22  145 1    
    47   23  146 1    
    48   23  147 1    
    49   23  148 1    
    50   24   25 am   BACKBONE|DICT|INTERRES
    51   24  149 1    
    52   25   26 2    
    53   25   27 1    
    54   27   28 1    
    55   27   29 1    
    56   27  150 1    
    57   28  151 1    
    58   28  152 1    
    59   28  153 1    
    60   29   30 am   BACKBONE|DICT|INTERRES
    61   29  154 1    
    62   30   31 2    
    63   30   32 1    
    64   32   33 1    
    65   32   34 1    
    66   32  155 1    
    67   33  156 1    
    68   33  157 1    
    69   33  158 1    
    70   34   35 am   BACKBONE|DICT|INTERRES
    71   34  159 1    
    72   35   36 2    
    73   35   37 1    
    74   37   38 1    
    75   37   39 1    
    76   37  160 1    
    77   38  161 1    
    78   38  162 1    
    79   38  163 1    
    80   39   40 am   BACKBONE|DICT|INTERRES
    81   39  164 1    
    82   40   41 2    
    83   40   42 1    
    84   42   43 1    
    85   42   44 1    
    86   42  165 1    
    87   43  166 1    
    88   43  167 1    
    89   43  168 1    
    90   44   45 am   BACKBONE|DICT|INTERRES
    91   44  169 1    
    92   45   46 2    
    93   45   47 1    
    94   47   48 1    
    95   47   49 1    
    96   47  170 1    
    97   48  171 1    
    98   48  172 1    
    99   48  173 1    
   100   49   50 am   BACKBONE|DICT|INTERRES
   101   49  174 1    
   102   50   51 2    
   103   50   52 1    
   104   52   53 1    
   105   52   54 1    
   106   52  175 1    
   107   53  176 1    
   108   53  177 1    
   109   53  178 1    
   110   54   55 am   BACKBONE|DICT|INTERRES
   111   54  179 1    
   112   55   56 2    
   113   55   57 1    
   114   57   58 1    
   115   57   59 1    
   116   57  180 1    
   117   58  181 1    
   118   58  182 1    
   119   58  183 1    
   120   59   60 am   BACKBONE|DICT|INTERRES
   121   59  184 1    
   122   60   61 2    
   123   60   62 1    
   124   62   63 1    
   125   62   64 1    
   126   62  185 1    
   127   63  186 1    
   128   63  187 1    
   129   63  188 1    
   130   64   65 am   BACKBONE|DICT|INTERRES
   131   64  189 1    
   132   65   66 2    
   133   67   68 2    
   134   67   69 am   BACKBONE|DICT|INTERRES
   135   69   70 1    
   136   69  190 1    
   137   70   71 1    
   138   70   72 1    
   139   70  191 1    
   140   71  192 1    
   141   71  193 1    
   142   71  194 1    
   143   72   73 2    
   144   72   74 am   BACKBONE|DICT|INTERRES
   145   74   75 1    
   146   74  195 1    
   147   75   76 1    
   148   75   77 1    
   149   75  196 1    
   150   76  197 1    
   151   76  198 1    
   152   76  199 1    
   153   77   78 2    
   154   77   79 am   BACKBONE|DICT|INTERRES
   155   79   80 1    
   156   79  200 1    
   157   80   81 1    
   158   80   82 1    
   159   80  201 1    
   160   81  202 1    
   161   81  203 1    
   162   81  204 1    
   163   82   83 2    
   164   82   84 am   BACKBONE|DICT|INTERRES
   165   84   85 1    
   166   84  205 1    
   167   85   86 1    
   168   85   87 1    
   169   85  206 1    
   170   86  207 1    
   171   86  208 1    
   172   86  209 1    
   173   87   88 2    
   174   87   89 am   BACKBONE|DICT|INTERRES
   175   89   90 1    
   176   89  210 1    
   177   90   91 1    
   178   90   92 1    
   179   90  211 1    
   180   91  212 1    
   181   91  213 1    
   182   91  214 1    
   183   92   93 2    
   184   92   94 am   BACKBONE|DICT|INTERRES
   185   94   95 1    
   186   94  215 1    
   187   95   96 1    
   188   95   97 1    
   189   95  216 1    
   190   96  217 1    
   191   96  218 1    
   192   96  219 1    
   193   97   98 2    
   194   97   99 am   BACKBONE|DICT|INTERRES
   195   99  100 1    
   196   99  220 1    
   197  100  101 1    
   198  100  102 1    
   199  100  221 1    
   200  101  222 1    
   201  101  223 1    
   202  101  224 1    
   203  102  103 2    
   204  102  104 am   BACKBONE|DICT|INTERRES
   205  104  105 1    
   206  104  225 1    
   207  105  106 1    
   208  105  107 1    
   209  105  226 1    
   210  106  227 1    
   211  106  228 1    
   212  106  229 1    
   213  107  108 2    
   214  107  109 am   BACKBONE|DICT|INTERRES
   215  109  110 1    
   216  109  230 1    
   217  110  111 1    
   218  110  112 1    
   219  110  231 1    
   220  111  232 1    
   221  111  233 1    
   222  111  234 1    
   223  112  113 2    
   224  112  114 am   BACKBONE|DICT|INTERRES
   225  114  115 1    
   226  114  235 1    
   227  115  116 1    
   228  115  117 1    
   229  115  236 1    
   230  116  237 1    
   231  116  238 1    
   232  116  239 1    
   233  117  118 2    
   234  117  119 am   BACKBONE|DICT|INTERRES
   235  119  120 1    
   236  119  240 1    
   237  120  121 1    
   238  120  124 1    
   239  120  241 1    
   240  121  122 am   BACKBONE|DICT|INTERRES
   241  121  123 2    
   242  122  242 1    
   243  122  243 1    
   244  124  125 1    
   245  124  244 1    
   246  124  245 1    
   247  125  126 1    
   248  126  246 1    
   249  126  247 1    
@<TRIPOS>SUBSTRUCTURE
     1 UNK         1 GROUP             0       ****    0 ROOT    
