@<TRIPOS>MOLECULE
3R540
247   249    1
SMALL
USER_CHARGES


@<TRIPOS>ATOM
      1 CA          3.9730  -10.2829  -52.4092 C.3       0 UNK        -0.1800 
      2 C           3.8621  -10.4544  -50.9009 C.2       0 UNK         0.5000 
      3 O           3.5752   -9.4884  -50.1938 O.2       0 UNK        -0.5000 
      4 N           4.0900  -11.6784  -50.4079 N.am      1 UNK        -0.5000 
      5 CA          4.0011  -12.0512  -48.9895 C.3       1 UNK         0.1400 
      6 C6          4.7465  -13.3784  -48.6931 C.3       23 UNK        -0.0398 
      7 S7          4.2833  -14.7729  -49.7834 S.3       23 UNK        -0.2404 
      8 C8          3.2560  -15.7461  -48.6467 C.3       23 UNK        -0.0205 
      9 C9          2.5505  -16.8975  -49.3415 C.ar      23 UNK        -0.0193 
     10 C10         1.5283  -16.6426  -50.2597 C.ar      23 UNK        -0.1150 
     11 C11         0.8094  -17.6960  -50.8316 C.ar      23 UNK        -0.0193 
     12 C12         1.1178  -19.0129  -50.4757 C.ar      23 UNK        -0.1150 
     13 C13         2.1443  -19.2816  -49.5639 C.ar      23 UNK        -0.0193 
     14 C14         2.8687  -18.2178  -49.0156 C.ar      23 UNK        -0.1150 
     15 C15         2.4623  -20.7178  -49.1679 C.3       23 UNK        -0.0205 
     16 S16         2.4542  -20.9472  -47.3602 S.3       23 UNK        -0.2404 
     17 C17         2.6083  -22.7614  -47.2238 C.3       23 UNK        -0.0398 
     18 CA          1.4049  -23.4412  -46.5277 C.3       11 UNK         0.1400 
     19 N           1.1559  -22.9011  -45.1894 N.am      11 UNK        -0.5000 
     20 C           0.3590  -23.4574  -44.2680 C.2       10 UNK         0.5000 
     21 O          -0.2689  -24.4981  -44.4665 O.2       10 UNK        -0.5000 
     22 CA          0.1886  -22.7106  -42.9299 C.3       10 UNK         0.1400 
     23 CB          0.1722  -23.6674  -41.7213 C.3       10 UNK        -0.1800 
     24 N           1.1430  -21.6147  -42.7333 N.am      10 UNK        -0.5000 
     25 C           2.4712  -21.6785  -42.5578 C.2       9 UNK         0.5000 
     26 O           3.1137  -22.7274  -42.5111 O.2       9 UNK        -0.5000 
     27 CA          3.2128  -20.3318  -42.4446 C.3       9 UNK         0.1400 
     28 CB          3.8753  -19.9805  -43.7858 C.3       9 UNK        -0.1800 
     29 N           2.3347  -19.2283  -42.0485 N.am      9 UNK        -0.5000 
     30 C           1.8324  -19.0576  -40.8178 C.2       8 UNK         0.5000 
     31 O           2.1250  -19.7674  -39.8548 O.2       8 UNK        -0.5000 
     32 CA          0.8027  -17.9260  -40.6429 C.3       8 UNK         0.1400 
     33 CB          1.5075  -16.5723  -40.4722 C.3       8 UNK        -0.1800 
     34 N          -0.1575  -17.8516  -41.7486 N.am      8 UNK        -0.5000 
     35 C          -1.0669  -18.7982  -42.0281 C.2       7 UNK         0.5000 
     36 O          -1.1991  -19.8326  -41.3748 O.2       7 UNK        -0.5000 
     37 CA         -1.9653  -18.5717  -43.2559 C.3       7 UNK         0.1400 
     38 CB         -3.1413  -17.6477  -42.9071 C.3       7 UNK        -0.1800 
     39 N          -1.2299  -18.0147  -44.3867 N.am      7 UNK        -0.5000 
     40 C          -0.3282  -18.6807  -45.1206 C.2       6 UNK         0.5000 
     41 O          -0.0632  -19.8749  -44.9700 O.2       6 UNK        -0.5000 
     42 CA          0.4133  -17.8563  -46.1894 C.3       6 UNK         0.1400 
     43 CB         -0.4582  -17.7082  -47.4440 C.3       6 UNK        -0.1800 
     44 N           0.8029  -16.5284  -45.7097 N.am      6 UNK        -0.5000 
     45 C           1.6398  -16.3039  -44.6863 C.2       5 UNK         0.5000 
     46 O           2.1958  -17.1951  -44.0468 O.2       5 UNK        -0.5000 
     47 CA          1.8570  -14.8397  -44.2735 C.3       5 UNK         0.1400 
     48 CB          2.9874  -14.2039  -45.0902 C.3       5 UNK        -0.1800 
     49 N           0.6362  -14.0473  -44.4110 N.am      5 UNK        -0.5000 
     50 C          -0.4224  -14.1675  -43.5974 C.2       4 UNK         0.5000 
     51 O          -0.4612  -14.9332  -42.6338 O.2       4 UNK        -0.5000 
     52 CA         -1.6639  -13.3314  -43.9560 C.3       4 UNK         0.1400 
     53 CB         -1.4715  -11.8621  -43.5511 C.3       4 UNK        -0.1800 
     54 N          -1.9961  -13.4060  -45.3792 N.am      4 UNK        -0.5000 
     55 C          -2.3499  -14.5309  -46.0162 C.2       3 UNK         0.5000 
     56 O          -2.4661  -15.6218  -45.4599 O.2       3 UNK        -0.5000 
     57 CA         -2.5886  -14.4345  -47.5338 C.3       3 UNK         0.1400 
     58 CB         -4.0773  -14.1895  -47.8225 C.3       3 UNK        -0.1800 
     59 N          -1.7947  -13.4096  -48.2166 N.am      3 UNK        -0.5000 
     60 C          -0.4562  -13.3438  -48.2471 C.2       2 UNK         0.5000 
     61 O           0.2747  -14.1144  -47.6209 O.2       2 UNK        -0.5000 
     62 CA          0.1227  -12.2320  -49.1480 C.3       2 UNK         0.1400 
     63 CB         -0.3096  -10.8290  -48.6693 C.3       2 UNK        -0.1800 
     64 N           1.5764  -12.2893  -49.3443 N.am      2 UNK        -0.5000 
     65 C           2.5493  -12.0457  -48.4518 C.2       1 UNK         0.5000 
     66 O           2.3504  -11.7727  -47.2675 O.2       1 UNK        -0.5000 
     67 C           0.1327  -23.4273  -47.3986 C.2       11 UNK         0.5000 
     68 O          -0.0881  -24.3663  -48.1623 O.2       11 UNK        -0.5000 
     69 N          -0.7118  -22.4011  -47.2147 N.am      12 UNK        -0.5000 
     70 CA         -2.0246  -22.2773  -47.8471 C.3       12 UNK         0.1400 
     71 CB         -2.6148  -20.8985  -47.5202 C.3       12 UNK        -0.1800 
     72 C          -3.0039  -23.3872  -47.4280 C.2       12 UNK         0.5000 
     73 O          -3.7884  -23.8473  -48.2595 O.2       12 UNK        -0.5000 
     74 N          -2.9318  -23.7972  -46.1551 N.am      13 UNK        -0.5000 
     75 CA         -3.7256  -24.8868  -45.5935 C.3       13 UNK         0.1400 
     76 CB         -3.7764  -24.7548  -44.0634 C.3       13 UNK        -0.1800 
     77 C          -3.1734  -26.2581  -46.0138 C.2       13 UNK         0.5000 
     78 O          -3.9538  -27.1285  -46.3973 O.2       13 UNK        -0.5000 
     79 N          -1.8417  -26.4135  -45.9722 N.am      14 UNK        -0.5000 
     80 CA         -1.1261  -27.6327  -46.3576 C.3       14 UNK         0.1400 
     81 CB          0.3606  -27.4881  -46.0011 C.3       14 UNK        -0.1800 
     82 C          -1.2951  -27.9904  -47.8461 C.2       14 UNK         0.5000 
     83 O          -1.4847  -29.1629  -48.1714 O.2       14 UNK        -0.5000 
     84 N          -1.2586  -26.9729  -48.7175 N.am      15 UNK        -0.5000 
     85 CA         -1.5152  -27.1016  -50.1539 C.3       15 UNK         0.1400 
     86 CB         -0.9231  -25.8787  -50.8733 C.3       15 UNK        -0.1800 
     87 C          -3.0130  -27.2363  -50.4950 C.2       15 UNK         0.5000 
     88 O          -3.3373  -27.5923  -51.6283 O.2       15 UNK        -0.5000 
     89 N          -3.8898  -26.9139  -49.5303 N.am      16 UNK        -0.5000 
     90 CA         -5.3507  -26.8152  -49.6402 C.3       16 UNK         0.1400 
     91 CB         -5.9805  -28.1966  -49.9126 C.3       16 UNK        -0.1800 
     92 C          -5.8053  -25.7319  -50.6440 C.2       16 UNK         0.5000 
     93 O          -6.8766  -25.8464  -51.2421 O.2       16 UNK        -0.5000 
     94 N          -4.9728  -24.6963  -50.8062 N.am      17 UNK        -0.5000 
     95 CA         -5.2015  -23.5570  -51.6900 C.3       17 UNK         0.1400 
     96 CB         -3.8399  -23.0142  -52.1533 C.3       17 UNK        -0.1800 
     97 C          -6.0042  -22.4445  -50.9976 C.2       17 UNK         0.5000 
     98 O          -6.6518  -21.6540  -51.6838 O.2       17 UNK        -0.5000 
     99 N          -5.9071  -22.3686  -49.6590 N.am      18 UNK        -0.5000 
    100 CA        -6.5653  -21.4011  -48.7668 C.3       18 UNK         0.1400 
    101 CB        -8.0876  -21.6473  -48.7485 C.3       18 UNK        -0.1800 
    102 C         -6.2188  -19.9221  -49.0626 C.2       18 UNK         0.5000 
    103 O         -6.9430  -19.0258  -48.6282 O.2       18 UNK        -0.5000 
    104 N         -5.1247  -19.7035  -49.8101 N.am      19 UNK        -0.5000 
    105 CA        -4.6489  -18.4314  -50.3606 C.3       19 UNK         0.1400 
    106 CB        -4.1735  -17.4880  -49.2387 C.3       19 UNK        -0.1800 
    107 C         -5.6558  -17.7660  -51.3265 C.2       19 UNK         0.5000 
    108 O         -5.6389  -16.5437  -51.4815 O.2       19 UNK        -0.5000 
    109 N         -6.5020  -18.5758  -51.9823 N.am      20 UNK        -0.5000 
    110 CA        -7.5117  -18.1452  -52.9497 C.3       20 UNK         0.1400 
    111 CB        -8.5642  -19.2573  -53.0999 C.3       20 UNK        -0.1800 
    112 C         -6.8559  -17.7694  -54.2925 C.2       20 UNK         0.5000 
    113 O         -6.8141  -18.5875  -55.2120 O.2       20 UNK        -0.5000 
    114 N         -6.3035  -16.5494  -54.3425 N.am      21 UNK        -0.5000 
    115 CA        -5.5253  -15.9451  -55.4337 C.3       21 UNK         0.1400 
    116 CB        -6.3308  -15.8945  -56.7491 C.3       21 UNK        -0.1800 
    117 C         -4.1198  -16.5598  -55.6219 C.2       21 UNK         0.5000 
    118 O         -3.4400  -16.2260  -56.5938 O.2       21 UNK        -0.5000 
    119 N         -3.6897  -17.4004  -54.6703 N.am      22 UNK        -0.5000 
    120 CA        -2.3879  -18.0847  -54.6294 C.3       22 UNK         0.1400 
    121 C         -2.1797  -19.1184  -55.7827 C.2       22 UNK         0.5000 
    122 N         -0.9543  -19.5586  -56.0333 N.am      22 UNK        -0.7600 
    123 O         -3.1251  -19.5698  -56.4252 O.2       22 UNK        -0.5000 
    124 C124       -1.2195  -17.0692  -54.4534 C.3       23 UNK        -0.0398 
    125 S125        0.1997  -17.7394  -53.5223 S.3       23 UNK        -0.2404 
    126 C126       -0.3177  -17.4086  -51.8101 C.3       23 UNK        -0.0205 
    127 H127        3.0242   -9.9353  -52.8178 H         1 UNK         0.0600 
    128 H128        4.7391   -9.5451  -52.6476 H         1 UNK         0.0600 
    129 H129        4.2350  -11.2176  -52.9056 H         1 UNK         0.0600 
    130 H130        4.3286  -12.4337  -51.0359 H         1 UNK         0.3000 
    131 H131        4.5231  -11.2732  -48.4276 H         1 UNK         0.0600 
    132 H132        4.6334  -13.6624  -47.6457 H         1 UNK         0.0800 
    133 H133        5.8166  -13.2152  -48.8268 H         1 UNK         0.0800 
    134 H134        2.4994  -15.1000  -48.2092 H         1 UNK         0.0800 
    135 H135        3.8708  -16.1073  -47.8207 H         1 UNK         0.0800 
    136 H136        1.2795  -15.6204  -50.5076 H         1 UNK         0.1150 
    137 H137        0.5535  -19.8266  -50.9092 H         1 UNK         0.1150 
    138 H138        3.6553  -18.4197  -48.3023 H         1 UNK         0.1150 
    139 H139        1.7402  -21.4037  -49.6140 H         1 UNK         0.0800 
    140 H140        3.4421  -20.9887  -49.5632 H         1 UNK         0.0800 
    141 H141        3.5150  -22.9692  -46.6540 H         1 UNK         0.0800 
    142 H142        2.7782  -23.2010  -48.2083 H         1 UNK         0.0800 
    143 H143        1.6737  -24.4905  -46.3941 H         1 UNK         0.0600 
    144 H144        1.5815  -22.0096  -44.9784 H         1 UNK         0.3000 
    145 H145       -0.7922  -22.2363  -42.9824 H         1 UNK         0.0600 
    146 H146        0.0385  -23.1195  -40.7885 H         1 UNK         0.0600 
    147 H147       -0.6497  -24.3801  -41.7984 H         1 UNK         0.0600 
    148 H148        1.0947  -24.2433  -41.6454 H         1 UNK         0.0600 
    149 H149        0.7364  -20.6906  -42.7893 H         1 UNK         0.3000 
    150 H150        3.9953  -20.4442  -41.6915 H         1 UNK         0.0600 
    151 H151        4.5429  -20.7767  -44.1178 H         1 UNK         0.0600 
    152 H152        4.4689  -19.0698  -43.7051 H         1 UNK         0.0600 
    153 H153        3.1329  -19.8247  -44.5696 H         1 UNK         0.0600 
    154 H154        2.1005  -18.5542  -42.7747 H         1 UNK         0.3000 
    155 H155        0.2404  -18.1291  -39.7291 H         1 UNK         0.0600 
    156 H156        2.0842  -16.3049  -41.3572 H         1 UNK         0.0600 
    157 H157        2.1965  -16.5955  -39.6271 H         1 UNK         0.0600 
    158 H158        0.7897  -15.7738  -40.2839 H         1 UNK         0.0600 
    159 H159       -0.1427  -17.0055  -42.3070 H         1 UNK         0.3000 
    160 H160       -2.3713  -19.5397  -43.5576 H         1 UNK         0.0600 
    161 H161       -3.8238  -17.5454  -43.7510 H         1 UNK         0.0600 
    162 H162       -2.8003  -16.6487  -42.6320 H         1 UNK         0.0600 
    163 H163       -3.7158  -18.0436  -42.0688 H         1 UNK         0.0600 
    164 H164       -1.4433  -17.0527  -44.6347 H         1 UNK         0.3000 
    165 H165        1.3301  -18.3817  -46.4592 H         1 UNK         0.0600 
    166 H166       -0.1155  -16.8938  -48.0794 H         1 UNK         0.0600 
    167 H167       -0.4211  -18.6195  -48.0383 H         1 UNK         0.0600 
    168 H168       -1.5022  -17.5152  -47.1989 H         1 UNK         0.0600 
    169 H169        0.4175  -15.7308  -46.2021 H         1 UNK         0.3000 
    170 H170        2.1579  -14.8279  -43.2244 H         1 UNK         0.0600 
    171 H171        3.9107  -14.7772  -44.9980 H         1 UNK         0.0600 
    172 H172        2.7308  -14.1584  -46.1462 H         1 UNK         0.0600 
    173 H173        3.1963  -13.1884  -44.7534 H         1 UNK         0.0600 
    174 H174        0.5732  -13.4453  -45.2209 H         1 UNK         0.3000 
    175 H175       -2.5086  -13.7334  -43.3924 H         1 UNK         0.0600 
    176 H176       -2.3797  -11.2841  -43.7229 H         1 UNK         0.0600 
    177 H177       -1.2301  -11.7786  -42.4906 H         1 UNK         0.0600 
    178 H178       -0.6625  -11.3905  -44.1105 H         1 UNK         0.0600 
    179 H179       -1.9183  -12.5547  -45.9152 H         1 UNK         0.3000 
    180 H180       -2.3117  -15.3968  -47.9658 H         1 UNK         0.0600 
    181 H181       -4.4032  -13.2154  -47.4557 H         1 UNK         0.0600 
    182 H182       -4.6989  -14.9453  -47.3405 H         1 UNK         0.0600 
    183 H183       -4.2865  -14.2338  -48.8915 H         1 UNK         0.0600 
    184 H184       -2.3206  -12.7360  -48.7542 H         1 UNK         0.3000 
    185 H185       -0.3051  -12.3888  -50.1392 H         1 UNK         0.0600 
    186 H186       -0.0151  -10.6420  -47.6362 H         1 UNK         0.0600 
    187 H187        0.1331  -10.0485  -49.2886 H         1 UNK         0.0600 
    188 H188       -1.3912  -10.7043  -48.7246 H         1 UNK         0.0600 
    189 H189        1.8725  -12.5215  -50.2812 H         1 UNK         0.3000 
    190 H190       -0.4433  -21.6723  -46.5655 H         1 UNK         0.3000 
    191 H191       -1.8930  -22.3509  -48.9286 H         1 UNK         0.0600 
    192 H192       -2.1000  -20.1156  -48.0727 H         1 UNK         0.0600 
    193 H193       -2.5457  -20.6671  -46.4566 H         1 UNK         0.0600 
    194 H194       -3.6670  -20.8428  -47.7926 H         1 UNK         0.0600 
    195 H195       -2.2289  -23.3922  -45.5554 H         1 UNK         0.3000 
    196 H196       -4.7471  -24.8054  -45.9718 H         1 UNK         0.0600 
    197 H197       -4.3945  -25.5402  -43.6266 H         1 UNK         0.0600 
    198 H198       -4.2076  -23.7991  -43.7651 H         1 UNK         0.0600 
    199 H199       -2.7866  -24.8305  -43.6130 H         1 UNK         0.0600 
    200 H200       -1.2759  -25.6595  -45.5916 H         1 UNK         0.3000 
    201 H201       -1.5375  -28.4556  -45.7695 H         1 UNK         0.0600 
    202 H202        0.4945  -27.2702  -44.9413 H         1 UNK         0.0600 
    203 H203        0.8328  -26.6881  -46.5708 H         1 UNK         0.0600 
    204 H204        0.9045  -28.4086  -46.2163 H         1 UNK         0.0600 
    205 H205       -1.0268  -26.0415  -48.3820 H         1 UNK         0.3000 
    206 H206       -1.0088  -27.9954  -50.5240 H         1 UNK         0.0600 
    207 H207        0.1454  -25.7855  -50.6788 H         1 UNK         0.0600 
    208 H208       -1.0506  -25.9580  -51.9537 H         1 UNK         0.0600 
    209 H209       -1.4037  -24.9530  -50.5536 H         1 UNK         0.0600 
    210 H210       -3.5136  -26.6641  -48.6257 H         1 UNK         0.3000 
    211 H211       -5.7018  -26.4817  -48.6626 H         1 UNK         0.0600 
    212 H212       -5.7351  -28.5664  -50.9083 H         1 UNK         0.0600 
    213 H213       -7.0677  -28.1515  -49.8403 H         1 UNK         0.0600 
    214 H214       -5.6388  -28.9339  -49.1861 H         1 UNK         0.0600 
    215 H215       -4.1555  -24.6555  -50.2105 H         1 UNK         0.3000 
    216 H216       -5.7620  -23.8814  -52.5694 H         1 UNK         0.0600 
    217 H217       -3.9648  -22.1681  -52.8305 H         1 UNK         0.0600 
    218 H218       -3.2757  -23.7776  -52.6896 H         1 UNK         0.0600 
    219 H219       -3.2305  -22.6782  -51.3133 H         1 UNK         0.0600 
    220 H220       -5.3071  -23.0448  -49.1951 H         1 UNK         0.3000 
    221 H221       -6.1847  -21.6054  -47.7651 H         1 UNK         0.0600 
    222 H222       -8.5486  -21.3971  -49.7046 H         1 UNK         0.0600 
    223 H223       -8.3151  -22.6906  -48.5295 H         1 UNK         0.0600 
    224 H224       -8.5754  -21.0434  -47.9825 H         1 UNK         0.0600 
    225 H225       -4.6205  -20.5218  -50.1168 H         1 UNK         0.3000 
    226 H226       -3.7763  -18.6765  -50.9675 H         1 UNK         0.0600 
    227 H227       -3.4714  -17.9880  -48.5726 H         1 UNK         0.0600 
    228 H228       -3.6632  -16.6190  -49.6546 H         1 UNK         0.0600 
    229 H229       -5.0060  -17.1242  -48.6363 H         1 UNK         0.0600 
    230 H230       -6.4539  -19.5753  -51.8134 H         1 UNK         0.3000 
    231 H231       -8.0201  -17.2610  -52.5590 H         1 UNK         0.0600 
    232 H232       -9.0415  -19.4789  -52.1451 H         1 UNK         0.0600 
    233 H233       -8.1260  -20.1831  -53.4747 H         1 UNK         0.0600 
    234 H234       -9.3490  -18.9598  -53.7963 H         1 UNK         0.0600 
    235 H235       -6.3261  -16.0079  -53.4852 H         1 UNK         0.3000 
    236 H236       -5.3510  -14.9132  -55.1260 H         1 UNK         0.0600 
    237 H237       -5.8236  -15.2790  -57.4929 H         1 UNK         0.0600 
    238 H238       -6.4613  -16.8847  -57.1858 H         1 UNK         0.0600 
    239 H239       -7.3188  -15.4618  -56.5918 H         1 UNK         0.0600 
    240 H240       -4.3374  -17.6318  -53.9335 H         1 UNK         0.3000 
    241 H241       -2.4433  -18.6924  -53.7259 H         1 UNK         0.0600 
    242 H242       -0.8123  -20.2395  -56.7630 H         1 UNK         0.3800 
    243 H243       -0.1662  -19.2253  -55.4973 H         1 UNK         0.3800 
    244 H244       -0.8707  -16.7102  -55.4232 H         1 UNK         0.0800 
    245 H245       -1.5655  -16.1783  -53.9276 H         1 UNK         0.0800 
    246 H246       -1.1834  -18.0246  -51.5631 H         1 UNK         0.0800 
    247 H247       -0.6398  -16.3702  -51.7176 H         1 UNK         0.0800 
@<TRIPOS>BOND
     1    1    2 1    
     2    1  127 1    
     3    1  128 1    
     4    1  129 1    
     5    2    3 2    
     6    2    4 am   BACKBONE|DICT|INTERRES
     7    4    5 1    
     8    4  130 1    
     9    5    6 1    
    10    5   65 1    
    11    5  131 1    
    12    6    7 1    
    13    6  132 1    
    14    6  133 1    
    15    7    8 1    
    16    8    9 1    
    17    8  134 1    
    18    8  135 1    
    19    9   10 ar   
    20    9   14 ar   
    21   10   11 ar   
    22   10  136 1    
    23   11   12 ar   
    24   11  126 1    
    25   12   13 ar   
    26   12  137 1    
    27   13   14 ar   
    28   13   15 1    
    29   14  138 1    
    30   15   16 1    
    31   15  139 1    
    32   15  140 1    
    33   16   17 1    
    34   17   18 1    
    35   17  141 1    
    36   17  142 1    
    37   18   19 1    
    38   18   67 1    
    39   18  143 1    
    40   19   20 am   BACKBONE|DICT|INTERRES
    41   19  144 1    
    42   20   21 2    
    43   20   22 1    
    44   22   23 1    
    45   22   24 1    
    46   22  145 1    
    47   23  146 1    
    48   23  147 1    
    49   23  148 1    
    50   24   25 am   BACKBONE|DICT|INTERRES
    51   24  149 1    
    52   25   26 2    
    53   25   27 1    
    54   27   28 1    
    55   27   29 1    
    56   27  150 1    
    57   28  151 1    
    58   28  152 1    
    59   28  153 1    
    60   29   30 am   BACKBONE|DICT|INTERRES
    61   29  154 1    
    62   30   31 2    
    63   30   32 1    
    64   32   33 1    
    65   32   34 1    
    66   32  155 1    
    67   33  156 1    
    68   33  157 1    
    69   33  158 1    
    70   34   35 am   BACKBONE|DICT|INTERRES
    71   34  159 1    
    72   35   36 2    
    73   35   37 1    
    74   37   38 1    
    75   37   39 1    
    76   37  160 1    
    77   38  161 1    
    78   38  162 1    
    79   38  163 1    
    80   39   40 am   BACKBONE|DICT|INTERRES
    81   39  164 1    
    82   40   41 2    
    83   40   42 1    
    84   42   43 1    
    85   42   44 1    
    86   42  165 1    
    87   43  166 1    
    88   43  167 1    
    89   43  168 1    
    90   44   45 am   BACKBONE|DICT|INTERRES
    91   44  169 1    
    92   45   46 2    
    93   45   47 1    
    94   47   48 1    
    95   47   49 1    
    96   47  170 1    
    97   48  171 1    
    98   48  172 1    
    99   48  173 1    
   100   49   50 am   BACKBONE|DICT|INTERRES
   101   49  174 1    
   102   50   51 2    
   103   50   52 1    
   104   52   53 1    
   105   52   54 1    
   106   52  175 1    
   107   53  176 1    
   108   53  177 1    
   109   53  178 1    
   110   54   55 am   BACKBONE|DICT|INTERRES
   111   54  179 1    
   112   55   56 2    
   113   55   57 1    
   114   57   58 1    
   115   57   59 1    
   116   57  180 1    
   117   58  181 1    
   118   58  182 1    
   119   58  183 1    
   120   59   60 am   BACKBONE|DICT|INTERRES
   121   59  184 1    
   122   60   61 2    
   123   60   62 1    
   124   62   63 1    
   125   62   64 1    
   126   62  185 1    
   127   63  186 1    
   128   63  187 1    
   129   63  188 1    
   130   64   65 am   BACKBONE|DICT|INTERRES
   131   64  189 1    
   132   65   66 2    
   133   67   68 2    
   134   67   69 am   BACKBONE|DICT|INTERRES
   135   69   70 1    
   136   69  190 1    
   137   70   71 1    
   138   70   72 1    
   139   70  191 1    
   140   71  192 1    
   141   71  193 1    
   142   71  194 1    
   143   72   73 2    
   144   72   74 am   BACKBONE|DICT|INTERRES
   145   74   75 1    
   146   74  195 1    
   147   75   76 1    
   148   75   77 1    
   149   75  196 1    
   150   76  197 1    
   151   76  198 1    
   152   76  199 1    
   153   77   78 2    
   154   77   79 am   BACKBONE|DICT|INTERRES
   155   79   80 1    
   156   79  200 1    
   157   80   81 1    
   158   80   82 1    
   159   80  201 1    
   160   81  202 1    
   161   81  203 1    
   162   81  204 1    
   163   82   83 2    
   164   82   84 am   BACKBONE|DICT|INTERRES
   165   84   85 1    
   166   84  205 1    
   167   85   86 1    
   168   85   87 1    
   169   85  206 1    
   170   86  207 1    
   171   86  208 1    
   172   86  209 1    
   173   87   88 2    
   174   87   89 am   BACKBONE|DICT|INTERRES
   175   89   90 1    
   176   89  210 1    
   177   90   91 1    
   178   90   92 1    
   179   90  211 1    
   180   91  212 1    
   181   91  213 1    
   182   91  214 1    
   183   92   93 2    
   184   92   94 am   BACKBONE|DICT|INTERRES
   185   94   95 1    
   186   94  215 1    
   187   95   96 1    
   188   95   97 1    
   189   95  216 1    
   190   96  217 1    
   191   96  218 1    
   192   96  219 1    
   193   97   98 2    
   194   97   99 am   BACKBONE|DICT|INTERRES
   195   99  100 1    
   196   99  220 1    
   197  100  101 1    
   198  100  102 1    
   199  100  221 1    
   200  101  222 1    
   201  101  223 1    
   202  101  224 1    
   203  102  103 2    
   204  102  104 am   BACKBONE|DICT|INTERRES
   205  104  105 1    
   206  104  225 1    
   207  105  106 1    
   208  105  107 1    
   209  105  226 1    
   210  106  227 1    
   211  106  228 1    
   212  106  229 1    
   213  107  108 2    
   214  107  109 am   BACKBONE|DICT|INTERRES
   215  109  110 1    
   216  109  230 1    
   217  110  111 1    
   218  110  112 1    
   219  110  231 1    
   220  111  232 1    
   221  111  233 1    
   222  111  234 1    
   223  112  113 2    
   224  112  114 am   BACKBONE|DICT|INTERRES
   225  114  115 1    
   226  114  235 1    
   227  115  116 1    
   228  115  117 1    
   229  115  236 1    
   230  116  237 1    
   231  116  238 1    
   232  116  239 1    
   233  117  118 2    
   234  117  119 am   BACKBONE|DICT|INTERRES
   235  119  120 1    
   236  119  240 1    
   237  120  121 1    
   238  120  124 1    
   239  120  241 1    
   240  121  122 am   BACKBONE|DICT|INTERRES
   241  121  123 2    
   242  122  242 1    
   243  122  243 1    
   244  124  125 1    
   245  124  244 1    
   246  124  245 1    
   247  125  126 1    
   248  126  246 1    
   249  126  247 1    
@<TRIPOS>SUBSTRUCTURE
     1 UNK         1 GROUP             0       ****    0 ROOT    
