@<TRIPOS>MOLECULE
3R540
247   249    1
SMALL
USER_CHARGES


@<TRIPOS>ATOM
      1 CA          2.7977  -15.5188  -46.9717 C.3       0 UNK        -0.1800 
      2 C           2.9519  -14.7689  -48.2909 C.2       0 UNK         0.5000 
      3 O           3.8842  -15.0519  -49.0400 O.2       0 UNK        -0.5000 
      4 N           2.0820  -13.8065  -48.6230 N.am      1 UNK        -0.5000 
      5 CA          0.9370  -13.3181  -47.8400 C.3       1 UNK         0.1400 
      6 C6         -0.4185  -13.6640  -48.5106 C.3       23 UNK        -0.0398 
      7 S7         -0.7706  -15.4499  -48.4405 S.3       23 UNK        -0.2404 
      8 C8         -0.9013  -15.8990  -50.1942 C.3       23 UNK        -0.0205 
      9 C9         -1.2483  -17.3723  -50.3233 C.ar      23 UNK        -0.0193 
     10 C10        -2.5765  -17.7922  -50.2040 C.ar      23 UNK        -0.1150 
     11 C11        -2.9022  -19.1484  -50.2849 C.ar      23 UNK        -0.0193 
     12 C12        -1.8838  -20.0861  -50.4789 C.ar      23 UNK        -0.1150 
     13 C13        -0.5523  -19.6805  -50.6042 C.ar      23 UNK        -0.0193 
     14 C14        -0.2421  -18.3186  -50.5346 C.ar      23 UNK        -0.1150 
     15 C15         0.5363  -20.7238  -50.8242 C.3       23 UNK        -0.0205 
     16 S16         1.9641  -20.5727  -49.6946 S.3       23 UNK        -0.2404 
     17 C17         1.2050  -20.4289  -48.0395 C.3       23 UNK        -0.0398 
     18 CA          0.8986  -21.7930  -47.3714 C.3       11 UNK         0.1400 
     19 N           1.0311  -21.7384  -45.9131 N.am      11 UNK        -0.5000 
     20 C           0.9561  -22.7948  -45.0908 C.2       10 UNK         0.5000 
     21 O           0.8078  -23.9547  -45.4763 O.2       10 UNK        -0.5000 
     22 CA          1.0067  -22.5015  -43.5799 C.3       10 UNK         0.1400 
     23 CB          2.4500  -22.2651  -43.1111 C.3       10 UNK        -0.1800 
     24 N           0.1689  -21.3629  -43.1990 N.am      10 UNK        -0.5000 
     25 C          -1.1659  -21.3341  -43.3265 C.2       9 UNK         0.5000 
     26 O          -1.8339  -22.2807  -43.7420 O.2       9 UNK        -0.5000 
     27 CA         -1.8716  -20.0126  -42.9744 C.3       9 UNK         0.1400 
     28 CB         -2.0353  -19.8674  -41.4542 C.3       9 UNK        -0.1800 
     29 N          -1.1792  -18.8406  -43.5094 N.am      9 UNK        -0.5000 
     30 C          -0.9790  -18.6041  -44.8141 C.2       8 UNK         0.5000 
     31 O          -1.3840  -19.3364  -45.7157 O.2       8 UNK        -0.5000 
     32 CA         -0.1301  -17.3731  -45.1688 C.3       8 UNK         0.1400 
     33 CB         -0.9462  -16.0820  -45.0081 C.3       8 UNK        -0.1800 
     34 N           1.0912  -17.2858  -44.3676 N.am      8 UNK        -0.5000 
     35 C           2.0560  -18.2161  -44.3315 C.2       7 UNK         0.5000 
     36 O           2.0491  -19.2382  -45.0137 O.2       7 UNK        -0.5000 
     37 CA          3.1925  -17.9988  -43.3208 C.3       7 UNK         0.1400 
     38 CB          4.2585  -17.0474  -43.8823 C.3       7 UNK        -0.1800 
     39 N           2.6882  -17.4896  -42.0469 N.am      7 UNK        -0.5000 
     40 C           1.9533  -18.2102  -41.1878 C.2       6 UNK         0.5000 
     41 O           1.6612  -19.3942  -41.3608 O.2       6 UNK        -0.5000 
     42 CA          1.4226  -17.4652  -39.9495 C.3       6 UNK         0.1400 
     43 CB          2.5011  -17.3852  -38.8588 C.3       6 UNK        -0.1800 
     44 N           0.9517  -16.1158  -40.2694 N.am      6 UNK        -0.5000 
     45 C          -0.1256  -15.8562  -41.0232 C.2       5 UNK         0.5000 
     46 O          -0.8510  -16.7301  -41.4974 O.2       5 UNK        -0.5000 
     47 CA         -0.4226  -14.3760  -41.3310 C.3       5 UNK         0.1400 
     48 CB         -1.2792  -13.7563  -40.2173 C.3       5 UNK        -0.1800 
     49 N           0.7716  -13.5507  -41.5370 N.am      5 UNK        -0.5000 
     50 C           1.7091  -13.7598  -42.4699 C.2       4 UNK         0.5000 
     51 O           1.7001  -14.7177  -43.2443 O.2       4 UNK        -0.5000 
     52 CA          2.8144  -12.6939  -42.5730 C.3       4 UNK         0.1400 
     53 CB          4.0809  -13.2245  -43.2665 C.3       4 UNK        -0.1800 
     54 N           2.3244  -11.5382  -43.3179 N.am      4 UNK        -0.5000 
     55 C           1.5595  -10.5566  -42.8252 C.2       3 UNK         0.5000 
     56 O           1.2076  -10.5100  -41.6450 O.2       3 UNK        -0.5000 
     57 CA          1.0718   -9.4632  -43.8022 C.3       3 UNK         0.1400 
     58 CB          1.4685   -8.0523  -43.3223 C.3       3 UNK        -0.1800 
     59 N           1.4441   -9.6722  -45.2106 N.am      3 UNK        -0.5000 
     60 C           2.6535   -9.6015  -45.7844 C.2       2 UNK         0.5000 
     61 O           3.6926   -9.3634  -45.1679 O.2       2 UNK        -0.5000 
     62 CA          2.6988   -9.9104  -47.2970 C.3       2 UNK         0.1400 
     63 CB          4.0805   -9.6342  -47.9169 C.3       2 UNK        -0.1800 
     64 N           2.3311  -11.3010  -47.5773 N.am      2 UNK        -0.5000 
     65 C           1.0884  -11.8058  -47.5613 C.2       1 UNK         0.5000 
     66 O           0.0945  -11.1205  -47.3140 O.2       1 UNK        -0.5000 
     67 C          -0.4862  -22.3224  -47.7894 C.2       11 UNK         0.5000 
     68 O          -0.5623  -23.2370  -48.6086 O.2       11 UNK        -0.5000 
     69 N          -1.5509  -21.7745  -47.1855 N.am      12 UNK        -0.5000 
     70 CA         -2.9355  -22.1825  -47.4128 C.3       12 UNK         0.1400 
     71 CB         -3.8875  -21.2411  -46.6613 C.3       12 UNK        -0.1800 
     72 C          -3.2009  -23.6466  -47.0324 C.2       12 UNK         0.5000 
     73 O          -3.8671  -24.3476  -47.7931 O.2       12 UNK        -0.5000 
     74 N          -2.6468  -24.0911  -45.8959 N.am      13 UNK        -0.5000 
     75 CA         -2.7067  -25.4772  -45.4340 C.3       13 UNK         0.1400 
     76 CB         -2.1482  -25.5742  -44.0064 C.3       13 UNK        -0.1800 
     77 C          -1.9745  -26.4472  -46.3784 C.2       13 UNK         0.5000 
     78 O          -2.5262  -27.4972  -46.7088 O.2       13 UNK        -0.5000 
     79 N          -0.7685  -26.0661  -46.8243 N.am      14 UNK        -0.5000 
     80 CA          0.0448  -26.8273  -47.7757 C.3       14 UNK         0.1400 
     81 CB          1.4452  -26.2023  -47.8676 C.3       14 UNK        -0.1800 
     82 C          -0.6003  -26.9276  -49.1709 C.2       14 UNK         0.5000 
     83 O          -0.5664  -27.9952  -49.7838 O.2       14 UNK        -0.5000 
     84 N          -1.1962  -25.8217  -49.6339 N.am      15 UNK        -0.5000 
     85 CA         -1.9142  -25.7233  -50.9044 C.3       15 UNK         0.1400 
     86 CB         -2.0345  -24.2394  -51.2857 C.3       15 UNK        -0.1800 
     87 C          -3.3173  -26.3564  -50.8799 C.2       15 UNK         0.5000 
     88 O          -3.9259  -26.4846  -51.9419 O.2       15 UNK        -0.5000 
     89 N          -3.8413  -26.6611  -49.6826 N.am      16 UNK        -0.5000 
     90 CA         -5.2245  -27.0693  -49.3989 C.3       16 UNK         0.1400 
     91 CB         -5.4957  -28.4860  -49.9451 C.3       16 UNK        -0.1800 
     92 C          -6.2596  -26.0264  -49.8842 C.2       16 UNK         0.5000 
     93 O          -7.3524  -26.3893  -50.3225 O.2       16 UNK        -0.5000 
     94 N          -5.8598  -24.7464  -49.8285 N.am      17 UNK        -0.5000 
     95 CA         -6.5445  -23.5507  -50.3300 C.3       17 UNK         0.1400 
     96 CB         -7.7933  -23.2527  -49.4763 C.3       17 UNK        -0.1800 
     97 C          -6.8516  -23.5684  -51.8484 C.2       17 UNK         0.5000 
     98 O          -7.7364  -22.8347  -52.2923 O.2       17 UNK        -0.5000 
     99 N          -6.1311  -24.3941  -52.6227 N.am      18 UNK        -0.5000 
    100 CA        -6.3725  -24.6101  -54.0526 C.3       18 UNK         0.1400 
    101 CB        -6.2909  -26.1191  -54.3390 C.3       18 UNK        -0.1800 
    102 C         -5.4027  -23.8325  -54.9642 C.2       18 UNK         0.5000 
    103 O         -5.5471  -23.9077  -56.1860 O.2       18 UNK        -0.5000 
    104 N         -4.4255  -23.1204  -54.3855 N.am      19 UNK        -0.5000 
    105 CA        -3.4511  -22.3124  -55.1223 C.3       19 UNK         0.1400 
    106 CB        -2.2899  -21.9281  -54.1889 C.3       19 UNK        -0.1800 
    107 C         -4.0822  -21.0469  -55.7295 C.2       19 UNK         0.5000 
    108 O         -5.0172  -20.4849  -55.1566 O.2       19 UNK        -0.5000 
    109 N         -3.5086  -20.5742  -56.8448 N.am      20 UNK        -0.5000 
    110 CA        -3.8780  -19.3101  -57.4941 C.3       20 UNK         0.1400 
    111 CB        -3.1531  -19.2036  -58.8441 C.3       20 UNK        -0.1800 
    112 C         -3.5773  -18.0767  -56.6182 C.2       20 UNK         0.5000 
    113 O         -4.2799  -17.0692  -56.7148 O.2       20 UNK        -0.5000 
    114 N         -2.5718  -18.2050  -55.7395 N.am      21 UNK        -0.5000 
    115 CA        -2.1859  -17.2269  -54.7210 C.3       21 UNK         0.1400 
    116 CB        -0.9191  -17.7297  -54.0123 C.3       21 UNK        -0.1800 
    117 C         -3.2935  -16.9257  -53.6905 C.2       21 UNK         0.5000 
    118 O         -3.2722  -15.8520  -53.0874 O.2       21 UNK        -0.5000 
    119 N         -4.2473  -17.8532  -53.5246 N.am      22 UNK        -0.5000 
    120 CA        -5.4379  -17.6818  -52.6808 C.3       22 UNK         0.1400 
    121 C         -6.5001  -16.7028  -53.2662 C.2       22 UNK         0.5000 
    122 N         -6.4065  -16.2787  -54.5226 N.am      22 UNK        -0.7600 
    123 O         -7.4282  -16.3150  -52.5619 O.2       22 UNK        -0.5000 
    124 C124       -6.1019  -19.0348  -52.3092 C.3       23 UNK        -0.0398 
    125 S125       -4.9653  -20.3265  -51.6974 S.3       23 UNK        -0.2404 
    126 C126       -4.3456  -19.6103  -50.1458 C.3       23 UNK        -0.0205 
    127 H127        3.5663  -16.2852  -46.8718 H         1 UNK         0.0600 
    128 H128        1.8299  -16.0136  -46.9286 H         1 UNK         0.0600 
    129 H129        2.8858  -14.8414  -46.1230 H         1 UNK         0.0600 
    130 H130        2.2151  -13.3341  -49.5065 H         1 UNK         0.3000 
    131 H131        0.9305  -13.7660  -46.8463 H         1 UNK         0.0600 
    132 H132       -1.2484  -13.1708  -48.0018 H         1 UNK         0.0800 
    133 H133       -0.4415  -13.3119  -49.5430 H         1 UNK         0.0800 
    134 H134        0.0397  -15.6789  -50.7006 H         1 UNK         0.0800 
    135 H135       -1.6700  -15.2929  -50.6765 H         1 UNK         0.0800 
    136 H136       -3.3525  -17.0587  -50.0387 H         1 UNK         0.1150 
    137 H137       -2.1334  -21.1359  -50.5385 H         1 UNK         0.1150 
    138 H138        0.7859  -17.9975  -50.6263 H         1 UNK         0.1150 
    139 H139        0.1287  -21.7306  -50.7317 H         1 UNK         0.0800 
    140 H140        0.8942  -20.6379  -51.8508 H         1 UNK         0.0800 
    141 H141        0.3349  -19.7704  -48.0552 H         1 UNK         0.0800 
    142 H142        1.9477  -19.8941  -47.4493 H         1 UNK         0.0800 
    143 H143        1.6408  -22.5178  -47.7129 H         1 UNK         0.0600 
    144 H144        1.1984  -20.8194  -45.5098 H         1 UNK         0.3000 
    145 H145        0.6242  -23.3823  -43.0600 H         1 UNK         0.0600 
    146 H146        2.4952  -22.1261  -42.0308 H         1 UNK         0.0600 
    147 H147        3.0841  -23.1178  -43.3569 H         1 UNK         0.0600 
    148 H148        2.8890  -21.3841  -43.5791 H         1 UNK         0.0600 
    149 H149        0.6440  -20.5512  -42.8200 H         1 UNK         0.3000 
    150 H150       -2.8672  -20.0404  -43.4216 H         1 UNK         0.0600 
    151 H151       -2.5575  -20.7274  -41.0331 H         1 UNK         0.0600 
    152 H152       -2.6164  -18.9795  -41.2045 H         1 UNK         0.0600 
    153 H153       -1.0716  -19.7874  -40.9503 H         1 UNK         0.0600 
    154 H154       -0.8466  -18.1608  -42.8316 H         1 UNK         0.3000 
    155 H155        0.1626  -17.4691  -46.2158 H         1 UNK         0.0600 
    156 H156       -1.2978  -15.9485  -43.9868 H         1 UNK         0.0600 
    157 H157       -1.8258  -16.0969  -45.6524 H         1 UNK         0.0600 
    158 H158       -0.3576  -15.2051  -45.2766 H         1 UNK         0.0600 
    159 H159        1.2107  -16.4447  -43.8089 H         1 UNK         0.3000 
    160 H160        3.6673  -18.9649  -43.1369 H         1 UNK         0.0600 
    161 H161        3.8424  -16.0696  -44.1205 H         1 UNK         0.0600 
    162 H162        4.6916  -17.4493  -44.7990 H         1 UNK         0.0600 
    163 H163        5.0738  -16.9031  -43.1734 H         1 UNK         0.0600 
    164 H164        2.8288  -16.5077  -41.8622 H         1 UNK         0.3000 
    165 H165        0.5795  -18.0360  -39.5542 H         1 UNK         0.0600 
    166 H166        2.1094  -16.9273  -37.9504 H         1 UNK         0.0600 
    167 H167        2.8591  -18.3804  -38.5914 H         1 UNK         0.0600 
    168 H168        3.3636  -16.8023  -39.1841 H         1 UNK         0.0600 
    169 H169        1.4934  -15.3409  -39.9162 H         1 UNK         0.3000 
    170 H170       -1.0003  -14.3441  -42.2562 H         1 UNK         0.0600 
    171 H171       -2.1902  -14.3346  -40.0570 H         1 UNK         0.0600 
    172 H172       -0.7418  -13.7195  -39.2690 H         1 UNK         0.0600 
    173 H173       -1.5816  -12.7401  -40.4716 H         1 UNK         0.0600 
    174 H174        0.8318  -12.7006  -40.9911 H         1 UNK         0.3000 
    175 H175        3.0903  -12.3867  -41.5620 H         1 UNK         0.0600 
    176 H176        3.8870  -13.5224  -44.2973 H         1 UNK         0.0600 
    177 H177        4.8651  -12.4673  -43.2823 H         1 UNK         0.0600 
    178 H178        4.4798  -14.0918  -42.7393 H         1 UNK         0.0600 
    179 H179        2.5656  -11.4979  -44.2963 H         1 UNK         0.3000 
    180 H180       -0.0175   -9.5172  -43.7804 H         1 UNK         0.0600 
    181 H181        2.5498   -7.9353  -43.2481 H         1 UNK         0.0600 
    182 H182        1.0532   -7.8450  -42.3353 H         1 UNK         0.0600 
    183 H183        1.0921   -7.2846  -43.9984 H         1 UNK         0.0600 
    184 H184        0.6800   -9.9544  -45.8185 H         1 UNK         0.3000 
    185 H185        1.9795   -9.2497  -47.7858 H         1 UNK         0.0600 
    186 H186        4.3858   -8.6008  -47.7474 H         1 UNK         0.0600 
    187 H187        4.8509  -10.2792  -47.4923 H         1 UNK         0.0600 
    188 H188        4.0672   -9.7940  -48.9952 H         1 UNK         0.0600 
    189 H189        3.0951  -11.9331  -47.7693 H         1 UNK         0.3000 
    190 H190       -1.4102  -20.9991  -46.5410 H         1 UNK         0.3000 
    191 H191       -3.1306  -22.0882  -48.4816 H         1 UNK         0.0600 
    192 H192       -3.7265  -21.2832  -45.5837 H         1 UNK         0.0600 
    193 H193       -4.9288  -21.5050  -46.8505 H         1 UNK         0.0600 
    194 H194       -3.7499  -20.2068  -46.9769 H         1 UNK         0.0600 
    195 H195       -2.1538  -23.4329  -45.2991 H         1 UNK         0.3000 
    196 H196       -3.7577  -25.7724  -45.4059 H         1 UNK         0.0600 
    197 H197       -2.1908  -26.5999  -43.6382 H         1 UNK         0.0600 
    198 H198       -2.7239  -24.9569  -43.3165 H         1 UNK         0.0600 
    199 H199       -1.1088  -25.2490  -43.9562 H         1 UNK         0.0600 
    200 H200       -0.3688  -25.1979  -46.4793 H         1 UNK         0.3000 
    201 H201        0.1517  -27.8419  -47.3865 H         1 UNK         0.0600 
    202 H202        1.9418  -26.2054  -46.8972 H         1 UNK         0.0600 
    203 H203        1.4037  -25.1702  -48.2173 H         1 UNK         0.0600 
    204 H204        2.0781  -26.7595  -48.5594 H         1 UNK         0.0600 
    205 H205       -1.1130  -24.9615  -49.0960 H         1 UNK         0.3000 
    206 H206       -1.3363  -26.2334  -51.6777 H         1 UNK         0.0600 
    207 H207       -1.0532  -23.7870  -51.4264 H         1 UNK         0.0600 
    208 H208       -2.5864  -24.1215  -52.2174 H         1 UNK         0.0600 
    209 H209       -2.5626  -23.6692  -50.5205 H         1 UNK         0.0600 
    210 H210       -3.2725  -26.4734  -48.8673 H         1 UNK         0.3000 
    211 H211       -5.3142  -27.1069  -48.3123 H         1 UNK         0.0600 
    212 H212       -5.4840  -28.5092  -51.0352 H         1 UNK         0.0600 
    213 H213       -6.4711  -28.8500  -49.6207 H         1 UNK         0.0600 
    214 H214       -4.7497  -29.1950  -49.5861 H         1 UNK         0.0600 
    215 H215       -4.9749  -24.5755  -49.3581 H         1 UNK         0.3000 
    216 H216       -5.8441  -22.7297  -50.1767 H         1 UNK         0.0600 
    217 H217       -8.2255  -22.2856  -49.7357 H         1 UNK         0.0600 
    218 H218       -7.5457  -23.2199  -48.4152 H         1 UNK         0.0600 
    219 H219       -8.5676  -24.0071  -49.6179 H         1 UNK         0.0600 
    220 H220       -5.4310  -24.9909  -52.1964 H         1 UNK         0.3000 
    221 H221       -7.3814  -24.2838  -54.3130 H         1 UNK         0.0600 
    222 H222       -5.2789  -26.5016  -54.2049 H         1 UNK         0.0600 
    223 H223       -6.9529  -26.6832  -53.6815 H         1 UNK         0.0600 
    224 H224       -6.5882  -26.3392  -55.3650 H         1 UNK         0.0600 
    225 H225       -4.4145  -23.0507  -53.3797 H         1 UNK         0.3000 
    226 H226       -3.0492  -22.9188  -55.9368 H         1 UNK         0.0600 
    227 H227       -1.5900  -21.2532  -54.6830 H         1 UNK         0.0600 
    228 H228       -2.6406  -21.4278  -53.2859 H         1 UNK         0.0600 
    229 H229       -1.7184  -22.8062  -53.8918 H         1 UNK         0.0600 
    230 H230       -2.7458  -21.0879  -57.2625 H         1 UNK         0.3000 
    231 H231       -4.9537  -19.3272  -57.6815 H         1 UNK         0.0600 
    232 H232       -3.4161  -20.0338  -59.4999 H         1 UNK         0.0600 
    233 H233       -2.0694  -19.2015  -58.7211 H         1 UNK         0.0600 
    234 H234       -3.4265  -18.2832  -59.3619 H         1 UNK         0.0600 
    235 H235       -2.0562  -19.0717  -55.7416 H         1 UNK         0.3000 
    236 H236       -1.9493  -16.2913  -55.2314 H         1 UNK         0.0600 
    237 H237       -0.5703  -17.0035  -53.2772 H         1 UNK         0.0600 
    238 H238       -1.1004  -18.6679  -53.4857 H         1 UNK         0.0600 
    239 H239       -0.1049  -17.8906  -54.7189 H         1 UNK         0.0600 
    240 H240       -4.2115  -18.7111  -54.0598 H         1 UNK         0.3000 
    241 H241       -5.1035  -17.2225  -51.7499 H         1 UNK         0.0600 
    242 H242       -7.1007  -15.6430  -54.8822 H         1 UNK         0.3800 
    243 H243       -5.6496  -16.5830  -55.1224 H         1 UNK         0.3800 
    244 H244       -6.8761  -18.8830  -51.5552 H         1 UNK         0.0800 
    245 H245       -6.6125  -19.4500  -53.1799 H         1 UNK         0.0800 
    246 H246       -4.9908  -18.7943  -49.8182 H         1 UNK         0.0800 
    247 H247       -4.4073  -20.3697  -49.3689 H         1 UNK         0.0800 
@<TRIPOS>BOND
     1    1    2 1    
     2    1  127 1    
     3    1  128 1    
     4    1  129 1    
     5    2    3 2    
     6    2    4 am   BACKBONE|DICT|INTERRES
     7    4    5 1    
     8    4  130 1    
     9    5    6 1    
    10    5   65 1    
    11    5  131 1    
    12    6    7 1    
    13    6  132 1    
    14    6  133 1    
    15    7    8 1    
    16    8    9 1    
    17    8  134 1    
    18    8  135 1    
    19    9   10 ar   
    20    9   14 ar   
    21   10   11 ar   
    22   10  136 1    
    23   11   12 ar   
    24   11  126 1    
    25   12   13 ar   
    26   12  137 1    
    27   13   14 ar   
    28   13   15 1    
    29   14  138 1    
    30   15   16 1    
    31   15  139 1    
    32   15  140 1    
    33   16   17 1    
    34   17   18 1    
    35   17  141 1    
    36   17  142 1    
    37   18   19 1    
    38   18   67 1    
    39   18  143 1    
    40   19   20 am   BACKBONE|DICT|INTERRES
    41   19  144 1    
    42   20   21 2    
    43   20   22 1    
    44   22   23 1    
    45   22   24 1    
    46   22  145 1    
    47   23  146 1    
    48   23  147 1    
    49   23  148 1    
    50   24   25 am   BACKBONE|DICT|INTERRES
    51   24  149 1    
    52   25   26 2    
    53   25   27 1    
    54   27   28 1    
    55   27   29 1    
    56   27  150 1    
    57   28  151 1    
    58   28  152 1    
    59   28  153 1    
    60   29   30 am   BACKBONE|DICT|INTERRES
    61   29  154 1    
    62   30   31 2    
    63   30   32 1    
    64   32   33 1    
    65   32   34 1    
    66   32  155 1    
    67   33  156 1    
    68   33  157 1    
    69   33  158 1    
    70   34   35 am   BACKBONE|DICT|INTERRES
    71   34  159 1    
    72   35   36 2    
    73   35   37 1    
    74   37   38 1    
    75   37   39 1    
    76   37  160 1    
    77   38  161 1    
    78   38  162 1    
    79   38  163 1    
    80   39   40 am   BACKBONE|DICT|INTERRES
    81   39  164 1    
    82   40   41 2    
    83   40   42 1    
    84   42   43 1    
    85   42   44 1    
    86   42  165 1    
    87   43  166 1    
    88   43  167 1    
    89   43  168 1    
    90   44   45 am   BACKBONE|DICT|INTERRES
    91   44  169 1    
    92   45   46 2    
    93   45   47 1    
    94   47   48 1    
    95   47   49 1    
    96   47  170 1    
    97   48  171 1    
    98   48  172 1    
    99   48  173 1    
   100   49   50 am   BACKBONE|DICT|INTERRES
   101   49  174 1    
   102   50   51 2    
   103   50   52 1    
   104   52   53 1    
   105   52   54 1    
   106   52  175 1    
   107   53  176 1    
   108   53  177 1    
   109   53  178 1    
   110   54   55 am   BACKBONE|DICT|INTERRES
   111   54  179 1    
   112   55   56 2    
   113   55   57 1    
   114   57   58 1    
   115   57   59 1    
   116   57  180 1    
   117   58  181 1    
   118   58  182 1    
   119   58  183 1    
   120   59   60 am   BACKBONE|DICT|INTERRES
   121   59  184 1    
   122   60   61 2    
   123   60   62 1    
   124   62   63 1    
   125   62   64 1    
   126   62  185 1    
   127   63  186 1    
   128   63  187 1    
   129   63  188 1    
   130   64   65 am   BACKBONE|DICT|INTERRES
   131   64  189 1    
   132   65   66 2    
   133   67   68 2    
   134   67   69 am   BACKBONE|DICT|INTERRES
   135   69   70 1    
   136   69  190 1    
   137   70   71 1    
   138   70   72 1    
   139   70  191 1    
   140   71  192 1    
   141   71  193 1    
   142   71  194 1    
   143   72   73 2    
   144   72   74 am   BACKBONE|DICT|INTERRES
   145   74   75 1    
   146   74  195 1    
   147   75   76 1    
   148   75   77 1    
   149   75  196 1    
   150   76  197 1    
   151   76  198 1    
   152   76  199 1    
   153   77   78 2    
   154   77   79 am   BACKBONE|DICT|INTERRES
   155   79   80 1    
   156   79  200 1    
   157   80   81 1    
   158   80   82 1    
   159   80  201 1    
   160   81  202 1    
   161   81  203 1    
   162   81  204 1    
   163   82   83 2    
   164   82   84 am   BACKBONE|DICT|INTERRES
   165   84   85 1    
   166   84  205 1    
   167   85   86 1    
   168   85   87 1    
   169   85  206 1    
   170   86  207 1    
   171   86  208 1    
   172   86  209 1    
   173   87   88 2    
   174   87   89 am   BACKBONE|DICT|INTERRES
   175   89   90 1    
   176   89  210 1    
   177   90   91 1    
   178   90   92 1    
   179   90  211 1    
   180   91  212 1    
   181   91  213 1    
   182   91  214 1    
   183   92   93 2    
   184   92   94 am   BACKBONE|DICT|INTERRES
   185   94   95 1    
   186   94  215 1    
   187   95   96 1    
   188   95   97 1    
   189   95  216 1    
   190   96  217 1    
   191   96  218 1    
   192   96  219 1    
   193   97   98 2    
   194   97   99 am   BACKBONE|DICT|INTERRES
   195   99  100 1    
   196   99  220 1    
   197  100  101 1    
   198  100  102 1    
   199  100  221 1    
   200  101  222 1    
   201  101  223 1    
   202  101  224 1    
   203  102  103 2    
   204  102  104 am   BACKBONE|DICT|INTERRES
   205  104  105 1    
   206  104  225 1    
   207  105  106 1    
   208  105  107 1    
   209  105  226 1    
   210  106  227 1    
   211  106  228 1    
   212  106  229 1    
   213  107  108 2    
   214  107  109 am   BACKBONE|DICT|INTERRES
   215  109  110 1    
   216  109  230 1    
   217  110  111 1    
   218  110  112 1    
   219  110  231 1    
   220  111  232 1    
   221  111  233 1    
   222  111  234 1    
   223  112  113 2    
   224  112  114 am   BACKBONE|DICT|INTERRES
   225  114  115 1    
   226  114  235 1    
   227  115  116 1    
   228  115  117 1    
   229  115  236 1    
   230  116  237 1    
   231  116  238 1    
   232  116  239 1    
   233  117  118 2    
   234  117  119 am   BACKBONE|DICT|INTERRES
   235  119  120 1    
   236  119  240 1    
   237  120  121 1    
   238  120  124 1    
   239  120  241 1    
   240  121  122 am   BACKBONE|DICT|INTERRES
   241  121  123 2    
   242  122  242 1    
   243  122  243 1    
   244  124  125 1    
   245  124  244 1    
   246  124  245 1    
   247  125  126 1    
   248  126  246 1    
   249  126  247 1    
@<TRIPOS>SUBSTRUCTURE
     1 UNK         1 GROUP             0       ****    0 ROOT    
