@<TRIPOS>MOLECULE
3R540
247   249    1
SMALL
USER_CHARGES


@<TRIPOS>ATOM
      1 CA          0.6545  -13.4929  -47.4290 C.3       0 UNK        -0.1800 
      2 C           1.7763  -14.5050  -47.6119 C.2       0 UNK         0.5000 
      3 O           1.7640  -15.5525  -46.9692 O.2       0 UNK        -0.5000 
      4 N           2.7486  -14.1858  -48.4765 N.am      1 UNK        -0.5000 
      5 CA          3.9700  -14.9440  -48.7841 C.3       1 UNK         0.1400 
      6 C6          3.7296  -16.3646  -49.3638 C.3       23 UNK        -0.0398 
      7 S7          3.0620  -16.3340  -51.0603 S.3       23 UNK        -0.2404 
      8 C8          2.1686  -17.9243  -51.1213 C.3       23 UNK        -0.0205 
      9 C9          0.6593  -17.7359  -51.1766 C.ar      23 UNK        -0.0193 
     10 C10        -0.0810  -18.2871  -52.2271 C.ar      23 UNK        -0.1150 
     11 C11        -1.4688  -18.1294  -52.2764 C.ar      23 UNK        -0.0193 
     12 C12        -2.1188  -17.4201  -51.2636 C.ar      23 UNK        -0.1150 
     13 C13        -1.3925  -16.8654  -50.2076 C.ar      23 UNK        -0.0193 
     14 C14        -0.0035  -17.0251  -50.1724 C.ar      23 UNK        -0.1150 
     15 C15        -2.1122  -16.0832  -49.1184 C.3       23 UNK        -0.0205 
     16 S16        -1.6785  -16.6474  -47.4436 S.3       23 UNK        -0.2404 
     17 C17        -2.3366  -18.3469  -47.4233 C.3       23 UNK        -0.0398 
     18 CA         -1.2865  -19.4322  -47.7760 C.3       11 UNK         0.1400 
     19 N          -0.0580  -19.3533  -46.9778 N.am      11 UNK        -0.5000 
     20 C           1.0610  -20.0427  -47.2551 C.2       10 UNK         0.5000 
     21 O           1.1886  -20.7502  -48.2535 O.2       10 UNK        -0.5000 
     22 CA          2.2177  -19.9895  -46.2356 C.3       10 UNK         0.1400 
     23 CB          3.2673  -18.9585  -46.6578 C.3       10 UNK        -0.1800 
     24 N           1.7800  -19.7092  -44.8687 N.am      10 UNK        -0.5000 
     25 C           0.9939  -20.5238  -44.1496 C.2       9 UNK         0.5000 
     26 O           0.6446  -21.6384  -44.5397 O.2       9 UNK        -0.5000 
     27 CA          0.4523  -19.9948  -42.8055 C.3       9 UNK         0.1400 
     28 CB          1.1783  -20.6494  -41.6223 C.3       9 UNK        -0.1800 
     29 N           0.4902  -18.5345  -42.6666 N.am      9 UNK        -0.5000 
     30 C          -0.1779  -17.6800  -43.4549 C.2       8 UNK         0.5000 
     31 O          -0.8698  -18.0389  -44.4090 O.2       8 UNK        -0.5000 
     32 CA         -0.0481  -16.1924  -43.0866 C.3       8 UNK         0.1400 
     33 CB         -0.7420  -15.2407  -44.0816 C.3       8 UNK        -0.1800 
     34 N          -0.4928  -15.9510  -41.7106 N.am      8 UNK        -0.5000 
     35 C          -1.7317  -16.0923  -41.2146 C.2       7 UNK         0.5000 
     36 O          -2.7122  -16.4237  -41.8828 O.2       7 UNK        -0.5000 
     37 CA         -1.8915  -15.7893  -39.7105 C.3       7 UNK         0.1400 
     38 CB         -3.2269  -16.2917  -39.1209 C.3       7 UNK        -0.1800 
     39 N          -0.7516  -16.2477  -38.9098 N.am      7 UNK        -0.5000 
     40 C          -0.3525  -17.5121  -38.6963 C.2       6 UNK         0.5000 
     41 O          -0.9254  -18.4968  -39.1636 O.2       6 UNK        -0.5000 
     42 CA          0.9026  -17.7047  -37.8173 C.3       6 UNK         0.1400 
     43 CB          1.7387  -18.9190  -38.2573 C.3       6 UNK        -0.1800 
     44 N           1.7552  -16.5165  -37.8478 N.am      6 UNK        -0.5000 
     45 C           1.8356  -15.5823  -36.8908 C.2       5 UNK         0.5000 
     46 O           1.2389  -15.6520  -35.8163 O.2       5 UNK        -0.5000 
     47 CA          2.7061  -14.3437  -37.1927 C.3       5 UNK         0.1400 
     48 CB          4.0743  -14.4708  -36.5057 C.3       5 UNK        -0.1800 
     49 N           2.9162  -14.1049  -38.6239 N.am      5 UNK        -0.5000 
     50 C           1.9615  -13.7649  -39.5019 C.2       4 UNK         0.5000 
     51 O           0.7849  -13.5759  -39.1941 O.2       4 UNK        -0.5000 
     52 CA          2.3799  -13.6993  -40.9838 C.3       4 UNK         0.1400 
     53 CB          2.8625  -12.2882  -41.3482 C.3       4 UNK        -0.1800 
     54 N           3.4163  -14.6731  -41.3447 N.am      4 UNK        -0.5000 
     55 C           3.3102  -16.0054  -41.2328 C.2       3 UNK         0.5000 
     56 O           2.3039  -16.5736  -40.8016 O.2       3 UNK        -0.5000 
     57 CA          4.5409  -16.8208  -41.6761 C.3       3 UNK         0.1400 
     58 CB          4.2683  -18.3365  -41.7513 C.3       3 UNK        -0.1800 
     59 N           5.1207  -16.3354  -42.9333 N.am      3 UNK        -0.5000 
     60 C           4.5245  -16.3067  -44.1339 C.2       2 UNK         0.5000 
     61 O           3.3624  -16.6677  -44.3383 O.2       2 UNK        -0.5000 
     62 CA          5.4010  -15.8160  -45.2971 C.3       2 UNK         0.1400 
     63 CB          6.5358  -16.8206  -45.5918 C.3       2 UNK        -0.1800 
     64 N           4.5820  -15.6135  -46.4889 N.am      2 UNK        -0.5000 
     65 C           4.9616  -14.9742  -47.6006 C.2       1 UNK         0.5000 
     66 O           6.0540  -14.4173  -47.7227 O.2       1 UNK        -0.5000 
     67 C          -1.9199  -20.8287  -47.6501 C.2       11 UNK         0.5000 
     68 O          -2.2793  -21.4316  -48.6616 O.2       11 UNK        -0.5000 
     69 N          -2.0131  -21.3311  -46.4098 N.am      12 UNK        -0.5000 
     70 CA         -2.5227  -22.6632  -46.0801 C.3       12 UNK         0.1400 
     71 CB         -2.7053  -22.7836  -44.5598 C.3       12 UNK        -0.1800 
     72 C          -1.6253  -23.7882  -46.6227 C.2       12 UNK         0.5000 
     73 O          -2.1441  -24.7979  -47.0988 O.2       12 UNK        -0.5000 
     74 N          -0.3028  -23.5736  -46.5779 N.am      13 UNK        -0.5000 
     75 CA          0.7032  -24.4683  -47.1513 C.3       13 UNK         0.1400 
     76 CB          2.1011  -24.0229  -46.6982 C.3       13 UNK        -0.1800 
     77 C           0.6357  -24.5522  -48.6894 C.2       13 UNK         0.5000 
     78 O           0.9501  -25.6066  -49.2425 O.2       13 UNK        -0.5000 
     79 N           0.2287  -23.4554  -49.3464 N.am      14 UNK        -0.5000 
     80 CA         -0.0092  -23.3851  -50.7856 C.3       14 UNK         0.1400 
     81 CB         -0.0028  -21.9175  -51.2513 C.3       14 UNK        -0.1800 
     82 C          -1.2986  -24.1379  -51.1664 C.2       14 UNK         0.5000 
     83 O          -1.2091  -25.2692  -51.6459 O.2       14 UNK        -0.5000 
     84 N          -2.4660  -23.5203  -50.9347 N.am      15 UNK        -0.5000 
     85 CA         -3.7836  -24.1027  -51.2246 C.3       15 UNK         0.1400 
     86 CB         -4.0159  -24.2341  -52.7457 C.3       15 UNK        -0.1800 
     87 C          -4.9327  -23.3367  -50.5392 C.2       15 UNK         0.5000 
     88 O          -6.0478  -23.3165  -51.0612 O.2       15 UNK        -0.5000 
     89 N          -4.6529  -22.6910  -49.3978 N.am      16 UNK        -0.5000 
     90 CA         -5.5888  -21.9166  -48.5683 C.3       16 UNK         0.1400 
     91 CB         -6.6233  -22.8487  -47.9049 C.3       16 UNK        -0.1800 
     92 C          -6.2354  -20.7250  -49.3071 C.2       16 UNK         0.5000 
     93 O          -7.3681  -20.3502  -49.0010 O.2       16 UNK        -0.5000 
     94 N          -5.4950  -20.1613  -50.2737 N.am      17 UNK        -0.5000 
     95 CA         -5.8769  -19.0572  -51.1602 C.3       17 UNK         0.1400 
     96 CB         -6.0979  -17.7575  -50.3587 C.3       17 UNK        -0.1800 
     97 C          -7.0492  -19.3777  -52.1163 C.2       17 UNK         0.5000 
     98 O          -7.6415  -18.4516  -52.6731 O.2       17 UNK        -0.5000 
     99 N          -7.3528  -20.6680  -52.3290 N.am      18 UNK        -0.5000 
    100 CA        -8.3311  -21.1403  -53.3088 C.3       18 UNK         0.1400 
    101 CB        -8.7566  -22.5740  -52.9504 C.3       18 UNK        -0.1800 
    102 C         -7.7111  -21.0625  -54.7135 C.2       18 UNK         0.5000 
    103 O         -7.0100  -21.9904  -55.1191 O.2       18 UNK        -0.5000 
    104 N         -7.9186  -19.9281  -55.3958 N.am      19 UNK        -0.5000 
    105 CA        -7.2239  -19.4853  -56.6127 C.3       19 UNK         0.1400 
    106 CB        -7.8810  -18.1925  -57.1180 C.3       19 UNK        -0.1800 
    107 C         -7.1182  -20.5121  -57.7570 C.2       19 UNK         0.5000 
    108 O         -6.1105  -20.5165  -58.4648 O.2       19 UNK        -0.5000 
    109 N         -8.1255  -21.3853  -57.8916 N.am      20 UNK        -0.5000 
    110 CA        -8.1586  -22.4867  -58.8580 C.3       20 UNK         0.1400 
    111 CB        -9.5367  -23.1629  -58.7954 C.3       20 UNK        -0.1800 
    112 C         -7.0377  -23.5296  -58.6584 C.2       20 UNK         0.5000 
    113 O         -6.6102  -24.1461  -59.6355 O.2       20 UNK        -0.5000 
    114 N         -6.5804  -23.6969  -57.4111 N.am      21 UNK        -0.5000 
    115 CA        -5.4572  -24.5535  -57.0337 C.3       21 UNK         0.1400 
    116 CB        -5.8820  -25.4308  -55.8456 C.3       21 UNK        -0.1800 
    117 C         -4.2170  -23.7188  -56.6682 C.2       21 UNK         0.5000 
    118 O         -3.0986  -24.1286  -56.9810 O.2       21 UNK        -0.5000 
    119 N         -4.4345  -22.5748  -56.0068 N.am      22 UNK        -0.5000 
    120 CA        -3.3906  -21.6604  -55.5211 C.3       22 UNK         0.1400 
    121 C         -2.6460  -20.8740  -56.6384 C.2       22 UNK         0.5000 
    122 N         -3.2569  -20.6160  -57.7887 N.am      22 UNK        -0.7600 
    123 O         -1.4895  -20.5014  -56.4655 O.2       22 UNK        -0.5000 
    124 C124       -3.9574  -20.7077  -54.4321 C.3       23 UNK        -0.0398 
    125 S125       -2.8088  -20.4062  -53.0523 S.3       23 UNK        -0.2404 
    126 C126       -2.2688  -18.7134  -53.4270 C.3       23 UNK        -0.0205 
    127 H127        0.7743  -12.6293  -48.0833 H         1 UNK         0.0600 
    128 H128        0.6352  -13.1403  -46.3978 H         1 UNK         0.0600 
    129 H129       -0.3076  -13.9532  -47.6475 H         1 UNK         0.0600 
    130 H130        2.6839  -13.2988  -48.9557 H         1 UNK         0.3000 
    131 H131        4.4698  -14.3657  -49.5633 H         1 UNK         0.0600 
    132 H132        4.6617  -16.9317  -49.4014 H         1 UNK         0.0800 
    133 H133        3.0564  -16.9312  -48.7235 H         1 UNK         0.0800 
    134 H134        2.5149  -18.4721  -51.9989 H         1 UNK         0.0800 
    135 H135        2.4174  -18.5486  -50.2619 H         1 UNK         0.0800 
    136 H136        0.4193  -18.8429  -53.0077 H         1 UNK         0.1150 
    137 H137       -3.1912  -17.2952  -51.3025 H         1 UNK         0.1150 
    138 H138        0.5631  -16.6018  -49.3554 H         1 UNK         0.1150 
    139 H139       -1.8472  -15.0302  -49.2158 H         1 UNK         0.0800 
    140 H140       -3.1945  -16.1397  -49.2418 H         1 UNK         0.0800 
    141 H141       -2.7403  -18.5160  -46.4234 H         1 UNK         0.0800 
    142 H142       -3.1869  -18.4047  -48.1053 H         1 UNK         0.0800 
    143 H143       -1.0070  -19.3045  -48.8231 H         1 UNK         0.0600 
    144 H144       -0.1090  -18.7864  -46.1370 H         1 UNK         0.3000 
    145 H145        2.6990  -20.9681  -46.2317 H         1 UNK         0.0600 
    146 H146        4.1246  -18.9786  -45.9864 H         1 UNK         0.0600 
    147 H147        3.6341  -19.1578  -47.6654 H         1 UNK         0.0600 
    148 H148        2.8513  -17.9528  -46.6454 H         1 UNK         0.0600 
    149 H149        2.0151  -18.7991  -44.4949 H         1 UNK         0.3000 
    150 H150       -0.5968  -20.2933  -42.7544 H         1 UNK         0.0600 
    151 H151        1.1302  -21.7370  -41.6895 H         1 UNK         0.0600 
    152 H152        0.7167  -20.3667  -40.6766 H         1 UNK         0.0600 
    153 H153        2.2306  -20.3725  -41.5839 H         1 UNK         0.0600 
    154 H154        1.0328  -18.1575  -41.8997 H         1 UNK         0.3000 
    155 H155        1.0157  -15.9587  -43.1203 H         1 UNK         0.0600 
    156 H156       -0.6284  -14.2000  -43.7792 H         1 UNK         0.0600 
    157 H157       -1.8071  -15.4510  -44.1805 H         1 UNK         0.0600 
    158 H158       -0.2996  -15.3400  -45.0729 H         1 UNK         0.0600 
    159 H159        0.2515  -15.7716  -41.0497 H         1 UNK         0.3000 
    160 H160       -1.8931  -14.7015  -39.6279 H         1 UNK         0.0600 
    161 H161       -3.3415  -17.3702  -39.2320 H         1 UNK         0.0600 
    162 H162       -4.0746  -15.8219  -39.6208 H         1 UNK         0.0600 
    163 H163       -3.3046  -16.0527  -38.0603 H         1 UNK         0.0600 
    164 H164       -0.1887  -15.5064  -38.5125 H         1 UNK         0.3000 
    165 H165        0.5514  -17.8916  -36.8008 H         1 UNK         0.0600 
    166 H166        2.0665  -18.8246  -39.2919 H         1 UNK         0.0600 
    167 H167        2.6258  -19.0332  -37.6343 H         1 UNK         0.0600 
    168 H168        1.1659  -19.8434  -38.1751 H         1 UNK         0.0600 
    169 H169        2.2374  -16.3593  -38.7247 H         1 UNK         0.3000 
    170 H170        2.1924  -13.4740  -36.7778 H         1 UNK         0.0600 
    171 H171        3.9602  -14.6188  -35.4309 H         1 UNK         0.0600 
    172 H172        4.6428  -15.3165  -36.8948 H         1 UNK         0.0600 
    173 H173        4.6720  -13.5699  -36.6458 H         1 UNK         0.0600 
    174 H174        3.8539  -14.2441  -38.9707 H         1 UNK         0.3000 
    175 H175        1.4961  -13.9163  -41.5857 H         1 UNK         0.0600 
    176 H176        3.7685  -12.0186  -40.8040 H         1 UNK         0.0600 
    177 H177        3.0737  -12.2070  -42.4147 H         1 UNK         0.0600 
    178 H178        2.1026  -11.5421  -41.1115 H         1 UNK         0.0600 
    179 H179        4.2732  -14.2955  -41.7221 H         1 UNK         0.3000 
    180 H180        5.2975  -16.6647  -40.9060 H         1 UNK         0.0600 
    181 H181        3.4862  -18.5715  -42.4724 H         1 UNK         0.0600 
    182 H182        3.9553  -18.7262  -40.7827 H         1 UNK         0.0600 
    183 H183        5.1647  -18.8832  -42.0434 H         1 UNK         0.0600 
    184 H184        6.0777  -16.0166  -42.8706 H         1 UNK         0.3000 
    185 H185        5.8316  -14.8561  -45.0054 H         1 UNK         0.0600 
    186 H186        7.2154  -16.4456  -46.3567 H         1 UNK         0.0600 
    187 H187        7.1396  -17.0148  -44.7049 H         1 UNK         0.0600 
    188 H188        6.1460  -17.7778  -45.9371 H         1 UNK         0.0600 
    189 H189        3.6224  -15.9477  -46.4125 H         1 UNK         0.3000 
    190 H190       -1.6519  -20.7845  -45.6412 H         1 UNK         0.3000 
    191 H191       -3.5037  -22.7767  -46.5428 H         1 UNK         0.0600 
    192 H192       -3.3888  -22.0226  -44.1831 H         1 UNK         0.0600 
    193 H193       -3.1239  -23.7554  -44.2949 H         1 UNK         0.0600 
    194 H194       -1.7602  -22.6794  -44.0267 H         1 UNK         0.0600 
    195 H195        0.0379  -22.7481  -46.0954 H         1 UNK         0.3000 
    196 H196        0.5205  -25.4691  -46.7545 H         1 UNK         0.0600 
    197 H197        2.8566  -24.7471  -47.0052 H         1 UNK         0.0600 
    198 H198        2.1591  -23.9301  -45.6134 H         1 UNK         0.0600 
    199 H199        2.3749  -23.0638  -47.1361 H         1 UNK         0.0600 
    200 H200        0.0366  -22.6147  -48.8167 H         1 UNK         0.3000 
    201 H201        0.8197  -23.8842  -51.2920 H         1 UNK         0.0600 
    202 H202        0.9629  -21.4506  -51.0571 H         1 UNK         0.0600 
    203 H203       -0.7600  -21.3137  -50.7531 H         1 UNK         0.0600 
    204 H204       -0.1829  -21.8498  -52.3246 H         1 UNK         0.0600 
    205 H205       -2.4519  -22.5993  -50.5130 H         1 UNK         0.3000 
    206 H206       -3.8018  -25.1058  -50.7941 H         1 UNK         0.0600 
    207 H207       -3.2372  -24.8137  -53.2396 H         1 UNK         0.0600 
    208 H208       -4.9599  -24.7373  -52.9548 H         1 UNK         0.0600 
    209 H209       -4.0554  -23.2573  -53.2198 H         1 UNK         0.0600 
    210 H210       -3.6927  -22.6792  -49.0700 H         1 UNK         0.3000 
    211 H211       -4.9962  -21.4692  -47.7707 H         1 UNK         0.0600 
    212 H212       -7.3029  -23.2852  -48.6374 H         1 UNK         0.0600 
    213 H213       -7.2300  -22.3081  -47.1775 H         1 UNK         0.0600 
    214 H214       -6.1336  -23.6646  -47.3732 H         1 UNK         0.0600 
    215 H215       -4.5819  -20.5583  -50.4457 H         1 UNK         0.3000 
    216 H216       -5.0175  -18.8880  -51.8078 H         1 UNK         0.0600 
    217 H217       -5.2603  -17.5581  -49.6907 H         1 UNK         0.0600 
    218 H218       -7.0048  -17.8023  -49.7553 H         1 UNK         0.0600 
    219 H219       -6.1921  -16.8984  -51.0238 H         1 UNK         0.0600 
    220 H220       -6.8275  -21.3855  -51.8432 H         1 UNK         0.3000 
    221 H221       -9.2189  -20.5055  -53.2730 H         1 UNK         0.0600 
    222 H222       -9.1886  -22.6180  -51.9505 H         1 UNK         0.0600 
    223 H223       -9.5090  -22.9420  -53.6487 H         1 UNK         0.0600 
    224 H224       -7.9166  -23.2691  -52.9799 H         1 UNK         0.0600 
    225 H225       -8.4805  -19.2199  -54.9432 H         1 UNK         0.3000 
    226 H226       -6.2019  -19.2441  -56.3161 H         1 UNK         0.0600 
    227 H227       -7.3741  -17.8153  -58.0074 H         1 UNK         0.0600 
    228 H228       -8.9283  -18.3505  -57.3784 H         1 UNK         0.0600 
    229 H229       -7.8368  -17.4060  -56.3642 H         1 UNK         0.0600 
    230 H230       -8.9049  -21.3159  -57.2540 H         1 UNK         0.3000 
    231 H231       -8.0322  -22.0579  -59.8542 H         1 UNK         0.0600 
    232 H232       -9.6077  -23.9736  -59.5218 H         1 UNK         0.0600 
    233 H233      -10.3347  -22.4554  -59.0214 H         1 UNK         0.0600 
    234 H234       -9.7314  -23.5872  -57.8096 H         1 UNK         0.0600 
    235 H235       -6.9720  -23.1231  -56.6705 H         1 UNK         0.3000 
    236 H236       -5.1802  -25.2130  -57.8587 H         1 UNK         0.0600 
    237 H237       -6.2269  -24.8279  -55.0047 H         1 UNK         0.0600 
    238 H238       -5.0532  -26.0469  -55.4943 H         1 UNK         0.0600 
    239 H239       -6.6925  -26.1034  -56.1263 H         1 UNK         0.0600 
    240 H240       -5.3903  -22.3364  -55.7547 H         1 UNK         0.3000 
    241 H241       -2.6378  -22.2969  -55.0513 H         1 UNK         0.0600 
    242 H242       -2.7560  -20.1155  -58.5052 H         1 UNK         0.3800 
    243 H243       -4.2263  -20.8675  -57.9496 H         1 UNK         0.3800 
    244 H244       -4.8344  -21.1508  -53.9628 H         1 UNK         0.0800 
    245 H245       -4.3097  -19.7672  -54.8581 H         1 UNK         0.0800 
    246 H246       -3.1366  -18.0833  -53.6275 H         1 UNK         0.0800 
    247 H247       -1.6702  -18.7157  -54.3391 H         1 UNK         0.0800 
@<TRIPOS>BOND
     1    1    2 1    
     2    1  127 1    
     3    1  128 1    
     4    1  129 1    
     5    2    3 2    
     6    2    4 am   BACKBONE|DICT|INTERRES
     7    4    5 1    
     8    4  130 1    
     9    5    6 1    
    10    5   65 1    
    11    5  131 1    
    12    6    7 1    
    13    6  132 1    
    14    6  133 1    
    15    7    8 1    
    16    8    9 1    
    17    8  134 1    
    18    8  135 1    
    19    9   10 ar   
    20    9   14 ar   
    21   10   11 ar   
    22   10  136 1    
    23   11   12 ar   
    24   11  126 1    
    25   12   13 ar   
    26   12  137 1    
    27   13   14 ar   
    28   13   15 1    
    29   14  138 1    
    30   15   16 1    
    31   15  139 1    
    32   15  140 1    
    33   16   17 1    
    34   17   18 1    
    35   17  141 1    
    36   17  142 1    
    37   18   19 1    
    38   18   67 1    
    39   18  143 1    
    40   19   20 am   BACKBONE|DICT|INTERRES
    41   19  144 1    
    42   20   21 2    
    43   20   22 1    
    44   22   23 1    
    45   22   24 1    
    46   22  145 1    
    47   23  146 1    
    48   23  147 1    
    49   23  148 1    
    50   24   25 am   BACKBONE|DICT|INTERRES
    51   24  149 1    
    52   25   26 2    
    53   25   27 1    
    54   27   28 1    
    55   27   29 1    
    56   27  150 1    
    57   28  151 1    
    58   28  152 1    
    59   28  153 1    
    60   29   30 am   BACKBONE|DICT|INTERRES
    61   29  154 1    
    62   30   31 2    
    63   30   32 1    
    64   32   33 1    
    65   32   34 1    
    66   32  155 1    
    67   33  156 1    
    68   33  157 1    
    69   33  158 1    
    70   34   35 am   BACKBONE|DICT|INTERRES
    71   34  159 1    
    72   35   36 2    
    73   35   37 1    
    74   37   38 1    
    75   37   39 1    
    76   37  160 1    
    77   38  161 1    
    78   38  162 1    
    79   38  163 1    
    80   39   40 am   BACKBONE|DICT|INTERRES
    81   39  164 1    
    82   40   41 2    
    83   40   42 1    
    84   42   43 1    
    85   42   44 1    
    86   42  165 1    
    87   43  166 1    
    88   43  167 1    
    89   43  168 1    
    90   44   45 am   BACKBONE|DICT|INTERRES
    91   44  169 1    
    92   45   46 2    
    93   45   47 1    
    94   47   48 1    
    95   47   49 1    
    96   47  170 1    
    97   48  171 1    
    98   48  172 1    
    99   48  173 1    
   100   49   50 am   BACKBONE|DICT|INTERRES
   101   49  174 1    
   102   50   51 2    
   103   50   52 1    
   104   52   53 1    
   105   52   54 1    
   106   52  175 1    
   107   53  176 1    
   108   53  177 1    
   109   53  178 1    
   110   54   55 am   BACKBONE|DICT|INTERRES
   111   54  179 1    
   112   55   56 2    
   113   55   57 1    
   114   57   58 1    
   115   57   59 1    
   116   57  180 1    
   117   58  181 1    
   118   58  182 1    
   119   58  183 1    
   120   59   60 am   BACKBONE|DICT|INTERRES
   121   59  184 1    
   122   60   61 2    
   123   60   62 1    
   124   62   63 1    
   125   62   64 1    
   126   62  185 1    
   127   63  186 1    
   128   63  187 1    
   129   63  188 1    
   130   64   65 am   BACKBONE|DICT|INTERRES
   131   64  189 1    
   132   65   66 2    
   133   67   68 2    
   134   67   69 am   BACKBONE|DICT|INTERRES
   135   69   70 1    
   136   69  190 1    
   137   70   71 1    
   138   70   72 1    
   139   70  191 1    
   140   71  192 1    
   141   71  193 1    
   142   71  194 1    
   143   72   73 2    
   144   72   74 am   BACKBONE|DICT|INTERRES
   145   74   75 1    
   146   74  195 1    
   147   75   76 1    
   148   75   77 1    
   149   75  196 1    
   150   76  197 1    
   151   76  198 1    
   152   76  199 1    
   153   77   78 2    
   154   77   79 am   BACKBONE|DICT|INTERRES
   155   79   80 1    
   156   79  200 1    
   157   80   81 1    
   158   80   82 1    
   159   80  201 1    
   160   81  202 1    
   161   81  203 1    
   162   81  204 1    
   163   82   83 2    
   164   82   84 am   BACKBONE|DICT|INTERRES
   165   84   85 1    
   166   84  205 1    
   167   85   86 1    
   168   85   87 1    
   169   85  206 1    
   170   86  207 1    
   171   86  208 1    
   172   86  209 1    
   173   87   88 2    
   174   87   89 am   BACKBONE|DICT|INTERRES
   175   89   90 1    
   176   89  210 1    
   177   90   91 1    
   178   90   92 1    
   179   90  211 1    
   180   91  212 1    
   181   91  213 1    
   182   91  214 1    
   183   92   93 2    
   184   92   94 am   BACKBONE|DICT|INTERRES
   185   94   95 1    
   186   94  215 1    
   187   95   96 1    
   188   95   97 1    
   189   95  216 1    
   190   96  217 1    
   191   96  218 1    
   192   96  219 1    
   193   97   98 2    
   194   97   99 am   BACKBONE|DICT|INTERRES
   195   99  100 1    
   196   99  220 1    
   197  100  101 1    
   198  100  102 1    
   199  100  221 1    
   200  101  222 1    
   201  101  223 1    
   202  101  224 1    
   203  102  103 2    
   204  102  104 am   BACKBONE|DICT|INTERRES
   205  104  105 1    
   206  104  225 1    
   207  105  106 1    
   208  105  107 1    
   209  105  226 1    
   210  106  227 1    
   211  106  228 1    
   212  106  229 1    
   213  107  108 2    
   214  107  109 am   BACKBONE|DICT|INTERRES
   215  109  110 1    
   216  109  230 1    
   217  110  111 1    
   218  110  112 1    
   219  110  231 1    
   220  111  232 1    
   221  111  233 1    
   222  111  234 1    
   223  112  113 2    
   224  112  114 am   BACKBONE|DICT|INTERRES
   225  114  115 1    
   226  114  235 1    
   227  115  116 1    
   228  115  117 1    
   229  115  236 1    
   230  116  237 1    
   231  116  238 1    
   232  116  239 1    
   233  117  118 2    
   234  117  119 am   BACKBONE|DICT|INTERRES
   235  119  120 1    
   236  119  240 1    
   237  120  121 1    
   238  120  124 1    
   239  120  241 1    
   240  121  122 am   BACKBONE|DICT|INTERRES
   241  121  123 2    
   242  122  242 1    
   243  122  243 1    
   244  124  125 1    
   245  124  244 1    
   246  124  245 1    
   247  125  126 1    
   248  126  246 1    
   249  126  247 1    
@<TRIPOS>SUBSTRUCTURE
     1 UNK         1 GROUP             0       ****    0 ROOT    
