@<TRIPOS>MOLECULE
3R540
247   249    1
SMALL
USER_CHARGES


@<TRIPOS>ATOM
      1 CA         -1.7592  -11.6332  -52.5861 C.3       0 UNK        -0.1800 
      2 C          -0.8061  -11.7859  -51.4095 C.2       0 UNK         0.5000 
      3 O          -0.7853  -10.9204  -50.5352 O.2       0 UNK        -0.5000 
      4 N          -0.0406  -12.8853  -51.4004 N.am      1 UNK        -0.5000 
      5 CA          0.9346  -13.3970  -50.4226 C.3       1 UNK         0.1400 
      6 C6          0.2941  -14.1478  -49.2259 C.3       23 UNK        -0.0398 
      7 S7         -0.6039  -13.1283  -48.0017 S.3       23 UNK        -0.2404 
      8 C8         -2.3548  -13.3440  -48.4712 C.3       23 UNK        -0.0205 
      9 C9         -2.7991  -14.7982  -48.4456 C.ar      23 UNK        -0.0193 
     10 C10        -3.0275  -15.4851  -49.6423 C.ar      23 UNK        -0.1150 
     11 C11        -3.4081  -16.8296  -49.6262 C.ar      23 UNK        -0.0193 
     12 C12        -3.5724  -17.4834  -48.4023 C.ar      23 UNK        -0.1150 
     13 C13        -3.3456  -16.8063  -47.2012 C.ar      23 UNK        -0.0193 
     14 C14        -2.9700  -15.4606  -47.2275 C.ar      23 UNK        -0.1150 
     15 C15        -3.4569  -17.5438  -45.8800 C.3       23 UNK        -0.0205 
     16 S16        -1.8049  -18.0601  -45.3296 S.3       23 UNK        -0.2404 
     17 C17        -2.1777  -19.5801  -44.3975 C.3       23 UNK        -0.0398 
     18 CA         -2.2416  -20.8188  -45.3232 C.3       11 UNK         0.1400 
     19 N          -1.0441  -20.9808  -46.1504 N.am      11 UNK        -0.5000 
     20 C          -0.9825  -21.7047  -47.2749 C.2       10 UNK         0.5000 
     21 O          -1.9350  -22.3257  -47.7464 O.2       10 UNK        -0.5000 
     22 CA          0.3832  -21.7683  -47.9795 C.3       10 UNK         0.1400 
     23 CB          0.5325  -20.5972  -48.9598 C.3       10 UNK        -0.1800 
     24 N           1.5052  -21.7750  -47.0379 N.am      10 UNK        -0.5000 
     25 C           1.7693  -22.7903  -46.2033 C.2       9 UNK         0.5000 
     26 O           1.1018  -23.8219  -46.1520 O.2       9 UNK        -0.5000 
     27 CA          2.9479  -22.6067  -45.2323 C.3       9 UNK         0.1400 
     28 CB          4.2769  -22.9419  -45.9255 C.3       9 UNK        -0.1800 
     29 N           3.0304  -21.2687  -44.6400 N.am      9 UNK        -0.5000 
     30 C           2.0797  -20.7054  -43.8832 C.2       8 UNK         0.5000 
     31 O           0.9644  -21.1989  -43.6976 O.2       8 UNK        -0.5000 
     32 CA          2.4289  -19.3547  -43.2367 C.3       8 UNK         0.1400 
     33 CB          1.8131  -18.1959  -44.0296 C.3       8 UNK        -0.1800 
     34 N           1.9513  -19.3064  -41.8558 N.am      8 UNK        -0.5000 
     35 C           2.5252  -19.9693  -40.8412 C.2       7 UNK         0.5000 
     36 O           3.5609  -20.6259  -40.9679 O.2       7 UNK        -0.5000 
     37 CA          1.8263  -19.9087  -39.4637 C.3       7 UNK         0.1400 
     38 CB          2.8144  -20.0493  -38.2863 C.3       7 UNK        -0.1800 
     39 N           0.9600  -18.7388  -39.2798 N.am      7 UNK        -0.5000 
     40 C           1.3214  -17.4479  -39.2722 C.2       6 UNK         0.5000 
     41 O           2.4778  -17.0443  -39.4087 O.2       6 UNK        -0.5000 
     42 CA          0.1709  -16.4356  -39.1141 C.3       6 UNK         0.1400 
     43 CB          0.5085  -15.3613  -38.0666 C.3       6 UNK        -0.1800 
     44 N          -0.1696  -15.7755  -40.3740 N.am      6 UNK        -0.5000 
     45 C          -0.5396  -16.3729  -41.5166 C.2       5 UNK         0.5000 
     46 O          -0.6317  -17.5937  -41.6549 O.2       5 UNK        -0.5000 
     47 CA         -0.8897  -15.4492  -42.7004 C.3       5 UNK         0.1400 
     48 CB         -2.4147  -15.3443  -42.8573 C.3       5 UNK        -0.1800 
     49 N          -0.3366  -14.0974  -42.5703 N.am      5 UNK        -0.5000 
     50 C           0.9475  -13.7857  -42.7813 C.2       4 UNK         0.5000 
     51 O           1.8098  -14.6067  -43.1004 O.2       4 UNK        -0.5000 
     52 CA          1.3420  -12.3126  -42.5687 C.3       4 UNK         0.1400 
     53 CB          1.9258  -12.1105  -41.1615 C.3       4 UNK        -0.1800 
     54 N           2.3305  -11.8982  -43.5635 N.am      4 UNK        -0.5000 
     55 C           2.0400  -11.6657  -44.8486 C.2       3 UNK         0.5000 
     56 O           0.8888  -11.6202  -45.2900 O.2       3 UNK        -0.5000 
     57 CA          3.2339  -11.4659  -45.7941 C.3       3 UNK         0.1400 
     58 CB          4.0459  -12.7672  -45.9479 C.3       3 UNK        -0.1800 
     59 N           2.7439  -11.0425  -47.1015 N.am      3 UNK        -0.5000 
     60 C           3.4495  -10.3860  -48.0285 C.2       2 UNK         0.5000 
     61 O           4.6135  -10.0171  -47.8578 O.2       2 UNK        -0.5000 
     62 CA          2.7311  -10.1012  -49.3673 C.3       2 UNK         0.1400 
     63 CB          3.7073   -9.7611  -50.5127 C.3       2 UNK        -0.1800 
     64 N           1.8138  -11.1705  -49.7797 N.am      2 UNK        -0.5000 
     65 C           2.0935  -12.4614  -50.0005 C.2       1 UNK         0.5000 
     66 O           3.2244  -12.9385  -49.8927 O.2       1 UNK        -0.5000 
     67 C          -2.5248  -22.1015  -44.5234 C.2       11 UNK         0.5000 
     68 O          -3.6717  -22.5470  -44.4814 O.2       11 UNK        -0.5000 
     69 N          -1.4674  -22.7124  -43.9678 N.am      12 UNK        -0.5000 
     70 CA         -1.5032  -24.0187  -43.3043 C.3       12 UNK         0.1400 
     71 CB         -0.1297  -24.3064  -42.6799 C.3       12 UNK        -0.1800 
     72 C          -1.9241  -25.1584  -44.2541 C.2       12 UNK         0.5000 
     73 O          -2.6226  -26.0796  -43.8314 O.2       12 UNK        -0.5000 
     74 N          -1.5378  -25.0415  -45.5313 N.am      13 UNK        -0.5000 
     75 CA         -1.9444  -25.9143  -46.6319 C.3       13 UNK         0.1400 
     76 CB         -0.8729  -25.8533  -47.7340 C.3       13 UNK        -0.1800 
     77 C          -3.3416  -25.5889  -47.2043 C.2       13 UNK         0.5000 
     78 O          -3.7087  -26.1832  -48.2163 O.2       13 UNK        -0.5000 
     79 N          -4.0921  -24.6660  -46.5820 N.am      14 UNK        -0.5000 
     80 CA         -5.4458  -24.2326  -46.9461 C.3       14 UNK         0.1400 
     81 CB         -6.4572  -25.3866  -46.7797 C.3       14 UNK        -0.1800 
     82 C          -5.4937  -23.5845  -48.3433 C.2       14 UNK         0.5000 
     83 O          -6.1630  -24.0902  -49.2454 O.2       14 UNK        -0.5000 
     84 N          -4.7417  -22.4859  -48.4930 N.am      15 UNK        -0.5000 
     85 CA         -4.5396  -21.7095  -49.7209 C.3       15 UNK         0.1400 
     86 CB         -5.8474  -21.0342  -50.1836 C.3       15 UNK        -0.1800 
     87 C          -3.8646  -22.5510  -50.8197 C.2       15 UNK         0.5000 
     88 O          -4.3287  -22.5758  -51.9619 O.2       15 UNK        -0.5000 
     89 N          -2.7878  -23.2463  -50.4242 N.am      16 UNK        -0.5000 
     90 CA         -1.9699  -24.1466  -51.2416 C.3       16 UNK         0.1400 
     91 CB         -1.1729  -23.3352  -52.2860 C.3       16 UNK        -0.1800 
     92 C          -2.8055  -25.2835  -51.8681 C.2       16 UNK         0.5000 
     93 O          -2.8453  -25.4199  -53.0907 O.2       16 UNK        -0.5000 
     94 N          -3.4993  -26.0497  -51.0134 N.am      17 UNK        -0.5000 
     95 CA         -4.4300  -27.1333  -51.3524 C.3       17 UNK         0.1400 
     96 CB         -3.6816  -28.3229  -51.9895 C.3       17 UNK        -0.1800 
     97 C          -5.6250  -26.6409  -52.1952 C.2       17 UNK         0.5000 
     98 O          -6.0389  -27.3120  -53.1422 O.2       17 UNK        -0.5000 
     99 N          -6.1345  -25.4533  -51.8376 N.am      18 UNK        -0.5000 
    100 CA        -7.2165  -24.7011  -52.4780 C.3       18 UNK         0.1400 
    101 CB        -8.5536  -25.4617  -52.3617 C.3       18 UNK        -0.1800 
    102 C         -6.9192  -24.2437  -53.9237 C.2       18 UNK         0.5000 
    103 O         -7.8462  -23.8361  -54.6263 O.2       18 UNK        -0.5000 
    104 N         -5.6480  -24.2886  -54.3501 N.am      19 UNK        -0.5000 
    105 CA        -5.2081  -23.8183  -55.6651 C.3       19 UNK         0.1400 
    106 CB        -3.8441  -24.4384  -56.0028 C.3       19 UNK        -0.1800 
    107 C         -5.1248  -22.2836  -55.7453 C.2       19 UNK         0.5000 
    108 O         -5.2203  -21.7352  -56.8438 O.2       19 UNK        -0.5000 
    109 N         -4.9324  -21.6274  -54.5895 N.am      20 UNK        -0.5000 
    110 CA        -4.7733  -20.1827  -54.4030 C.3       20 UNK         0.1400 
    111 CB        -6.0712  -19.4295  -54.7580 C.3       20 UNK        -0.1800 
    112 C         -3.5264  -19.6145  -55.1117 C.2       20 UNK         0.5000 
    113 O         -3.5210  -18.4507  -55.5166 O.2       20 UNK        -0.5000 
    114 N         -2.4681  -20.4351  -55.2113 N.am      21 UNK        -0.5000 
    115 CA        -1.1640  -20.0877  -55.7932 C.3       21 UNK         0.1400 
    116 CB        -0.2833  -21.3462  -55.8180 C.3       21 UNK        -0.1800 
    117 C         -0.4478  -18.9372  -55.0541 C.2       21 UNK         0.5000 
    118 O          0.3625  -18.2273  -55.6502 O.2       21 UNK        -0.5000 
    119 N         -0.8010  -18.7652  -53.7773 N.am      22 UNK        -0.5000 
    120 CA        -0.5063  -17.6138  -52.9179 C.3       22 UNK         0.1400 
    121 C         -1.1461  -16.2649  -53.3656 C.2       22 UNK         0.5000 
    122 N         -2.1301  -16.2405  -54.2566 N.am      22 UNK        -0.7600 
    123 O         -0.7274  -15.2102  -52.8984 O.2       22 UNK        -0.5000 
    124 C124       -0.8406  -17.9355  -51.4341 C.3       23 UNK        -0.0398 
    125 S125       -2.3919  -18.8866  -51.1900 S.3       23 UNK        -0.2404 
    126 C126       -3.6325  -17.5804  -50.9288 C.3       23 UNK        -0.0205 
    127 H127       -1.6810  -12.4684  -53.2829 H         1 UNK         0.0600 
    128 H128       -1.5403  -10.7143  -53.1299 H         1 UNK         0.0600 
    129 H129       -2.7881  -11.5840  -52.2298 H         1 UNK         0.0600 
    130 H130       -0.1991  -13.5486  -52.1561 H         1 UNK         0.3000 
    131 H131        1.4367  -14.1760  -50.9992 H         1 UNK         0.0600 
    132 H132       -0.3621  -14.9270  -49.6079 H         1 UNK         0.0800 
    133 H133        1.0707  -14.6864  -48.6802 H         1 UNK         0.0800 
    134 H134       -2.5266  -12.9102  -49.4556 H         1 UNK         0.0800 
    135 H135       -2.9730  -12.7702  -47.7797 H         1 UNK         0.0800 
    136 H136       -2.8890  -14.9778  -50.5872 H         1 UNK         0.1150 
    137 H137       -3.8508  -18.5278  -48.3882 H         1 UNK         0.1150 
    138 H138       -2.7778  -14.9375  -46.3013 H         1 UNK         0.1150 
    139 H139       -3.9153  -16.9040  -45.1251 H         1 UNK         0.0800 
    140 H140       -4.1086  -18.4115  -45.9904 H         1 UNK         0.0800 
    141 H141       -3.1162  -19.4472  -43.8563 H         1 UNK         0.0800 
    142 H142       -1.4028  -19.7034  -43.6385 H         1 UNK         0.0800 
    143 H143       -3.0871  -20.6745  -45.9994 H         1 UNK         0.0600 
    144 H144       -0.2063  -20.5296  -45.8143 H         1 UNK         0.3000 
    145 H145        0.4169  -22.6959  -48.5547 H         1 UNK         0.0600 
    146 H146        0.4957  -19.6335  -48.4499 H         1 UNK         0.0600 
    147 H147        1.4735  -20.6553  -49.5068 H         1 UNK         0.0600 
    148 H148       -0.2716  -20.6110  -49.6965 H         1 UNK         0.0600 
    149 H149        2.0971  -20.9578  -47.0147 H         1 UNK         0.3000 
    150 H150        2.8065  -23.3157  -44.4139 H         1 UNK         0.0600 
    151 H151        4.2486  -23.9415  -46.3616 H         1 UNK         0.0600 
    152 H152        5.1067  -22.9217  -45.2187 H         1 UNK         0.0600 
    153 H153        4.5021  -22.2394  -46.7288 H         1 UNK         0.0600 
    154 H154        3.9118  -20.7883  -44.7499 H         1 UNK         0.3000 
    155 H155        3.5136  -19.2286  -43.2354 H         1 UNK         0.0600 
    156 H156        2.1297  -18.2153  -45.0730 H         1 UNK         0.0600 
    157 H157        2.1146  -17.2346  -43.6146 H         1 UNK         0.0600 
    158 H158        0.7259  -18.2386  -44.0124 H         1 UNK         0.0600 
    159 H159        1.0802  -18.8137  -41.6921 H         1 UNK         0.3000 
    160 H160        1.1640  -20.7751  -39.4354 H         1 UNK         0.0600 
    161 H161        2.2948  -20.0161  -37.3287 H         1 UNK         0.0600 
    162 H162        3.5640  -19.2577  -38.2894 H         1 UNK         0.0600 
    163 H163        3.3455  -21.0008  -38.3310 H         1 UNK         0.0600 
    164 H164       -0.0269  -18.9473  -39.2147 H         1 UNK         0.3000 
    165 H165       -0.7182  -16.9678  -38.7699 H         1 UNK         0.0600 
    166 H166        1.3498  -14.7415  -38.3800 H         1 UNK         0.0600 
    167 H167       -0.3426  -14.7043  -37.8860 H         1 UNK         0.0600 
    168 H168        0.7742  -15.8172  -37.1121 H         1 UNK         0.0600 
    169 H169       -0.1085  -14.7692  -40.3766 H         1 UNK         0.3000 
    170 H170       -0.4830  -15.9076  -43.6042 H         1 UNK         0.0600 
    171 H171       -2.8747  -14.8434  -42.0048 H         1 UNK         0.0600 
    172 H172       -2.6808  -14.7916  -43.7582 H         1 UNK         0.0600 
    173 H173       -2.8683  -16.3329  -42.9374 H         1 UNK         0.0600 
    174 H174       -0.9869  -13.3674  -42.3163 H         1 UNK         0.3000 
    175 H175        0.4545  -11.6839  -42.6696 H         1 UNK         0.0600 
    176 H176        2.8159  -12.7208  -41.0024 H         1 UNK         0.0600 
    177 H177        2.1986  -11.0685  -40.9934 H         1 UNK         0.0600 
    178 H178        1.2004  -12.3833  -40.3940 H         1 UNK         0.0600 
    179 H179        3.2983  -11.9552  -43.2819 H         1 UNK         0.3000 
    180 H180        3.8680  -10.6825  -45.3737 H         1 UNK         0.0600 
    181 H181        3.4344  -13.5710  -46.3604 H         1 UNK         0.0600 
    182 H182        4.4357  -13.1099  -44.9890 H         1 UNK         0.0600 
    183 H183        4.9006  -12.6266  -46.6098 H         1 UNK         0.0600 
    184 H184        1.7733  -11.2742  -47.2778 H         1 UNK         0.3000 
    185 H185        2.1101   -9.2216  -49.1934 H         1 UNK         0.0600 
    186 H186        4.3998  -10.5799  -50.7101 H         1 UNK         0.0600 
    187 H187        3.1705   -9.5458  -51.4366 H         1 UNK         0.0600 
    188 H188        4.3024   -8.8794  -50.2725 H         1 UNK         0.0600 
    189 H189        0.8394  -10.8976  -49.9116 H         1 UNK         0.3000 
    190 H190       -0.5600  -22.2539  -44.0143 H         1 UNK         0.3000 
    191 H191       -2.2413  -23.9650  -42.5014 H         1 UNK         0.0600 
    192 H192        0.6524  -24.3608  -43.4377 H         1 UNK         0.0600 
    193 H193        0.1502  -23.5302  -41.9673 H         1 UNK         0.0600 
    194 H194       -0.1351  -25.2560  -42.1436 H         1 UNK         0.0600 
    195 H195       -0.8988  -24.2920  -45.7717 H         1 UNK         0.3000 
    196 H196       -1.9862  -26.9413  -46.2641 H         1 UNK         0.0600 
    197 H197        0.1041  -26.1439  -47.3477 H         1 UNK         0.0600 
    198 H198       -0.7825  -24.8494  -48.1476 H         1 UNK         0.0600 
    199 H199       -1.1062  -26.5308  -48.5563 H         1 UNK         0.0600 
    200 H200       -3.6973  -24.1953  -45.7766 H         1 UNK         0.3000 
    201 H201       -5.7225  -23.4541  -46.2336 H         1 UNK         0.0600 
    202 H202       -7.4754  -25.0374  -46.9549 H         1 UNK         0.0600 
    203 H203       -6.4233  -25.7966  -45.7704 H         1 UNK         0.0600 
    204 H204       -6.2696  -26.2018  -47.4790 H         1 UNK         0.0600 
    205 H205       -4.1296  -22.2328  -47.7279 H         1 UNK         0.3000 
    206 H206       -3.8340  -20.9177  -49.4670 H         1 UNK         0.0600 
    207 H207       -6.5982  -21.7627  -50.4896 H         1 UNK         0.0600 
    208 H208       -5.6655  -20.3786  -51.0356 H         1 UNK         0.0600 
    209 H209       -6.2759  -20.4224  -49.3900 H         1 UNK         0.0600 
    210 H210       -2.5038  -23.1387  -49.4550 H         1 UNK         0.3000 
    211 H211       -1.2515  -24.6192  -50.5712 H         1 UNK         0.0600 
    212 H212       -0.5713  -22.5617  -51.8083 H         1 UNK         0.0600 
    213 H213       -0.4921  -23.9794  -52.8434 H         1 UNK         0.0600 
    214 H214       -1.8274  -22.8491  -53.0099 H         1 UNK         0.0600 
    215 H215       -3.4385  -25.8614  -50.0150 H         1 UNK         0.3000 
    216 H216       -4.8509  -27.4796  -50.4075 H         1 UNK         0.0600 
    217 H217       -4.3463  -29.1778  -52.1181 H         1 UNK         0.0600 
    218 H218       -3.2795  -28.0721  -52.9715 H         1 UNK         0.0600 
    219 H219       -2.8533  -28.6487  -51.3604 H         1 UNK         0.0600 
    220 H220       -5.7486  -24.9993  -51.0153 H         1 UNK         0.3000 
    221 H221       -7.3130  -23.7832  -51.8969 H         1 UNK         0.0600 
    222 H222       -8.5618  -26.3637  -52.9740 H         1 UNK         0.0600 
    223 H223       -8.7515  -25.7531  -51.3300 H         1 UNK         0.0600 
    224 H224       -9.3887  -24.8400  -52.6861 H         1 UNK         0.0600 
    225 H225       -4.9292  -24.6226  -53.7195 H         1 UNK         0.3000 
    226 H226       -5.9275  -24.1558  -56.4142 H         1 UNK         0.0600 
    227 H227       -3.8700  -25.5251  -55.9188 H         1 UNK         0.0600 
    228 H228       -3.5496  -24.1966  -57.0247 H         1 UNK         0.0600 
    229 H229       -3.0589  -24.0683  -55.3428 H         1 UNK         0.0600 
    230 H230       -4.8393  -22.1762  -53.7366 H         1 UNK         0.3000 
    231 H231       -4.5969  -20.0383  -53.3363 H         1 UNK         0.0600 
    232 H232       -6.0034  -18.3789  -54.4733 H         1 UNK         0.0600 
    233 H233       -6.9273  -19.8522  -54.2321 H         1 UNK         0.0600 
    234 H234       -6.2820  -19.4649  -55.8271 H         1 UNK         0.0600 
    235 H235       -2.5669  -21.3742  -54.8554 H         1 UNK         0.3000 
    236 H236       -1.3339  -19.7622  -56.8214 H         1 UNK         0.0600 
    237 H237       -0.7502  -22.1443  -56.3956 H         1 UNK         0.0600 
    238 H238        0.6838  -21.1371  -56.2771 H         1 UNK         0.0600 
    239 H239       -0.0942  -21.7249  -54.8127 H         1 UNK         0.0600 
    240 H240       -1.4706  -19.4124  -53.3881 H         1 UNK         0.3000 
    241 H241        0.5709  -17.4487  -52.9792 H         1 UNK         0.0600 
    242 H242       -2.5133  -15.3520  -54.5344 H         1 UNK         0.3800 
    243 H243       -2.5027  -17.0904  -54.6697 H         1 UNK         0.3800 
    244 H244       -0.0354  -18.5486  -51.0297 H         1 UNK         0.0800 
    245 H245       -0.8451  -17.0387  -50.8135 H         1 UNK         0.0800 
    246 H246       -4.6230  -18.0363  -50.9071 H         1 UNK         0.0800 
    247 H247       -3.6306  -16.8997  -51.7809 H         1 UNK         0.0800 
@<TRIPOS>BOND
     1    1    2 1    
     2    1  127 1    
     3    1  128 1    
     4    1  129 1    
     5    2    3 2    
     6    2    4 am   BACKBONE|DICT|INTERRES
     7    4    5 1    
     8    4  130 1    
     9    5    6 1    
    10    5   65 1    
    11    5  131 1    
    12    6    7 1    
    13    6  132 1    
    14    6  133 1    
    15    7    8 1    
    16    8    9 1    
    17    8  134 1    
    18    8  135 1    
    19    9   10 ar   
    20    9   14 ar   
    21   10   11 ar   
    22   10  136 1    
    23   11   12 ar   
    24   11  126 1    
    25   12   13 ar   
    26   12  137 1    
    27   13   14 ar   
    28   13   15 1    
    29   14  138 1    
    30   15   16 1    
    31   15  139 1    
    32   15  140 1    
    33   16   17 1    
    34   17   18 1    
    35   17  141 1    
    36   17  142 1    
    37   18   19 1    
    38   18   67 1    
    39   18  143 1    
    40   19   20 am   BACKBONE|DICT|INTERRES
    41   19  144 1    
    42   20   21 2    
    43   20   22 1    
    44   22   23 1    
    45   22   24 1    
    46   22  145 1    
    47   23  146 1    
    48   23  147 1    
    49   23  148 1    
    50   24   25 am   BACKBONE|DICT|INTERRES
    51   24  149 1    
    52   25   26 2    
    53   25   27 1    
    54   27   28 1    
    55   27   29 1    
    56   27  150 1    
    57   28  151 1    
    58   28  152 1    
    59   28  153 1    
    60   29   30 am   BACKBONE|DICT|INTERRES
    61   29  154 1    
    62   30   31 2    
    63   30   32 1    
    64   32   33 1    
    65   32   34 1    
    66   32  155 1    
    67   33  156 1    
    68   33  157 1    
    69   33  158 1    
    70   34   35 am   BACKBONE|DICT|INTERRES
    71   34  159 1    
    72   35   36 2    
    73   35   37 1    
    74   37   38 1    
    75   37   39 1    
    76   37  160 1    
    77   38  161 1    
    78   38  162 1    
    79   38  163 1    
    80   39   40 am   BACKBONE|DICT|INTERRES
    81   39  164 1    
    82   40   41 2    
    83   40   42 1    
    84   42   43 1    
    85   42   44 1    
    86   42  165 1    
    87   43  166 1    
    88   43  167 1    
    89   43  168 1    
    90   44   45 am   BACKBONE|DICT|INTERRES
    91   44  169 1    
    92   45   46 2    
    93   45   47 1    
    94   47   48 1    
    95   47   49 1    
    96   47  170 1    
    97   48  171 1    
    98   48  172 1    
    99   48  173 1    
   100   49   50 am   BACKBONE|DICT|INTERRES
   101   49  174 1    
   102   50   51 2    
   103   50   52 1    
   104   52   53 1    
   105   52   54 1    
   106   52  175 1    
   107   53  176 1    
   108   53  177 1    
   109   53  178 1    
   110   54   55 am   BACKBONE|DICT|INTERRES
   111   54  179 1    
   112   55   56 2    
   113   55   57 1    
   114   57   58 1    
   115   57   59 1    
   116   57  180 1    
   117   58  181 1    
   118   58  182 1    
   119   58  183 1    
   120   59   60 am   BACKBONE|DICT|INTERRES
   121   59  184 1    
   122   60   61 2    
   123   60   62 1    
   124   62   63 1    
   125   62   64 1    
   126   62  185 1    
   127   63  186 1    
   128   63  187 1    
   129   63  188 1    
   130   64   65 am   BACKBONE|DICT|INTERRES
   131   64  189 1    
   132   65   66 2    
   133   67   68 2    
   134   67   69 am   BACKBONE|DICT|INTERRES
   135   69   70 1    
   136   69  190 1    
   137   70   71 1    
   138   70   72 1    
   139   70  191 1    
   140   71  192 1    
   141   71  193 1    
   142   71  194 1    
   143   72   73 2    
   144   72   74 am   BACKBONE|DICT|INTERRES
   145   74   75 1    
   146   74  195 1    
   147   75   76 1    
   148   75   77 1    
   149   75  196 1    
   150   76  197 1    
   151   76  198 1    
   152   76  199 1    
   153   77   78 2    
   154   77   79 am   BACKBONE|DICT|INTERRES
   155   79   80 1    
   156   79  200 1    
   157   80   81 1    
   158   80   82 1    
   159   80  201 1    
   160   81  202 1    
   161   81  203 1    
   162   81  204 1    
   163   82   83 2    
   164   82   84 am   BACKBONE|DICT|INTERRES
   165   84   85 1    
   166   84  205 1    
   167   85   86 1    
   168   85   87 1    
   169   85  206 1    
   170   86  207 1    
   171   86  208 1    
   172   86  209 1    
   173   87   88 2    
   174   87   89 am   BACKBONE|DICT|INTERRES
   175   89   90 1    
   176   89  210 1    
   177   90   91 1    
   178   90   92 1    
   179   90  211 1    
   180   91  212 1    
   181   91  213 1    
   182   91  214 1    
   183   92   93 2    
   184   92   94 am   BACKBONE|DICT|INTERRES
   185   94   95 1    
   186   94  215 1    
   187   95   96 1    
   188   95   97 1    
   189   95  216 1    
   190   96  217 1    
   191   96  218 1    
   192   96  219 1    
   193   97   98 2    
   194   97   99 am   BACKBONE|DICT|INTERRES
   195   99  100 1    
   196   99  220 1    
   197  100  101 1    
   198  100  102 1    
   199  100  221 1    
   200  101  222 1    
   201  101  223 1    
   202  101  224 1    
   203  102  103 2    
   204  102  104 am   BACKBONE|DICT|INTERRES
   205  104  105 1    
   206  104  225 1    
   207  105  106 1    
   208  105  107 1    
   209  105  226 1    
   210  106  227 1    
   211  106  228 1    
   212  106  229 1    
   213  107  108 2    
   214  107  109 am   BACKBONE|DICT|INTERRES
   215  109  110 1    
   216  109  230 1    
   217  110  111 1    
   218  110  112 1    
   219  110  231 1    
   220  111  232 1    
   221  111  233 1    
   222  111  234 1    
   223  112  113 2    
   224  112  114 am   BACKBONE|DICT|INTERRES
   225  114  115 1    
   226  114  235 1    
   227  115  116 1    
   228  115  117 1    
   229  115  236 1    
   230  116  237 1    
   231  116  238 1    
   232  116  239 1    
   233  117  118 2    
   234  117  119 am   BACKBONE|DICT|INTERRES
   235  119  120 1    
   236  119  240 1    
   237  120  121 1    
   238  120  124 1    
   239  120  241 1    
   240  121  122 am   BACKBONE|DICT|INTERRES
   241  121  123 2    
   242  122  242 1    
   243  122  243 1    
   244  124  125 1    
   245  124  244 1    
   246  124  245 1    
   247  125  126 1    
   248  126  246 1    
   249  126  247 1    
@<TRIPOS>SUBSTRUCTURE
     1 UNK         1 GROUP             0       ****    0 ROOT    
