@<TRIPOS>MOLECULE
3R540
247   249    1
SMALL
USER_CHARGES


@<TRIPOS>ATOM
      1 CA         -0.1665  -16.5704  -51.0070 C.3       0 UNK        -0.1800 
      2 C           0.6256  -15.7399  -50.0124 C.2       0 UNK         0.5000 
      3 O           1.6375  -16.2083  -49.4924 O.2       0 UNK        -0.5000 
      4 N           0.1887  -14.4983  -49.7634 N.am      1 UNK        -0.5000 
      5 CA          0.7227  -13.5899  -48.7355 C.3       1 UNK         0.1400 
      6 C6         -0.2748  -12.4687  -48.3493 C.3       23 UNK        -0.0398 
      7 S7         -1.9588  -13.0536  -47.9472 S.3       23 UNK        -0.2404 
      8 C8         -1.7020  -13.9983  -46.4084 C.3       23 UNK        -0.0205 
      9 C9         -1.8273  -15.4955  -46.6504 C.ar      23 UNK        -0.0193 
     10 C10        -3.0893  -16.0720  -46.8305 C.ar      23 UNK        -0.1150 
     11 C11        -3.2210  -17.4455  -47.0576 C.ar      23 UNK        -0.0193 
     12 C12        -2.0751  -18.2431  -47.1120 C.ar      23 UNK        -0.1150 
     13 C13        -0.8099  -17.6801  -46.9273 C.ar      23 UNK        -0.0193 
     14 C14        -0.6916  -16.3097  -46.6841 C.ar      23 UNK        -0.1150 
     15 C15         0.4287  -18.5511  -47.0212 C.3       23 UNK        -0.0205 
     16 S16         0.7687  -19.4097  -45.4548 S.3       23 UNK        -0.2404 
     17 C17         1.9560  -20.6684  -46.0404 C.3       23 UNK        -0.0398 
     18 CA          1.4061  -22.1148  -46.1564 C.3       11 UNK         0.1400 
     19 N           1.2281  -22.7756  -44.8597 N.am      11 UNK        -0.5000 
     20 C           1.1829  -24.1093  -44.7160 C.2       10 UNK         0.5000 
     21 O           1.2679  -24.8999  -45.6565 O.2       10 UNK        -0.5000 
     22 CA          0.9811  -24.6531  -43.2914 C.3       10 UNK         0.1400 
     23 CB          2.2753  -24.5346  -42.4721 C.3       10 UNK        -0.1800 
     24 N          -0.1092  -23.9899  -42.5790 N.am      10 UNK        -0.5000 
     25 C          -1.4002  -24.0497  -42.9347 C.2       9 UNK         0.5000 
     26 O          -1.8147  -24.6658  -43.9139 O.2       9 UNK        -0.5000 
     27 CA         -2.3927  -23.2523  -42.0711 C.3       9 UNK         0.1400 
     28 CB         -2.8709  -24.0941  -40.8788 C.3       9 UNK        -0.1800 
     29 N          -1.8396  -21.9870  -41.5846 N.am      9 UNK        -0.5000 
     30 C          -1.4480  -20.9842  -42.3795 C.2       8 UNK         0.5000 
     31 O          -1.4886  -21.0288  -43.6121 O.2       8 UNK        -0.5000 
     32 CA         -0.8902  -19.7421  -41.6796 C.3       8 UNK         0.1400 
     33 CB          0.6315  -19.8540  -41.4891 C.3       8 UNK        -0.1800 
     34 N          -1.1976  -18.5815  -42.5029 N.am      8 UNK        -0.5000 
     35 C          -1.5566  -17.3834  -42.0382 C.2       7 UNK         0.5000 
     36 O          -1.6199  -17.0994  -40.8386 O.2       7 UNK        -0.5000 
     37 CA         -1.9597  -16.3409  -43.0951 C.3       7 UNK         0.1400 
     38 CB         -3.4711  -16.4121  -43.3650 C.3       7 UNK        -0.1800 
     39 N          -1.6167  -14.9819  -42.6778 N.am      7 UNK        -0.5000 
     40 C          -0.3652  -14.5200  -42.5795 C.2       6 UNK         0.5000 
     41 O           0.6369  -15.1757  -42.8725 O.2       6 UNK        -0.5000 
     42 CA         -0.2030  -13.0928  -42.0339 C.3       6 UNK         0.1400 
     43 CB          0.2095  -13.1225  -40.5538 C.3       6 UNK        -0.1800 
     44 N           0.8232  -12.3943  -42.8006 N.am      6 UNK        -0.5000 
     45 C           0.5926  -11.7084  -43.9263 C.2       5 UNK         0.5000 
     46 O          -0.5322  -11.4711  -44.3675 O.2       5 UNK        -0.5000 
     47 CA          1.8296  -11.2072  -44.6951 C.3       5 UNK         0.1400 
     48 CB          2.1982   -9.7828  -44.2528 C.3       5 UNK        -0.1800 
     49 N           3.0023  -12.0745  -44.5495 N.am      5 UNK        -0.5000 
     50 C           3.1002  -13.3094  -45.0611 C.2       4 UNK         0.5000 
     51 O           2.1844  -13.8689  -45.6645 O.2       4 UNK        -0.5000 
     52 CA          4.4562  -14.0114  -44.8563 C.3       4 UNK         0.1400 
     53 CB          4.4720  -14.8453  -43.5597 C.3       4 UNK        -0.1800 
     54 N           4.8671  -14.7869  -46.0331 N.am      4 UNK        -0.5000 
     55 C           4.4035  -15.9638  -46.4794 C.2       3 UNK         0.5000 
     56 O           3.6049  -16.6813  -45.8768 O.2       3 UNK        -0.5000 
     57 CA          4.9276  -16.3868  -47.8653 C.3       3 UNK         0.1400 
     58 CB          4.5248  -17.8228  -48.2493 C.3       3 UNK        -0.1800 
     59 N           4.4237  -15.4655  -48.8821 N.am      3 UNK        -0.5000 
     60 C           5.0148  -14.3205  -49.2561 C.2       2 UNK         0.5000 
     61 O           6.0994  -13.9420  -48.8122 O.2       2 UNK        -0.5000 
     62 CA          4.2497  -13.4289  -50.2569 C.3       2 UNK         0.1400 
     63 CB          4.6042  -13.8087  -51.7023 C.3       2 UNK        -0.1800 
     64 N           2.8043  -13.5412  -50.0713 N.am      2 UNK        -0.5000 
     65 C           2.1356  -13.0268  -49.0310 C.2       1 UNK         0.5000 
     66 O           2.6122  -12.1587  -48.2986 O.2       1 UNK        -0.5000 
     67 C           0.1411  -22.2375  -47.0323 C.2       11 UNK         0.5000 
     68 O           0.2613  -22.4442  -48.2402 O.2       11 UNK        -0.5000 
     69 N          -1.0436  -22.1706  -46.4040 N.am      12 UNK        -0.5000 
     70 CA         -2.3330  -22.3972  -47.0528 C.3       12 UNK         0.1400 
     71 CB         -3.4731  -22.0475  -46.0861 C.3       12 UNK        -0.1800 
     72 C          -2.4742  -23.8349  -47.5812 C.2       12 UNK         0.5000 
     73 O          -2.9072  -24.0115  -48.7184 O.2       12 UNK        -0.5000 
     74 N          -2.0663  -24.8287  -46.7775 N.am      13 UNK        -0.5000 
     75 CA         -2.0416  -26.2432  -47.1543 C.3       13 UNK         0.1400 
     76 CB         -1.7386  -27.1133  -45.9256 C.3       13 UNK        -0.1800 
     77 C          -1.0450  -26.5414  -48.2865 C.2       13 UNK         0.5000 
     78 O          -1.3883  -27.2861  -49.2043 O.2       13 UNK        -0.5000 
     79 N           0.1460  -25.9260  -48.2345 N.am      14 UNK        -0.5000 
     80 CA          1.1743  -26.0213  -49.2762 C.3       14 UNK         0.1400 
     81 CB          2.4606  -25.3345  -48.7941 C.3       14 UNK        -0.1800 
     82 C           0.7169  -25.4365  -50.6273 C.2       14 UNK         0.5000 
     83 O           1.0360  -25.9975  -51.6758 O.2       14 UNK        -0.5000 
     84 N          -0.0566  -24.3452  -50.5716 N.am      15 UNK        -0.5000 
     85 CA         -0.7029  -23.7077  -51.7194 C.3       15 UNK         0.1400 
     86 CB         -0.9937  -22.2466  -51.3455 C.3       15 UNK        -0.1800 
     87 C          -2.0034  -24.4110  -52.1655 C.2       15 UNK         0.5000 
     88 O          -2.5827  -24.0140  -53.1788 O.2       15 UNK        -0.5000 
     89 N          -2.4722  -25.3944  -51.3800 N.am      16 UNK        -0.5000 
     90 CA         -3.7511  -26.1067  -51.4964 C.3       16 UNK         0.1400 
     91 CB         -3.7326  -27.0402  -52.7237 C.3       16 UNK        -0.1800 
     92 C          -4.9691  -25.1557  -51.4872 C.2       16 UNK         0.5000 
     93 O          -5.9661  -25.4220  -52.1611 O.2       16 UNK        -0.5000 
     94 N          -4.8314  -24.0288  -50.7712 N.am      17 UNK        -0.5000 
     95 CA         -5.6712  -22.8256  -50.7228 C.3       17 UNK         0.1400 
     96 CB         -7.0572  -23.1357  -50.1322 C.3       17 UNK        -0.1800 
     97 C          -5.7948  -22.0708  -52.0639 C.2       17 UNK         0.5000 
     98 O          -5.7243  -20.8415  -52.0729 O.2       17 UNK        -0.5000 
     99 N          -5.9750  -22.8085  -53.1645 N.am      18 UNK        -0.5000 
    100 CA        -6.2215  -22.3252  -54.5195 C.3       18 UNK         0.1400 
    101 CB        -6.4713  -23.5271  -55.4426 C.3       18 UNK        -0.1800 
    102 C         -5.1067  -21.4318  -55.0856 C.2       18 UNK         0.5000 
    103 O         -5.4170  -20.3858  -55.6560 O.2       18 UNK        -0.5000 
    104 N         -3.8363  -21.8245  -54.9020 N.am      19 UNK        -0.5000 
    105 CA        -2.6851  -21.0665  -55.4098 C.3       19 UNK         0.1400 
    106 CB        -1.4372  -21.9616  -55.4422 C.3       19 UNK        -0.1800 
    107 C         -2.4171  -19.7744  -54.6139 C.2       19 UNK         0.5000 
    108 O         -1.8036  -18.8502  -55.1480 O.2       19 UNK        -0.5000 
    109 N         -2.9015  -19.7248  -53.3661 N.am      20 UNK        -0.5000 
    110 CA        -2.8667  -18.5453  -52.5027 C.3       20 UNK         0.1400 
    111 CB        -2.7675  -19.0123  -51.0410 C.3       20 UNK        -0.1800 
    112 C         -4.0929  -17.6315  -52.7060 C.2       20 UNK         0.5000 
    113 O         -4.0911  -16.5083  -52.2027 O.2       20 UNK        -0.5000 
    114 N         -5.1100  -18.1298  -53.4283 N.am      21 UNK        -0.5000 
    115 CA        -6.4367  -17.5425  -53.6420 C.3       21 UNK         0.1400 
    116 CB        -6.3438  -16.2187  -54.4292 C.3       21 UNK        -0.1800 
    117 C         -7.2521  -17.4235  -52.3351 C.2       21 UNK         0.5000 
    118 O         -8.0448  -16.4921  -52.1822 O.2       21 UNK        -0.5000 
    119 N         -7.0443  -18.3794  -51.4215 N.am      22 UNK        -0.5000 
    120 CA        -7.6830  -18.4520  -50.0967 C.3       22 UNK         0.1400 
    121 C         -8.9349  -19.3761  -50.0633 C.2       22 UNK         0.5000 
    122 N         -9.3071  -20.0376  -51.1529 N.am      22 UNK        -0.7600 
    123 O         -9.5921  -19.4857  -49.0319 O.2       22 UNK        -0.5000 
    124 C124       -6.6640  -18.8508  -48.9966 C.3       23 UNK        -0.0398 
    125 S125       -5.2731  -17.6763  -48.8859 S.3       23 UNK        -0.2404 
    126 C126       -4.5972  -18.0670  -47.2454 C.3       23 UNK        -0.0205 
    127 H127       -1.1593  -16.1525  -51.1767 H         1 UNK         0.0600 
    128 H128        0.3579  -16.6207  -51.9610 H         1 UNK         0.0600 
    129 H129       -0.2834  -17.5847  -50.6266 H         1 UNK         0.0600 
    130 H130       -0.6439  -14.1693  -50.2312 H         1 UNK         0.3000 
    131 H131        0.8630  -14.1981  -47.8447 H         1 UNK         0.0600 
    132 H132       -0.3607  -11.7485  -49.1644 H         1 UNK         0.0800 
    133 H133        0.0925  -11.9077  -47.4888 H         1 UNK         0.0800 
    134 H134       -2.4473  -13.6889  -45.6745 H         1 UNK         0.0800 
    135 H135       -0.7318  -13.7593  -45.9700 H         1 UNK         0.0800 
    136 H136       -3.9718  -15.4485  -46.8011 H         1 UNK         0.1150 
    137 H137       -2.1637  -19.3036  -47.2986 H         1 UNK         0.1150 
    138 H138        0.2887  -15.8828  -46.5249 H         1 UNK         0.1150 
    139 H139        0.2953  -19.2763  -47.8255 H         1 UNK         0.0800 
    140 H140        1.2953  -17.9458  -47.2907 H         1 UNK         0.0800 
    141 H141        2.3580  -20.3552  -47.0054 H         1 UNK         0.0800 
    142 H142        2.8114  -20.6576  -45.3639 H         1 UNK         0.0800 
    143 H143        2.1829  -22.6767  -46.6801 H         1 UNK         0.0600 
    144 H144        1.0964  -22.1800  -44.0558 H         1 UNK         0.3000 
    145 H145        0.7294  -25.7126  -43.3755 H         1 UNK         0.0600 
    146 H146        2.1671  -25.0056  -41.4949 H         1 UNK         0.0600 
    147 H147        3.1048  -25.0292  -42.9794 H         1 UNK         0.0600 
    148 H148        2.5610  -23.4940  -42.3130 H         1 UNK         0.0600 
    149 H149        0.1385  -23.4509  -41.7629 H         1 UNK         0.3000 
    150 H150       -3.2593  -23.0206  -42.6940 H         1 UNK         0.0600 
    151 H151       -3.3048  -25.0365  -41.2161 H         1 UNK         0.0600 
    152 H152       -3.6385  -23.5706  -40.3086 H         1 UNK         0.0600 
    153 H153       -2.0520  -24.3343  -40.1995 H         1 UNK         0.0600 
    154 H154       -1.7705  -21.8799  -40.5828 H         1 UNK         0.3000 
    155 H155       -1.3728  -19.6507  -40.7042 H         1 UNK         0.0600 
    156 H156        1.0308  -18.9693  -40.9929 H         1 UNK         0.0600 
    157 H157        1.1503  -19.9633  -42.4420 H         1 UNK         0.0600 
    158 H158        0.8880  -20.7164  -40.8728 H         1 UNK         0.0600 
    159 H159       -1.2081  -18.7708  -43.4983 H         1 UNK         0.3000 
    160 H160       -1.4248  -16.5606  -44.0198 H         1 UNK         0.0600 
    161 H161       -4.0509  -16.2605  -42.4537 H         1 UNK         0.0600 
    162 H162       -3.7473  -17.3851  -43.7737 H         1 UNK         0.0600 
    163 H163       -3.7821  -15.6574  -44.0868 H         1 UNK         0.0600 
    164 H164       -2.3832  -14.4000  -42.3740 H         1 UNK         0.3000 
    165 H165       -1.1537  -12.5610  -42.1157 H         1 UNK         0.0600 
    166 H166        1.1562  -13.6450  -40.4088 H         1 UNK         0.0600 
    167 H167        0.3179  -12.1140  -40.1543 H         1 UNK         0.0600 
    168 H168       -0.5424  -13.6331  -39.9506 H         1 UNK         0.0600 
    169 H169        1.7805  -12.5960  -42.5538 H         1 UNK         0.3000 
    170 H170        1.5679  -11.1740  -45.7543 H         1 UNK         0.0600 
    171 H171        1.3514   -9.1057  -44.3730 H         1 UNK         0.0600 
    172 H172        2.4977   -9.7509  -43.2044 H         1 UNK         0.0600 
    173 H173        3.0182   -9.3838  -44.8502 H         1 UNK         0.0600 
    174 H174        3.7940  -11.6787  -44.0632 H         1 UNK         0.3000 
    175 H175        5.2169  -13.2359  -44.7531 H         1 UNK         0.0600 
    176 H176        3.6579  -15.5706  -43.5310 H         1 UNK         0.0600 
    177 H177        5.4117  -15.3854  -43.4449 H         1 UNK         0.0600 
    178 H178        4.3558  -14.2028  -42.6864 H         1 UNK         0.0600 
    179 H179        5.4929  -14.2948  -46.6592 H         1 UNK         0.3000 
    180 H180        6.0186  -16.3481  -47.8353 H         1 UNK         0.0600 
    181 H181        3.4432  -17.9336  -48.3250 H         1 UNK         0.0600 
    182 H182        4.8783  -18.5401  -47.5077 H         1 UNK         0.0600 
    183 H183        4.9557  -18.1077  -49.2091 H         1 UNK         0.0600 
    184 H184        3.4910  -15.6746  -49.2281 H         1 UNK         0.3000 
    185 H185        4.5504  -12.3926  -50.0890 H         1 UNK         0.0600 
    186 H186        5.6771  -13.7178  -51.8768 H         1 UNK         0.0600 
    187 H187        4.3199  -14.8366  -51.9310 H         1 UNK         0.0600 
    188 H188        4.1027  -13.1546  -52.4158 H         1 UNK         0.0600 
    189 H189        2.3335  -14.2488  -50.6165 H         1 UNK         0.3000 
    190 H190       -1.0644  -21.9511  -45.4131 H         1 UNK         0.3000 
    191 H191       -2.3971  -21.7225  -47.9091 H         1 UNK         0.0600 
    192 H192       -4.4443  -22.1669  -46.5680 H         1 UNK         0.0600 
    193 H193       -3.4004  -21.0135  -45.7483 H         1 UNK         0.0600 
    194 H194       -3.4617  -22.6867  -45.2029 H         1 UNK         0.0600 
    195 H195       -1.7715  -24.6119  -45.8293 H         1 UNK         0.3000 
    196 H196       -3.0379  -26.5070  -47.5153 H         1 UNK         0.0600 
    197 H197       -1.7030  -28.1702  -46.1925 H         1 UNK         0.0600 
    198 H198       -2.5090  -26.9983  -45.1633 H         1 UNK         0.0600 
    199 H199       -0.7796  -26.8547  -45.4752 H         1 UNK         0.0600 
    200 H200        0.3746  -25.3689  -47.4172 H         1 UNK         0.3000 
    201 H201        1.3923  -27.0800  -49.4310 H         1 UNK         0.0600 
    202 H202        2.8274  -25.7859  -47.8721 H         1 UNK         0.0600 
    203 H203        2.3040  -24.2720  -48.6078 H         1 UNK         0.0600 
    204 H204        3.2532  -25.4240  -49.5379 H         1 UNK         0.0600 
    205 H205       -0.2172  -23.9111  -49.6687 H         1 UNK         0.3000 
    206 H206       -0.0154  -23.7173  -52.5674 H         1 UNK         0.0600 
    207 H207       -0.0799  -21.7184  -51.0730 H         1 UNK         0.0600 
    208 H208       -1.4407  -21.7089  -52.1791 H         1 UNK         0.0600 
    209 H209       -1.6832  -22.1769  -50.5032 H         1 UNK         0.0600 
    210 H210       -1.9259  -25.6361  -50.5632 H         1 UNK         0.3000 
    211 H211       -3.8409  -26.7270  -50.6038 H         1 UNK         0.0600 
    212 H212       -3.7006  -26.4787  -53.6580 H         1 UNK         0.0600 
    213 H213       -4.6218  -27.6711  -52.7504 H         1 UNK         0.0600 
    214 H214       -2.8671  -27.7024  -52.7003 H         1 UNK         0.0600 
    215 H215       -3.9865  -23.9660  -50.2056 H         1 UNK         0.3000 
    216 H216       -5.1654  -22.1475  -50.0335 H         1 UNK         0.0600 
    217 H217       -7.6348  -23.8014  -50.7741 H         1 UNK         0.0600 
    218 H218       -7.6384  -22.2222  -50.0037 H         1 UNK         0.0600 
    219 H219       -6.9705  -23.6055  -49.1525 H         1 UNK         0.0600 
    220 H220       -6.0156  -23.8159  -53.0296 H         1 UNK         0.3000 
    221 H221       -7.1345  -21.7273  -54.4870 H         1 UNK         0.0600 
    222 H222       -5.6098  -24.1958  -55.4729 H         1 UNK         0.0600 
    223 H223       -7.3321  -24.1071  -55.1093 H         1 UNK         0.0600 
    224 H224       -6.6738  -23.2026  -56.4641 H         1 UNK         0.0600 
    225 H225       -3.6363  -22.6800  -54.3920 H         1 UNK         0.3000 
    226 H226       -2.9031  -20.7728  -56.4389 H         1 UNK         0.0600 
    227 H227       -1.6265  -22.8867  -55.9868 H         1 UNK         0.0600 
    228 H228       -0.6104  -21.4540  -55.9404 H         1 UNK         0.0600 
    229 H229       -1.0977  -22.2241  -54.4420 H         1 UNK         0.0600 
    230 H230       -3.4186  -20.5207  -53.0202 H         1 UNK         0.3000 
    231 H231       -1.9788  -17.9546  -52.7333 H         1 UNK         0.0600 
    232 H232       -3.6163  -19.6336  -50.7540 H         1 UNK         0.0600 
    233 H233       -1.8566  -19.5834  -50.8682 H         1 UNK         0.0600 
    234 H234       -2.7400  -18.1607  -50.3603 H         1 UNK         0.0600 
    235 H235       -4.9953  -19.0604  -53.8069 H         1 UNK         0.3000 
    236 H236       -6.9781  -18.2542  -54.2668 H         1 UNK         0.0600 
    237 H237       -5.7577  -16.3426  -55.3399 H         1 UNK         0.0600 
    238 H238       -7.3340  -15.8718  -54.7265 H         1 UNK         0.0600 
    239 H239       -5.8851  -15.4251  -53.8390 H         1 UNK         0.0600 
    240 H240       -6.4064  -19.1386  -51.6460 H         1 UNK         0.3000 
    241 H241       -8.0562  -17.4600  -49.8360 H         1 UNK         0.0600 
    242 H242       -8.7832  -19.9466  -52.0079 H         1 UNK         0.3800 
    243 H243      -10.1264  -20.6236  -51.1229 H         1 UNK         0.3800 
    244 H244       -7.1513  -18.8926  -48.0208 H         1 UNK         0.0800 
    245 H245       -6.2632  -19.8474  -49.1883 H         1 UNK         0.0800 
    246 H246       -4.5435  -19.1500  -47.1252 H         1 UNK         0.0800 
    247 H247       -5.2760  -17.7003  -46.4741 H         1 UNK         0.0800 
@<TRIPOS>BOND
     1    1    2 1    
     2    1  127 1    
     3    1  128 1    
     4    1  129 1    
     5    2    3 2    
     6    2    4 am   BACKBONE|DICT|INTERRES
     7    4    5 1    
     8    4  130 1    
     9    5    6 1    
    10    5   65 1    
    11    5  131 1    
    12    6    7 1    
    13    6  132 1    
    14    6  133 1    
    15    7    8 1    
    16    8    9 1    
    17    8  134 1    
    18    8  135 1    
    19    9   10 ar   
    20    9   14 ar   
    21   10   11 ar   
    22   10  136 1    
    23   11   12 ar   
    24   11  126 1    
    25   12   13 ar   
    26   12  137 1    
    27   13   14 ar   
    28   13   15 1    
    29   14  138 1    
    30   15   16 1    
    31   15  139 1    
    32   15  140 1    
    33   16   17 1    
    34   17   18 1    
    35   17  141 1    
    36   17  142 1    
    37   18   19 1    
    38   18   67 1    
    39   18  143 1    
    40   19   20 am   BACKBONE|DICT|INTERRES
    41   19  144 1    
    42   20   21 2    
    43   20   22 1    
    44   22   23 1    
    45   22   24 1    
    46   22  145 1    
    47   23  146 1    
    48   23  147 1    
    49   23  148 1    
    50   24   25 am   BACKBONE|DICT|INTERRES
    51   24  149 1    
    52   25   26 2    
    53   25   27 1    
    54   27   28 1    
    55   27   29 1    
    56   27  150 1    
    57   28  151 1    
    58   28  152 1    
    59   28  153 1    
    60   29   30 am   BACKBONE|DICT|INTERRES
    61   29  154 1    
    62   30   31 2    
    63   30   32 1    
    64   32   33 1    
    65   32   34 1    
    66   32  155 1    
    67   33  156 1    
    68   33  157 1    
    69   33  158 1    
    70   34   35 am   BACKBONE|DICT|INTERRES
    71   34  159 1    
    72   35   36 2    
    73   35   37 1    
    74   37   38 1    
    75   37   39 1    
    76   37  160 1    
    77   38  161 1    
    78   38  162 1    
    79   38  163 1    
    80   39   40 am   BACKBONE|DICT|INTERRES
    81   39  164 1    
    82   40   41 2    
    83   40   42 1    
    84   42   43 1    
    85   42   44 1    
    86   42  165 1    
    87   43  166 1    
    88   43  167 1    
    89   43  168 1    
    90   44   45 am   BACKBONE|DICT|INTERRES
    91   44  169 1    
    92   45   46 2    
    93   45   47 1    
    94   47   48 1    
    95   47   49 1    
    96   47  170 1    
    97   48  171 1    
    98   48  172 1    
    99   48  173 1    
   100   49   50 am   BACKBONE|DICT|INTERRES
   101   49  174 1    
   102   50   51 2    
   103   50   52 1    
   104   52   53 1    
   105   52   54 1    
   106   52  175 1    
   107   53  176 1    
   108   53  177 1    
   109   53  178 1    
   110   54   55 am   BACKBONE|DICT|INTERRES
   111   54  179 1    
   112   55   56 2    
   113   55   57 1    
   114   57   58 1    
   115   57   59 1    
   116   57  180 1    
   117   58  181 1    
   118   58  182 1    
   119   58  183 1    
   120   59   60 am   BACKBONE|DICT|INTERRES
   121   59  184 1    
   122   60   61 2    
   123   60   62 1    
   124   62   63 1    
   125   62   64 1    
   126   62  185 1    
   127   63  186 1    
   128   63  187 1    
   129   63  188 1    
   130   64   65 am   BACKBONE|DICT|INTERRES
   131   64  189 1    
   132   65   66 2    
   133   67   68 2    
   134   67   69 am   BACKBONE|DICT|INTERRES
   135   69   70 1    
   136   69  190 1    
   137   70   71 1    
   138   70   72 1    
   139   70  191 1    
   140   71  192 1    
   141   71  193 1    
   142   71  194 1    
   143   72   73 2    
   144   72   74 am   BACKBONE|DICT|INTERRES
   145   74   75 1    
   146   74  195 1    
   147   75   76 1    
   148   75   77 1    
   149   75  196 1    
   150   76  197 1    
   151   76  198 1    
   152   76  199 1    
   153   77   78 2    
   154   77   79 am   BACKBONE|DICT|INTERRES
   155   79   80 1    
   156   79  200 1    
   157   80   81 1    
   158   80   82 1    
   159   80  201 1    
   160   81  202 1    
   161   81  203 1    
   162   81  204 1    
   163   82   83 2    
   164   82   84 am   BACKBONE|DICT|INTERRES
   165   84   85 1    
   166   84  205 1    
   167   85   86 1    
   168   85   87 1    
   169   85  206 1    
   170   86  207 1    
   171   86  208 1    
   172   86  209 1    
   173   87   88 2    
   174   87   89 am   BACKBONE|DICT|INTERRES
   175   89   90 1    
   176   89  210 1    
   177   90   91 1    
   178   90   92 1    
   179   90  211 1    
   180   91  212 1    
   181   91  213 1    
   182   91  214 1    
   183   92   93 2    
   184   92   94 am   BACKBONE|DICT|INTERRES
   185   94   95 1    
   186   94  215 1    
   187   95   96 1    
   188   95   97 1    
   189   95  216 1    
   190   96  217 1    
   191   96  218 1    
   192   96  219 1    
   193   97   98 2    
   194   97   99 am   BACKBONE|DICT|INTERRES
   195   99  100 1    
   196   99  220 1    
   197  100  101 1    
   198  100  102 1    
   199  100  221 1    
   200  101  222 1    
   201  101  223 1    
   202  101  224 1    
   203  102  103 2    
   204  102  104 am   BACKBONE|DICT|INTERRES
   205  104  105 1    
   206  104  225 1    
   207  105  106 1    
   208  105  107 1    
   209  105  226 1    
   210  106  227 1    
   211  106  228 1    
   212  106  229 1    
   213  107  108 2    
   214  107  109 am   BACKBONE|DICT|INTERRES
   215  109  110 1    
   216  109  230 1    
   217  110  111 1    
   218  110  112 1    
   219  110  231 1    
   220  111  232 1    
   221  111  233 1    
   222  111  234 1    
   223  112  113 2    
   224  112  114 am   BACKBONE|DICT|INTERRES
   225  114  115 1    
   226  114  235 1    
   227  115  116 1    
   228  115  117 1    
   229  115  236 1    
   230  116  237 1    
   231  116  238 1    
   232  116  239 1    
   233  117  118 2    
   234  117  119 am   BACKBONE|DICT|INTERRES
   235  119  120 1    
   236  119  240 1    
   237  120  121 1    
   238  120  124 1    
   239  120  241 1    
   240  121  122 am   BACKBONE|DICT|INTERRES
   241  121  123 2    
   242  122  242 1    
   243  122  243 1    
   244  124  125 1    
   245  124  244 1    
   246  124  245 1    
   247  125  126 1    
   248  126  246 1    
   249  126  247 1    
@<TRIPOS>SUBSTRUCTURE
     1 UNK         1 GROUP             0       ****    0 ROOT    
