@<TRIPOS>MOLECULE
3R540
247   249    1
SMALL
USER_CHARGES


@<TRIPOS>ATOM
      1 CA          2.7209  -10.5337  -45.9448 C.3       0 UNK        -0.1800 
      2 C           3.2367  -11.5817  -46.9207 C.2       0 UNK         0.5000 
      3 O           4.4328  -11.6146  -47.2090 O.2       0 UNK        -0.5000 
      4 N           2.3383  -12.4283  -47.4387 N.am      1 UNK        -0.5000 
      5 CA          2.6493  -13.5212  -48.3695 C.3       1 UNK         0.1400 
      6 C6          1.4044  -13.9778  -49.1726 C.3       23 UNK        -0.0398 
      7 S7         -0.0592  -14.3486  -48.1422 S.3       23 UNK        -0.2404 
      8 C8         -1.3234  -14.6643  -49.4141 C.3       23 UNK        -0.0205 
      9 C9         -1.5759  -16.1528  -49.6005 C.ar      23 UNK        -0.0193 
     10 C10        -0.6608  -16.9441  -50.2999 C.ar      23 UNK        -0.1150 
     11 C11        -0.8824  -18.3147  -50.4584 C.ar      23 UNK        -0.0193 
     12 C12        -2.0382  -18.8910  -49.9220 C.ar      23 UNK        -0.1150 
     13 C13        -2.9800  -18.1058  -49.2521 C.ar      23 UNK        -0.0193 
     14 C14        -2.7364  -16.7389  -49.0864 C.ar      23 UNK        -0.1150 
     15 C15        -4.2839  -18.7136  -48.7504 C.3       23 UNK        -0.0205 
     16 S16        -4.3904  -18.7147  -46.9333 S.3       23 UNK        -0.2404 
     17 C17        -4.0550  -20.4533  -46.4923 C.3       23 UNK        -0.0398 
     18 CA         -2.6975  -21.0224  -46.9735 C.3       11 UNK         0.1400 
     19 N          -1.5505  -20.1684  -46.6462 N.am      11 UNK        -0.5000 
     20 C          -0.3003  -20.3809  -47.0842 C.2       10 UNK         0.5000 
     21 O           0.0077  -21.2894  -47.8549 O.2       10 UNK        -0.5000 
     22 CA          0.8029  -19.4742  -46.5155 C.3       10 UNK         0.1400 
     23 CB          0.9209  -18.1723  -47.3217 C.3       10 UNK        -0.1800 
     24 N           0.5780  -19.1900  -45.0967 N.am      10 UNK        -0.5000 
     25 C           0.7689  -20.0909  -44.1206 C.2       9 UNK         0.5000 
     26 O           1.2270  -21.2160  -44.3191 O.2       9 UNK        -0.5000 
     27 CA          0.3292  -19.7028  -42.6955 C.3       9 UNK         0.1400 
     28 CB          1.4743  -19.0382  -41.9191 C.3       9 UNK        -0.1800 
     29 N          -0.8435  -18.8292  -42.6852 N.am      9 UNK        -0.5000 
     30 C          -2.0785  -19.2382  -43.0129 C.2       8 UNK         0.5000 
     31 O          -2.3504  -20.4016  -43.3081 O.2       8 UNK        -0.5000 
     32 CA         -3.1899  -18.1709  -43.0716 C.3       8 UNK         0.1400 
     33 CB         -3.9123  -18.0757  -41.7200 C.3       8 UNK        -0.1800 
     34 N          -2.7191  -16.8395  -43.4573 N.am      8 UNK        -0.5000 
     35 C          -2.0473  -16.5511  -44.5808 C.2       7 UNK         0.5000 
     36 O          -1.7603  -17.3867  -45.4354 O.2       7 UNK        -0.5000 
     37 CA         -1.5506  -15.1043  -44.7452 C.3       7 UNK         0.1400 
     38 CB         -2.5718  -14.2793  -45.5421 C.3       7 UNK        -0.1800 
     39 N          -1.2438  -14.4090  -43.4897 N.am      7 UNK        -0.5000 
     40 C          -0.3879  -14.8328  -42.5495 C.2       6 UNK         0.5000 
     41 O           0.1671  -15.9332  -42.5657 O.2       6 UNK        -0.5000 
     42 CA         -0.0997  -13.8595  -41.3938 C.3       6 UNK         0.1400 
     43 CB         -0.4076  -14.5127  -40.0372 C.3       6 UNK        -0.1800 
     44 N           1.2970  -13.4321  -41.4111 N.am      6 UNK        -0.5000 
     45 C           1.8796  -12.7020  -42.3698 C.2       5 UNK         0.5000 
     46 O           1.2703  -12.2305  -43.3300 O.2       5 UNK        -0.5000 
     47 CA          3.3995  -12.4721  -42.2613 C.3       5 UNK         0.1400 
     48 CB          3.7238  -11.2427  -41.3923 C.3       5 UNK        -0.1800 
     49 N           4.1633  -13.6571  -41.8463 N.am      5 UNK        -0.5000 
     50 C           4.1973  -14.2796  -40.6571 C.2       4 UNK         0.5000 
     51 O           3.5583  -13.8977  -39.6761 O.2       4 UNK        -0.5000 
     52 CA          5.0337  -15.5744  -40.5463 C.3       4 UNK         0.1400 
     53 CB          4.1596  -16.7377  -40.0467 C.3       4 UNK        -0.1800 
     54 N           5.6417  -15.9755  -41.8159 N.am      4 UNK        -0.5000 
     55 C           6.7985  -15.5177  -42.3145 C.2       3 UNK         0.5000 
     56 O           7.5493  -14.7505  -41.7124 O.2       3 UNK        -0.5000 
     57 CA          7.1449  -15.9633  -43.7522 C.3       3 UNK         0.1400 
     58 CB          8.0667  -17.1918  -43.7292 C.3       3 UNK        -0.1800 
     59 N           5.9540  -16.2686  -44.5564 N.am      3 UNK        -0.5000 
     60 C           5.0355  -15.3621  -44.9161 C.2       2 UNK         0.5000 
     61 O           5.1319  -14.1590  -44.6650 O.2       2 UNK        -0.5000 
     62 CA          3.7483  -15.9091  -45.5491 C.3       2 UNK         0.1400 
     63 CB          2.7726  -16.3142  -44.4353 C.3       2 UNK        -0.1800 
     64 N           3.1095  -14.8924  -46.3779 N.am      2 UNK        -0.5000 
     65 C           3.3517  -14.7125  -47.6818 C.2       1 UNK         0.5000 
     66 O           4.0995  -15.4353  -48.3425 O.2       1 UNK        -0.5000 
     67 C          -2.5088  -22.4568  -46.4370 C.2       11 UNK         0.5000 
     68 O          -2.8024  -23.4171  -47.1503 O.2       11 UNK        -0.5000 
     69 N          -1.9943  -22.5752  -45.2039 N.am      12 UNK        -0.5000 
     70 CA         -1.6435  -23.8418  -44.5637 C.3       12 UNK         0.1400 
     71 CB         -1.3078  -23.6015  -43.0845 C.3       12 UNK        -0.1800 
     72 C          -0.4882  -24.5632  -45.2791 C.2       12 UNK         0.5000 
     73 O          -0.5834  -25.7695  -45.5030 O.2       12 UNK        -0.5000 
     74 N           0.5556  -23.8144  -45.6669 N.am      13 UNK        -0.5000 
     75 CA          1.6990  -24.3174  -46.4353 C.3       13 UNK         0.1400 
     76 CB          2.7825  -23.2323  -46.5209 C.3       13 UNK        -0.1800 
     77 C           1.3091  -24.8110  -47.8423 C.2       13 UNK         0.5000 
     78 O           1.8354  -25.8265  -48.2986 O.2       13 UNK        -0.5000 
     79 N           0.3661  -24.1086  -48.4843 N.am      14 UNK        -0.5000 
     80 CA         -0.2398  -24.4856  -49.7631 C.3       14 UNK         0.1400 
     81 CB         -0.9244  -23.2487  -50.3655 C.3       14 UNK        -0.1800 
     82 C          -1.2426  -25.6535  -49.6523 C.2       14 UNK         0.5000 
     83 O          -1.6341  -26.2015  -50.6829 O.2       14 UNK        -0.5000 
     84 N          -1.6471  -26.0012  -48.4207 N.am      15 UNK        -0.5000 
     85 CA         -2.6595  -26.9961  -48.0558 C.3       15 UNK         0.1400 
     86 CB         -2.1904  -28.4204  -48.4182 C.3       15 UNK        -0.1800 
     87 C          -4.0456  -26.6407  -48.6304 C.2       15 UNK         0.5000 
     88 O          -4.7057  -27.4860  -49.2375 O.2       15 UNK        -0.5000 
     89 N          -4.4339  -25.3680  -48.4631 N.am      16 UNK        -0.5000 
     90 CA         -5.6529  -24.6954  -48.9346 C.3       16 UNK         0.1400 
     91 CB         -6.9257  -25.3795  -48.3997 C.3       16 UNK        -0.1800 
     92 C          -5.7253  -24.4839  -50.4614 C.2       16 UNK         0.5000 
     93 O          -6.2196  -23.4410  -50.8867 O.2       16 UNK        -0.5000 
     94 N          -5.2151  -25.4468  -51.2418 N.am      17 UNK        -0.5000 
     95 CA         -5.0577  -25.4426  -52.6986 C.3       17 UNK         0.1400 
     96 CB         -3.9083  -24.4894  -53.0963 C.3       17 UNK        -0.1800 
     97 C          -6.3781  -25.1936  -53.4660 C.2       17 UNK         0.5000 
     98 O          -7.4307  -25.6862  -53.0515 O.2       17 UNK        -0.5000 
     99 N          -6.2906  -24.4787  -54.5938 N.am      18 UNK        -0.5000 
    100 CA        -7.4130  -24.0744  -55.4381 C.3       18 UNK         0.1400 
    101 CB        -6.8814  -23.8735  -56.8690 C.3       18 UNK        -0.1800 
    102 C         -8.0754  -22.7838  -54.9173 C.2       18 UNK         0.5000 
    103 O         -7.5945  -22.1748  -53.9595 O.2       18 UNK        -0.5000 
    104 N         -9.1582  -22.3649  -55.5844 N.am      19 UNK        -0.5000 
    105 CA        -9.8153  -21.0765  -55.3461 C.3       19 UNK         0.1400 
    106 CB       -11.2337  -21.1214  -55.9358 C.3       19 UNK        -0.1800 
    107 C         -9.0255  -19.8859  -55.9310 C.2       19 UNK         0.5000 
    108 O         -9.1495  -18.7699  -55.4246 O.2       19 UNK        -0.5000 
    109 N         -8.2416  -20.1401  -56.9872 N.am      20 UNK        -0.5000 
    110 CA        -7.3724  -19.1658  -57.6439 C.3       20 UNK         0.1400 
    111 CB        -7.2695  -19.5272  -59.1339 C.3       20 UNK        -0.1800 
    112 C         -5.9754  -19.1630  -57.0012 C.2       20 UNK         0.5000 
    113 O         -5.5205  -20.2063  -56.5236 O.2       20 UNK        -0.5000 
    114 N         -5.3075  -18.0006  -57.0407 N.am      21 UNK        -0.5000 
    115 CA        -3.9673  -17.7356  -56.5026 C.3       21 UNK         0.1400 
    116 CB        -2.8933  -18.4487  -57.3564 C.3       21 UNK        -0.1800 
    117 C         -3.8943  -18.0509  -54.9927 C.2       21 UNK         0.5000 
    118 O         -4.6109  -17.4153  -54.2173 O.2       21 UNK        -0.5000 
    119 N         -3.0642  -19.0276  -54.6076 N.am      22 UNK        -0.5000 
    120 CA        -2.9968  -19.5825  -53.2455 C.3       22 UNK         0.1400 
    121 C         -4.2217  -20.4555  -52.8424 C.2       22 UNK         0.5000 
    122 N         -5.1039  -20.8342  -53.7578 N.am      22 UNK        -0.7600 
    123 O         -4.3705  -20.7874  -51.6713 O.2       22 UNK        -0.5000 
    124 C124       -1.6760  -20.3611  -53.0125 C.3       23 UNK        -0.0398 
    125 S125       -0.2164  -19.2666  -52.9855 S.3       23 UNK        -0.2404 
    126 C126        0.1358  -19.1690  -51.1989 C.3       23 UNK        -0.0205 
    127 H127        3.2809  -10.5799  -45.0112 H         1 UNK         0.0600 
    128 H128        1.6655  -10.6804  -45.7136 H         1 UNK         0.0600 
    129 H129        2.8424   -9.5361  -46.3666 H         1 UNK         0.0600 
    130 H130        1.3656  -12.3522  -47.1746 H         1 UNK         0.3000 
    131 H131        3.3654  -13.1330  -49.0972 H         1 UNK         0.0600 
    132 H132        1.1283  -13.1851  -49.8692 H         1 UNK         0.0800 
    133 H133        1.6394  -14.8451  -49.7915 H         1 UNK         0.0800 
    134 H134       -2.2442  -14.1615  -49.1148 H         1 UNK         0.0800 
    135 H135       -1.0329  -14.2168  -50.3655 H         1 UNK         0.0800 
    136 H136        0.2307  -16.4957  -50.7131 H         1 UNK         0.1150 
    137 H137       -2.2165  -19.9489  -50.0464 H         1 UNK         0.1150 
    138 H138       -3.4587  -16.1320  -48.5592 H         1 UNK         0.1150 
    139 H139       -5.1136  -18.1256  -49.1447 H         1 UNK         0.0800 
    140 H140       -4.4246  -19.7233  -49.1382 H         1 UNK         0.0800 
    141 H141       -4.8732  -21.0593  -46.8857 H         1 UNK         0.0800 
    142 H142       -4.1305  -20.5217  -45.4059 H         1 UNK         0.0800 
    143 H143       -2.7354  -21.1019  -48.0606 H         1 UNK         0.0600 
    144 H144       -1.7352  -19.3474  -46.0788 H         1 UNK         0.3000 
    145 H145        1.7523  -20.0048  -46.6112 H         1 UNK         0.0600 
    146 H146        1.7261  -17.5423  -46.9510 H         1 UNK         0.0600 
    147 H147        1.1469  -18.3891  -48.3654 H         1 UNK         0.0600 
    148 H148        0.0001  -17.5898  -47.3046 H         1 UNK         0.0600 
    149 H149        0.1001  -18.3245  -44.8806 H         1 UNK         0.3000 
    150 H150        0.0695  -20.6259  -42.1733 H         1 UNK         0.0600 
    151 H151        2.3735  -19.6553  -41.9368 H         1 UNK         0.0600 
    152 H152        1.2035  -18.8866  -40.8742 H         1 UNK         0.0600 
    153 H153        1.7311  -18.0669  -42.3369 H         1 UNK         0.0600 
    154 H154       -0.6766  -17.8447  -42.5039 H         1 UNK         0.3000 
    155 H155       -3.9117  -18.4924  -43.8244 H         1 UNK         0.0600 
    156 H156       -4.7627  -17.3957  -41.7734 H         1 UNK         0.0600 
    157 H157       -3.2459  -17.7212  -40.9324 H         1 UNK         0.0600 
    158 H158       -4.2957  -19.0497  -41.4126 H         1 UNK         0.0600 
    159 H159       -2.8888  -16.0910  -42.8024 H         1 UNK         0.3000 
    160 H160       -0.6229  -15.1521  -45.3182 H         1 UNK         0.0600 
    161 H161       -3.5037  -14.1495  -44.9908 H         1 UNK         0.0600 
    162 H162       -2.8144  -14.7678  -46.4869 H         1 UNK         0.0600 
    163 H163       -2.1795  -13.2910  -45.7824 H         1 UNK         0.0600 
    164 H164       -1.6401  -13.4854  -43.3925 H         1 UNK         0.3000 
    165 H165       -0.7303  -12.9745  -41.5003 H         1 UNK         0.0600 
    166 H166       -0.2543  -13.8100  -39.2180 H         1 UNK         0.0600 
    167 H167       -1.4449  -14.8466  -39.9903 H         1 UNK         0.0600 
    168 H168        0.2263  -15.3817  -39.8548 H         1 UNK         0.0600 
    169 H169        1.8898  -13.7665  -40.6583 H         1 UNK         0.3000 
    170 H170        3.7475  -12.2503  -43.2709 H         1 UNK         0.0600 
    171 H171        3.2500  -10.3479  -41.7979 H         1 UNK         0.0600 
    172 H172        3.3706  -11.3587  -40.3675 H         1 UNK         0.0600 
    173 H173        4.7971  -11.0555  -41.3595 H         1 UNK         0.0600 
    174 H174        4.7119  -14.0621  -42.5953 H         1 UNK         0.3000 
    175 H175        5.8208  -15.3946  -39.8113 H         1 UNK         0.0600 
    176 H176        3.3219  -16.9272  -40.7188 H         1 UNK         0.0600 
    177 H177        4.7369  -17.6584  -39.9601 H         1 UNK         0.0600 
    178 H178        3.7455  -16.5243  -39.0605 H         1 UNK         0.0600 
    179 H179        5.1041  -16.6131  -42.3834 H         1 UNK         0.3000 
    180 H180        7.6793  -15.1413  -44.2333 H         1 UNK         0.0600 
    181 H181        8.3742  -17.4735  -44.7364 H         1 UNK         0.0600 
    182 H182        7.5788  -18.0539  -43.2724 H         1 UNK         0.0600 
    183 H183        8.9741  -16.9881  -43.1590 H         1 UNK         0.0600 
    184 H184        5.8086  -17.2401  -44.7918 H         1 UNK         0.3000 
    185 H185        3.9840  -16.7889  -46.1518 H         1 UNK         0.0600 
    186 H186        1.7975  -16.5945  -44.8313 H         1 UNK         0.0600 
    187 H187        3.1584  -17.1697  -43.8819 H         1 UNK         0.0600 
    188 H188        2.6129  -15.5046  -43.7221 H         1 UNK         0.0600 
    189 H189        2.5338  -14.2145  -45.9013 H         1 UNK         0.3000 
    190 H190       -1.8555  -21.7351  -44.6503 H         1 UNK         0.3000 
    191 H191       -2.5203  -24.4913  -44.6096 H         1 UNK         0.0600 
    192 H192       -1.0760  -24.5402  -42.5798 H         1 UNK         0.0600 
    193 H193       -2.1479  -23.1481  -42.5583 H         1 UNK         0.0600 
    194 H194       -0.4460  -22.9448  -42.9673 H         1 UNK         0.0600 
    195 H195        0.5844  -22.8358  -45.4007 H         1 UNK         0.3000 
    196 H196        2.1148  -25.1678  -45.8910 H         1 UNK         0.0600 
    197 H197        2.4237  -22.3454  -47.0430 H         1 UNK         0.0600 
    198 H198        3.1141  -22.9263  -45.5286 H         1 UNK         0.0600 
    199 H199        3.6586  -23.5972  -47.0584 H         1 UNK         0.0600 
    200 H200        0.0455  -23.2362  -48.0734 H         1 UNK         0.3000 
    201 H201        0.5549  -24.8001  -50.4426 H         1 UNK         0.0600 
    202 H202       -1.7355  -22.8870  -49.7324 H         1 UNK         0.0600 
    203 H203       -1.3450  -23.4684  -51.3468 H         1 UNK         0.0600 
    204 H204       -0.2115  -22.4360  -50.4952 H         1 UNK         0.0600 
    205 H205       -1.2609  -25.4817  -47.6432 H         1 UNK         0.3000 
    206 H206       -2.7578  -26.9490  -46.9704 H         1 UNK         0.0600 
    207 H207       -1.2160  -28.6359  -47.9796 H         1 UNK         0.0600 
    208 H208       -2.8890  -29.1677  -48.0405 H         1 UNK         0.0600 
    209 H209       -2.1121  -28.5629  -49.4963 H         1 UNK         0.0600 
    210 H210       -3.7786  -24.7466  -47.9911 H         1 UNK         0.3000 
    211 H211       -5.6123  -23.6991  -48.4909 H         1 UNK         0.0600 
    212 H212       -7.8114  -24.7932  -48.6469 H         1 UNK         0.0600 
    213 H213       -6.8941  -25.4799  -47.3148 H         1 UNK         0.0600 
    214 H214       -7.0673  -26.3724  -48.8268 H         1 UNK         0.0600 
    215 H215       -4.8983  -26.2867  -50.7680 H         1 UNK         0.3000 
    216 H216       -4.7480  -26.4539  -52.9650 H         1 UNK         0.0600 
    217 H217       -3.6554  -24.5759  -54.1533 H         1 UNK         0.0600 
    218 H218       -4.1598  -23.4491  -52.8918 H         1 UNK         0.0600 
    219 H219       -3.0022  -24.7243  -52.5397 H         1 UNK         0.0600 
    220 H220       -5.3960  -24.0756  -54.8298 H         1 UNK         0.3000 
    221 H221       -8.1639  -24.8671  -55.4480 H         1 UNK         0.0600 
    222 H222       -6.3773  -24.7698  -57.2310 H         1 UNK         0.0600 
    223 H223       -6.1711  -23.0466  -56.9215 H         1 UNK         0.0600 
    224 H224       -7.6886  -23.6582  -57.5695 H         1 UNK         0.0600 
    225 H225       -9.5172  -22.9220  -56.3464 H         1 UNK         0.3000 
    226 H226       -9.9015  -20.9197  -54.2686 H         1 UNK         0.0600 
    227 H227      -11.2174  -21.2837  -57.0143 H         1 UNK         0.0600 
    228 H228      -11.8236  -21.9192  -55.4841 H         1 UNK         0.0600 
    229 H229      -11.7620  -20.1848  -55.7529 H         1 UNK         0.0600 
    230 H230       -8.1536  -21.0952  -57.2982 H         1 UNK         0.3000 
    231 H231       -7.8072  -18.1676  -57.5575 H         1 UNK         0.0600 
    232 H232       -6.8323  -20.5160  -59.2797 H         1 UNK         0.0600 
    233 H233       -6.6449  -18.8104  -59.6686 H         1 UNK         0.0600 
    234 H234       -8.2504  -19.5206  -59.6097 H         1 UNK         0.0600 
    235 H235       -5.7746  -17.1973  -57.4374 H         1 UNK         0.3000 
    236 H236       -3.8003  -16.6615  -56.5961 H         1 UNK         0.0600 
    237 H237       -1.8883  -18.2069  -57.0080 H         1 UNK         0.0600 
    238 H238       -3.0018  -19.5337  -57.3401 H         1 UNK         0.0600 
    239 H239       -2.9535  -18.1307  -58.3973 H         1 UNK         0.0600 
    240 H240       -2.5193  -19.5036  -55.3107 H         1 UNK         0.3000 
    241 H241       -3.0111  -18.7369  -52.5558 H         1 UNK         0.0600 
    242 H242       -5.9169  -21.3791  -53.4872 H         1 UNK         0.3800 
    243 H243       -5.0244  -20.5456  -54.7281 H         1 UNK         0.3800 
    244 H244       -1.5354  -21.1081  -53.7952 H         1 UNK         0.0800 
    245 H245       -1.7047  -20.9238  -52.0791 H         1 UNK         0.0800 
    246 H246        1.1329  -18.7469  -51.0649 H         1 UNK         0.0800 
    247 H247        0.1773  -20.1684  -50.7660 H         1 UNK         0.0800 
@<TRIPOS>BOND
     1    1    2 1    
     2    1  127 1    
     3    1  128 1    
     4    1  129 1    
     5    2    3 2    
     6    2    4 am   BACKBONE|DICT|INTERRES
     7    4    5 1    
     8    4  130 1    
     9    5    6 1    
    10    5   65 1    
    11    5  131 1    
    12    6    7 1    
    13    6  132 1    
    14    6  133 1    
    15    7    8 1    
    16    8    9 1    
    17    8  134 1    
    18    8  135 1    
    19    9   10 ar   
    20    9   14 ar   
    21   10   11 ar   
    22   10  136 1    
    23   11   12 ar   
    24   11  126 1    
    25   12   13 ar   
    26   12  137 1    
    27   13   14 ar   
    28   13   15 1    
    29   14  138 1    
    30   15   16 1    
    31   15  139 1    
    32   15  140 1    
    33   16   17 1    
    34   17   18 1    
    35   17  141 1    
    36   17  142 1    
    37   18   19 1    
    38   18   67 1    
    39   18  143 1    
    40   19   20 am   BACKBONE|DICT|INTERRES
    41   19  144 1    
    42   20   21 2    
    43   20   22 1    
    44   22   23 1    
    45   22   24 1    
    46   22  145 1    
    47   23  146 1    
    48   23  147 1    
    49   23  148 1    
    50   24   25 am   BACKBONE|DICT|INTERRES
    51   24  149 1    
    52   25   26 2    
    53   25   27 1    
    54   27   28 1    
    55   27   29 1    
    56   27  150 1    
    57   28  151 1    
    58   28  152 1    
    59   28  153 1    
    60   29   30 am   BACKBONE|DICT|INTERRES
    61   29  154 1    
    62   30   31 2    
    63   30   32 1    
    64   32   33 1    
    65   32   34 1    
    66   32  155 1    
    67   33  156 1    
    68   33  157 1    
    69   33  158 1    
    70   34   35 am   BACKBONE|DICT|INTERRES
    71   34  159 1    
    72   35   36 2    
    73   35   37 1    
    74   37   38 1    
    75   37   39 1    
    76   37  160 1    
    77   38  161 1    
    78   38  162 1    
    79   38  163 1    
    80   39   40 am   BACKBONE|DICT|INTERRES
    81   39  164 1    
    82   40   41 2    
    83   40   42 1    
    84   42   43 1    
    85   42   44 1    
    86   42  165 1    
    87   43  166 1    
    88   43  167 1    
    89   43  168 1    
    90   44   45 am   BACKBONE|DICT|INTERRES
    91   44  169 1    
    92   45   46 2    
    93   45   47 1    
    94   47   48 1    
    95   47   49 1    
    96   47  170 1    
    97   48  171 1    
    98   48  172 1    
    99   48  173 1    
   100   49   50 am   BACKBONE|DICT|INTERRES
   101   49  174 1    
   102   50   51 2    
   103   50   52 1    
   104   52   53 1    
   105   52   54 1    
   106   52  175 1    
   107   53  176 1    
   108   53  177 1    
   109   53  178 1    
   110   54   55 am   BACKBONE|DICT|INTERRES
   111   54  179 1    
   112   55   56 2    
   113   55   57 1    
   114   57   58 1    
   115   57   59 1    
   116   57  180 1    
   117   58  181 1    
   118   58  182 1    
   119   58  183 1    
   120   59   60 am   BACKBONE|DICT|INTERRES
   121   59  184 1    
   122   60   61 2    
   123   60   62 1    
   124   62   63 1    
   125   62   64 1    
   126   62  185 1    
   127   63  186 1    
   128   63  187 1    
   129   63  188 1    
   130   64   65 am   BACKBONE|DICT|INTERRES
   131   64  189 1    
   132   65   66 2    
   133   67   68 2    
   134   67   69 am   BACKBONE|DICT|INTERRES
   135   69   70 1    
   136   69  190 1    
   137   70   71 1    
   138   70   72 1    
   139   70  191 1    
   140   71  192 1    
   141   71  193 1    
   142   71  194 1    
   143   72   73 2    
   144   72   74 am   BACKBONE|DICT|INTERRES
   145   74   75 1    
   146   74  195 1    
   147   75   76 1    
   148   75   77 1    
   149   75  196 1    
   150   76  197 1    
   151   76  198 1    
   152   76  199 1    
   153   77   78 2    
   154   77   79 am   BACKBONE|DICT|INTERRES
   155   79   80 1    
   156   79  200 1    
   157   80   81 1    
   158   80   82 1    
   159   80  201 1    
   160   81  202 1    
   161   81  203 1    
   162   81  204 1    
   163   82   83 2    
   164   82   84 am   BACKBONE|DICT|INTERRES
   165   84   85 1    
   166   84  205 1    
   167   85   86 1    
   168   85   87 1    
   169   85  206 1    
   170   86  207 1    
   171   86  208 1    
   172   86  209 1    
   173   87   88 2    
   174   87   89 am   BACKBONE|DICT|INTERRES
   175   89   90 1    
   176   89  210 1    
   177   90   91 1    
   178   90   92 1    
   179   90  211 1    
   180   91  212 1    
   181   91  213 1    
   182   91  214 1    
   183   92   93 2    
   184   92   94 am   BACKBONE|DICT|INTERRES
   185   94   95 1    
   186   94  215 1    
   187   95   96 1    
   188   95   97 1    
   189   95  216 1    
   190   96  217 1    
   191   96  218 1    
   192   96  219 1    
   193   97   98 2    
   194   97   99 am   BACKBONE|DICT|INTERRES
   195   99  100 1    
   196   99  220 1    
   197  100  101 1    
   198  100  102 1    
   199  100  221 1    
   200  101  222 1    
   201  101  223 1    
   202  101  224 1    
   203  102  103 2    
   204  102  104 am   BACKBONE|DICT|INTERRES
   205  104  105 1    
   206  104  225 1    
   207  105  106 1    
   208  105  107 1    
   209  105  226 1    
   210  106  227 1    
   211  106  228 1    
   212  106  229 1    
   213  107  108 2    
   214  107  109 am   BACKBONE|DICT|INTERRES
   215  109  110 1    
   216  109  230 1    
   217  110  111 1    
   218  110  112 1    
   219  110  231 1    
   220  111  232 1    
   221  111  233 1    
   222  111  234 1    
   223  112  113 2    
   224  112  114 am   BACKBONE|DICT|INTERRES
   225  114  115 1    
   226  114  235 1    
   227  115  116 1    
   228  115  117 1    
   229  115  236 1    
   230  116  237 1    
   231  116  238 1    
   232  116  239 1    
   233  117  118 2    
   234  117  119 am   BACKBONE|DICT|INTERRES
   235  119  120 1    
   236  119  240 1    
   237  120  121 1    
   238  120  124 1    
   239  120  241 1    
   240  121  122 am   BACKBONE|DICT|INTERRES
   241  121  123 2    
   242  122  242 1    
   243  122  243 1    
   244  124  125 1    
   245  124  244 1    
   246  124  245 1    
   247  125  126 1    
   248  126  246 1    
   249  126  247 1    
@<TRIPOS>SUBSTRUCTURE
     1 UNK         1 GROUP             0       ****    0 ROOT    
