@<TRIPOS>MOLECULE
3R540
247   249    1
SMALL
USER_CHARGES


@<TRIPOS>ATOM
      1 CA         -5.3012  -18.7866  -43.1835 C.3       0 UNK        -0.1800 
      2 C          -5.4789  -17.2856  -43.3645 C.2       0 UNK         0.5000 
      3 O          -5.7315  -16.5755  -42.3916 O.2       0 UNK        -0.5000 
      4 N          -5.3435  -16.8014  -44.6058 N.am      1 UNK        -0.5000 
      5 CA         -5.4203  -15.3823  -44.9744 C.3       1 UNK         0.1400 
      6 C6         -5.6301  -15.1811  -46.4992 C.3       23 UNK        -0.0398 
      7 S7         -4.5134  -16.1738  -47.5531 S.3       23 UNK        -0.2404 
      8 C8         -3.2426  -14.9523  -48.0055 C.3       23 UNK        -0.0205 
      9 C9         -2.0695  -15.6336  -48.6904 C.ar      23 UNK        -0.0193 
     10 C10        -1.8130  -15.4196  -50.0479 C.ar      23 UNK        -0.1150 
     11 C11        -0.7639  -16.0909  -50.6837 C.ar      23 UNK        -0.0193 
     12 C12         0.0291  -16.9802  -49.9543 C.ar      23 UNK        -0.1150 
     13 C13        -0.2324  -17.2163  -48.6027 C.ar      23 UNK        -0.0193 
     14 C14        -1.2626  -16.5175  -47.9686 C.ar      23 UNK        -0.1150 
     15 C15         0.5422  -18.2838  -47.8455 C.3       23 UNK        -0.0205 
     16 S16         0.2476  -19.9586  -48.5113 S.3       23 UNK        -0.2404 
     17 C17        -1.5751  -20.0781  -48.5659 C.3       23 UNK        -0.0398 
     18 CA         -2.1603  -20.9994  -47.4734 C.3       11 UNK         0.1400 
     19 N          -1.8232  -20.5391  -46.1182 N.am      11 UNK        -0.5000 
     20 C          -2.2157  -21.0990  -44.9665 C.2       10 UNK         0.5000 
     21 O          -3.0559  -21.9965  -44.8953 O.2       10 UNK        -0.5000 
     22 CA         -1.5251  -20.5744  -43.6921 C.3       10 UNK         0.1400 
     23 CB         -2.2114  -21.0596  -42.3981 C.3       10 UNK        -0.1800 
     24 N          -0.0944  -20.9034  -43.6658 N.am      10 UNK        -0.5000 
     25 C           0.4628  -22.1244  -43.7346 C.2       9 UNK         0.5000 
     26 O          -0.1845  -23.1677  -43.8259 O.2       9 UNK        -0.5000 
     27 CA          2.0022  -22.2217  -43.6395 C.3       9 UNK         0.1400 
     28 CB          2.5845  -23.1522  -44.7252 C.3       9 UNK        -0.1800 
     29 N           2.7233  -20.9399  -43.6062 N.am      9 UNK        -0.5000 
     30 C           2.8380  -20.0448  -44.5956 C.2       8 UNK         0.5000 
     31 O           2.2616  -20.1340  -45.6807 O.2       8 UNK        -0.5000 
     32 CA          3.7496  -18.8429  -44.3163 C.3       8 UNK         0.1400 
     33 CB          5.2360  -19.2389  -44.3580 C.3       8 UNK        -0.1800 
     34 N           3.4872  -17.8161  -45.3167 N.am      8 UNK        -0.5000 
     35 C           3.6570  -16.5051  -45.1416 C.2       7 UNK         0.5000 
     36 O           4.0588  -16.0032  -44.0880 O.2       7 UNK        -0.5000 
     37 CA          3.2526  -15.5998  -46.3170 C.3       7 UNK         0.1400 
     38 CB          1.7839  -15.1789  -46.1712 C.3       7 UNK        -0.1800 
     39 N           4.0773  -14.3977  -46.3250 N.am      7 UNK        -0.5000 
     40 C           5.3169  -14.3140  -46.8255 C.2       6 UNK         0.5000 
     41 O           5.8391  -15.1823  -47.5253 O.2       6 UNK        -0.5000 
     42 CA          6.1175  -13.0559  -46.4298 C.3       6 UNK         0.1400 
     43 CB          5.8536  -11.9075  -47.4155 C.3       6 UNK        -0.1800 
     44 N           5.7859  -12.6176  -45.0698 N.am      6 UNK        -0.5000 
     45 C           6.1174  -13.3000  -43.9641 C.2       5 UNK         0.5000 
     46 O           6.9085  -14.2460  -43.9651 O.2       5 UNK        -0.5000 
     47 CA          5.4351  -12.8953  -42.6463 C.3       5 UNK         0.1400 
     48 CB          4.2731  -11.8911  -42.8055 C.3       5 UNK        -0.1800 
     49 N           4.9420  -14.1117  -42.0073 N.am      5 UNK        -0.5000 
     50 C           4.8923  -14.3280  -40.6889 C.2       4 UNK         0.5000 
     51 O           5.2353  -13.4914  -39.8505 O.2       4 UNK        -0.5000 
     52 CA          4.3841  -15.7162  -40.2380 C.3       4 UNK         0.1400 
     53 CB          4.0022  -15.7631  -38.7430 C.3       4 UNK        -0.1800 
     54 N           3.2925  -16.2467  -41.0656 N.am      4 UNK        -0.5000 
     55 C           2.0841  -15.6999  -41.2583 C.2       3 UNK         0.5000 
     56 O           1.7161  -14.6312  -40.7614 O.2       3 UNK        -0.5000 
     57 CA          1.1106  -16.4975  -42.1418 C.3       3 UNK         0.1400 
     58 CB          0.5272  -17.7015  -41.3759 C.3       3 UNK        -0.1800 
     59 N           0.0492  -15.5960  -42.5716 N.am      3 UNK        -0.5000 
     60 C          -0.8483  -15.8199  -43.5332 C.2       2 UNK         0.5000 
     61 O          -0.9261  -16.8664  -44.1845 O.2       2 UNK        -0.5000 
     62 CA         -1.8060  -14.6601  -43.8326 C.3       2 UNK         0.1400 
     63 CB         -1.1755  -13.6731  -44.8328 C.3       2 UNK        -0.1800 
     64 N          -3.0449  -15.2108  -44.3646 N.am      2 UNK        -0.5000 
     65 C          -4.2165  -14.5696  -44.4510 C.2       1 UNK         0.5000 
     66 O          -4.3783  -13.3929  -44.1243 O.2       1 UNK        -0.5000 
     67 C          -3.6631  -21.2254  -47.7501 C.2       11 UNK         0.5000 
     68 O          -3.9882  -22.1080  -48.5435 O.2       11 UNK        -0.5000 
     69 N          -4.5524  -20.4487  -47.1163 N.am      12 UNK        -0.5000 
     70 CA         -6.0043  -20.6159  -47.2477 C.3       12 UNK         0.1400 
     71 CB         -6.7217  -19.3285  -46.8199 C.3       12 UNK        -0.1800 
     72 C          -6.5468  -21.8238  -46.4607 C.2       12 UNK         0.5000 
     73 O          -7.5136  -22.4435  -46.9030 O.2       12 UNK        -0.5000 
     74 N          -5.9113  -22.1504  -45.3272 N.am      13 UNK        -0.5000 
     75 CA         -6.2428  -23.3105  -44.4982 C.3       13 UNK         0.1400 
     76 CB         -5.7786  -23.0577  -43.0551 C.3       13 UNK        -0.1800 
     77 C          -5.6102  -24.5942  -45.0626 C.2       13 UNK         0.5000 
     78 O          -6.2415  -25.6508  -45.0353 O.2       13 UNK        -0.5000 
     79 N          -4.3888  -24.4668  -45.5999 N.am      14 UNK        -0.5000 
     80 CA         -3.6517  -25.5287  -46.2885 C.3       14 UNK         0.1400 
     81 CB         -2.1768  -25.1101  -46.3908 C.3       14 UNK        -0.1800 
     82 C          -4.2111  -25.8592  -47.6888 C.2       14 UNK         0.5000 
     83 O          -3.8456  -26.8911  -48.2518 O.2       14 UNK        -0.5000 
     84 N          -5.0582  -24.9691  -48.2281 N.am      15 UNK        -0.5000 
     85 CA         -5.6851  -24.9937  -49.5556 C.3       15 UNK         0.1400 
     86 CB         -6.5448  -26.2579  -49.7580 C.3       15 UNK        -0.1800 
     87 C          -4.6991  -24.7531  -50.7185 C.2       15 UNK         0.5000 
     88 O          -5.0602  -24.9545  -51.8777 O.2       15 UNK        -0.5000 
     89 N          -3.4943  -24.2600  -50.4068 N.am      16 UNK        -0.5000 
     90 CA         -2.4865  -23.8269  -51.3728 C.3       16 UNK         0.1400 
     91 CB         -1.1555  -23.5916  -50.6445 C.3       16 UNK        -0.1800 
     92 C          -2.9271  -22.5656  -52.1376 C.2       16 UNK         0.5000 
     93 O          -2.6517  -22.4506  -53.3316 O.2       16 UNK        -0.5000 
     94 N          -3.6503  -21.6650  -51.4554 N.am      17 UNK        -0.5000 
     95 CA         -4.2482  -20.4740  -52.0627 C.3       17 UNK         0.1400 
     96 CB         -4.7445  -19.5213  -50.9651 C.3       17 UNK        -0.1800 
     97 C          -5.3867  -20.8345  -53.0362 C.2       17 UNK         0.5000 
     98 O          -5.4954  -20.2205  -54.0969 O.2       17 UNK        -0.5000 
     99 N          -6.1781  -21.8598  -52.6849 N.am      18 UNK        -0.5000 
    100 CA        -7.2403  -22.4208  -53.5252 C.3       18 UNK         0.1400 
    101 CB        -8.1366  -23.3364  -52.6773 C.3       18 UNK        -0.1800 
    102 C         -6.6847  -23.1718  -54.7511 C.2       18 UNK         0.5000 
    103 O         -7.2763  -23.1015  -55.8284 O.2       18 UNK        -0.5000 
    104 N         -5.5310  -23.8319  -54.5769 N.am      19 UNK        -0.5000 
    105 CA        -4.7473  -24.4723  -55.6371 C.3       19 UNK         0.1400 
    106 CB        -3.7768  -25.4770  -54.9957 C.3       19 UNK        -0.1800 
    107 C         -3.9815  -23.4728  -56.5336 C.2       19 UNK         0.5000 
    108 O         -3.3784  -23.8970  -57.5202 O.2       19 UNK        -0.5000 
    109 N         -4.0182  -22.1788  -56.1816 N.am      20 UNK        -0.5000 
    110 CA        -3.3966  -21.0419  -56.8626 C.3       20 UNK         0.1400 
    111 CB        -3.9726  -20.8560  -58.2822 C.3       20 UNK        -0.1800 
    112 C         -1.8556  -21.0761  -56.8283 C.2       20 UNK         0.5000 
    113 O         -1.2072  -20.6449  -57.7851 O.2       20 UNK        -0.5000 
    114 N         -1.2853  -21.5291  -55.7000 N.am      21 UNK        -0.5000 
    115 CA         0.1601  -21.5405  -55.4332 C.3       21 UNK         0.1400 
    116 CB         0.4278  -22.2729  -54.1099 C.3       21 UNK        -0.1800 
    117 C          0.7996  -20.1352  -55.4054 C.2       21 UNK         0.5000 
    118 O          2.0136  -20.0163  -55.5752 O.2       21 UNK        -0.5000 
    119 N         -0.0323  -19.1021  -55.2206 N.am      22 UNK        -0.5000 
    120 CA         0.3125  -17.6790  -55.3520 C.3       22 UNK         0.1400 
    121 C          0.7100  -17.2420  -56.7950 C.2       22 UNK         0.5000 
    122 N          0.4067  -18.0093  -57.8374 N.am      22 UNK        -0.7600 
    123 O          1.3055  -16.1826  -56.9704 O.2       22 UNK        -0.5000 
    124 C124       -0.8249  -16.7653  -54.8235 C.3       23 UNK        -0.0398 
    125 S125       -1.3674  -17.1804  -53.1312 S.3       23 UNK        -0.2404 
    126 C126       -0.5129  -15.8965  -52.1686 C.3       23 UNK        -0.0205 
    127 H127       -4.7855  -18.9895  -42.2452 H         1 UNK         0.0600 
    128 H128       -4.7171  -19.2244  -43.9925 H         1 UNK         0.0600 
    129 H129       -6.2723  -19.2806  -43.1510 H         1 UNK         0.0600 
    130 H130       -5.1442  -17.4230  -45.3746 H         1 UNK         0.3000 
    131 H131       -6.3011  -14.9696  -44.4772 H         1 UNK         0.0600 
    132 H132       -6.6483  -15.4784  -46.7530 H         1 UNK         0.0800 
    133 H133       -5.5641  -14.1263  -46.7732 H         1 UNK         0.0800 
    134 H134       -3.6864  -14.1948  -48.6532 H         1 UNK         0.0800 
    135 H135       -2.8869  -14.4322  -47.1175 H         1 UNK         0.0800 
    136 H136       -2.4427  -14.7497  -50.6163 H         1 UNK         0.1150 
    137 H137        0.8177  -17.5282  -50.4508 H         1 UNK         0.1150 
    138 H138       -1.4755  -16.6999  -46.9243 H         1 UNK         0.1150 
    139 H139        1.6082  -18.0649  -47.9091 H         1 UNK         0.0800 
    140 H140        0.2874  -18.2731  -46.7847 H         1 UNK         0.0800 
    141 H141       -1.8236  -20.4546  -49.5594 H         1 UNK         0.0800 
    142 H142       -2.0360  -19.0931  -48.5075 H         1 UNK         0.0800 
    143 H143       -1.6840  -21.9750  -47.5797 H         1 UNK         0.0600 
    144 H144       -1.1027  -19.8334  -46.0746 H         1 UNK         0.3000 
    145 H145       -1.6036  -19.4868  -43.7175 H         1 UNK         0.0600 
    146 H146       -1.7585  -20.6029  -41.5182 H         1 UNK         0.0600 
    147 H147       -3.2690  -20.7987  -42.3924 H         1 UNK         0.0600 
    148 H148       -2.1491  -22.1420  -42.2830 H         1 UNK         0.0600 
    149 H149        0.5356  -20.1168  -43.6236 H         1 UNK         0.3000 
    150 H150        2.2018  -22.6911  -42.6751 H         1 UNK         0.0600 
    151 H151        2.3562  -22.7965  -45.7303 H         1 UNK         0.0600 
    152 H152        2.1761  -24.1597  -44.6388 H         1 UNK         0.0600 
    153 H153        3.6676  -23.2353  -44.6354 H         1 UNK         0.0600 
    154 H154        3.2232  -20.7632  -42.7457 H         1 UNK         0.3000 
    155 H155        3.5039  -18.4606  -43.3244 H         1 UNK         0.0600 
    156 H156        5.5177  -19.6318  -45.3357 H         1 UNK         0.0600 
    157 H157        5.4630  -20.0062  -43.6170 H         1 UNK         0.0600 
    158 H158        5.8783  -18.3842  -44.1442 H         1 UNK         0.0600 
    159 H159        3.0872  -18.1778  -46.1732 H         1 UNK         0.3000 
    160 H160        3.3799  -16.1425  -47.2561 H         1 UNK         0.0600 
    161 H161        1.6308  -14.5800  -45.2731 H         1 UNK         0.0600 
    162 H162        1.1284  -16.0459  -46.0956 H         1 UNK         0.0600 
    163 H163        1.4520  -14.5934  -47.0289 H         1 UNK         0.0600 
    164 H164        3.7622  -13.6473  -45.7304 H         1 UNK         0.3000 
    165 H165        7.1802  -13.3050  -46.4686 H         1 UNK         0.0600 
    166 H166        6.4549  -11.0318  -47.1703 H         1 UNK         0.0600 
    167 H167        6.1102  -12.2023  -48.4338 H         1 UNK         0.0600 
    168 H168        4.8052  -11.6066  -47.4152 H         1 UNK         0.0600 
    169 H169        5.1596  -11.8302  -44.9851 H         1 UNK         0.3000 
    170 H170        6.2094  -12.4402  -42.0254 H         1 UNK         0.0600 
    171 H171        3.4785  -12.2886  -43.4385 H         1 UNK         0.0600 
    172 H172        3.8305  -11.6529  -41.8380 H         1 UNK         0.0600 
    173 H173        4.6143  -10.9492  -43.2363 H         1 UNK         0.0600 
    174 H174        4.6787  -14.8607  -42.6449 H         1 UNK         0.3000 
    175 H175        5.2253  -16.3965  -40.3783 H         1 UNK         0.0600 
    176 H176        3.2006  -15.0625  -38.5075 H         1 UNK         0.0600 
    177 H177        3.6725  -16.7602  -38.4514 H         1 UNK         0.0600 
    178 H178        4.8546  -15.5081  -38.1124 H         1 UNK         0.0600 
    179 H179        3.5095  -17.1042  -41.5504 H         1 UNK         0.3000 
    180 H180        1.6429  -16.8495  -43.0253 H         1 UNK         0.0600 
    181 H181       -0.0252  -17.3811  -40.4918 H         1 UNK         0.0600 
    182 H182        1.3158  -18.3771  -41.0430 H         1 UNK         0.0600 
    183 H183       -0.1513  -18.2843  -41.9975 H         1 UNK         0.0600 
    184 H184        0.0711  -14.7042  -42.0901 H         1 UNK         0.3000 
    185 H185       -2.0281  -14.1410  -42.8977 H         1 UNK         0.0600 
    186 H186       -1.8456  -12.8435  -45.0570 H         1 UNK         0.0600 
    187 H187       -0.2586  -13.2421  -44.4299 H         1 UNK         0.0600 
    188 H188       -0.9240  -14.1626  -45.7739 H         1 UNK         0.0600 
    189 H189       -2.9854  -16.1863  -44.6262 H         1 UNK         0.3000 
    190 H190       -4.2160  -19.7331  -46.4917 H         1 UNK         0.3000 
    191 H191       -6.2398  -20.7885  -48.2992 H         1 UNK         0.0600 
    192 H192       -6.3854  -18.4749  -47.4070 H         1 UNK         0.0600 
    193 H193       -7.7982  -19.4168  -46.9719 H         1 UNK         0.0600 
    194 H194       -6.5627  -19.1077  -45.7660 H         1 UNK         0.0600 
    195 H195       -5.0572  -21.6632  -45.0850 H         1 UNK         0.3000 
    196 H196       -7.3268  -23.4432  -44.4856 H         1 UNK         0.0600 
    197 H197       -6.0654  -23.8850  -42.4049 H         1 UNK         0.0600 
    198 H198       -6.2296  -22.1524  -42.6485 H         1 UNK         0.0600 
    199 H199       -4.6956  -22.9512  -42.9886 H         1 UNK         0.0600 
    200 H200       -3.9150  -23.5723  -45.5024 H         1 UNK         0.3000 
    201 H201       -3.7113  -26.4372  -45.6857 H         1 UNK         0.0600 
    202 H202       -1.5743  -25.8998  -46.8415 H         1 UNK         0.0600 
    203 H203       -1.7560  -24.9021  -45.4067 H         1 UNK         0.0600 
    204 H204       -2.0553  -24.2159  -47.0012 H         1 UNK         0.0600 
    205 H205       -5.2496  -24.1399  -47.6834 H         1 UNK         0.3000 
    206 H206       -6.3630  -24.1391  -49.5690 H         1 UNK         0.0600 
    207 H207       -7.2342  -26.4030  -48.9263 H         1 UNK         0.0600 
    208 H208       -7.1447  -26.1812  -50.6655 H         1 UNK         0.0600 
    209 H209       -5.9338  -27.1558  -49.8505 H         1 UNK         0.0600 
    210 H210       -3.3233  -24.0353  -49.4366 H         1 UNK         0.3000 
    211 H211       -2.3418  -24.6285  -52.0992 H         1 UNK         0.0600 
    212 H212       -1.2383  -22.8097  -49.8905 H         1 UNK         0.0600 
    213 H213       -0.3738  -23.2925  -51.3433 H         1 UNK         0.0600 
    214 H214       -0.8143  -24.4996  -50.1470 H         1 UNK         0.0600 
    215 H215       -3.8488  -21.8417  -50.4758 H         1 UNK         0.3000 
    216 H216       -3.4728  -19.9567  -52.6327 H         1 UNK         0.0600 
    217 H217       -5.1692  -18.6156  -51.3998 H         1 UNK         0.0600 
    218 H218       -3.9314  -19.2106  -50.3097 H         1 UNK         0.0600 
    219 H219       -5.5173  -19.9826  -50.3515 H         1 UNK         0.0600 
    220 H220       -6.0001  -22.3255  -51.8088 H         1 UNK         0.3000 
    221 H221       -7.8526  -21.5944  -53.8925 H         1 UNK         0.0600 
    222 H222       -7.5890  -24.1938  -52.2870 H         1 UNK         0.0600 
    223 H223       -8.5650  -22.7977  -51.8320 H         1 UNK         0.0600 
    224 H224       -8.9667  -23.7229  -53.2700 H         1 UNK         0.0600 
    225 H225       -5.1594  -23.9131  -53.6369 H         1 UNK         0.3000 
    226 H226       -5.4324  -25.0265  -56.2817 H         1 UNK         0.0600 
    227 H227       -3.2395  -26.0436  -55.7570 H         1 UNK         0.0600 
    228 H228       -3.0332  -24.9758  -54.3768 H         1 UNK         0.0600 
    229 H229       -4.3063  -26.1957  -54.3700 H         1 UNK         0.0600 
    230 H230       -4.5233  -21.9454  -55.3374 H         1 UNK         0.3000 
    231 H231       -3.6820  -20.1620  -56.2846 H         1 UNK         0.0600 
    232 H232       -3.6681  -21.6587  -58.9541 H         1 UNK         0.0600 
    233 H233       -3.6320  -19.9178  -58.7217 H         1 UNK         0.0600 
    234 H234       -5.0622  -20.8272  -58.2644 H         1 UNK         0.0600 
    235 H235       -1.8807  -21.8681  -54.9469 H         1 UNK         0.3000 
    236 H236        0.6391  -22.1015  -56.2381 H         1 UNK         0.0600 
    237 H237        0.0005  -23.2759  -54.1175 H         1 UNK         0.0600 
    238 H238        1.4985  -22.3765  -53.9299 H         1 UNK         0.0600 
    239 H239        0.0050  -21.7312  -53.2631 H         1 UNK         0.0600 
    240 H240       -1.0057  -19.3051  -55.0535 H         1 UNK         0.3000 
    241 H241        1.1918  -17.5080  -54.7283 H         1 UNK         0.0600 
    242 H242       -0.0860  -18.8874  -57.7205 H         1 UNK         0.3800 
    243 H243        0.6738  -17.7113  -58.7623 H         1 UNK         0.3800 
    244 H244       -0.5196  -15.7177  -54.8535 H         1 UNK         0.0800 
    245 H245       -1.6981  -16.8398  -55.4741 H         1 UNK         0.0800 
    246 H246       -0.8562  -14.9103  -52.4850 H         1 UNK         0.0800 
    247 H247        0.5581  -15.9366  -52.3736 H         1 UNK         0.0800 
@<TRIPOS>BOND
     1    1    2 1    
     2    1  127 1    
     3    1  128 1    
     4    1  129 1    
     5    2    3 2    
     6    2    4 am   BACKBONE|DICT|INTERRES
     7    4    5 1    
     8    4  130 1    
     9    5    6 1    
    10    5   65 1    
    11    5  131 1    
    12    6    7 1    
    13    6  132 1    
    14    6  133 1    
    15    7    8 1    
    16    8    9 1    
    17    8  134 1    
    18    8  135 1    
    19    9   10 ar   
    20    9   14 ar   
    21   10   11 ar   
    22   10  136 1    
    23   11   12 ar   
    24   11  126 1    
    25   12   13 ar   
    26   12  137 1    
    27   13   14 ar   
    28   13   15 1    
    29   14  138 1    
    30   15   16 1    
    31   15  139 1    
    32   15  140 1    
    33   16   17 1    
    34   17   18 1    
    35   17  141 1    
    36   17  142 1    
    37   18   19 1    
    38   18   67 1    
    39   18  143 1    
    40   19   20 am   BACKBONE|DICT|INTERRES
    41   19  144 1    
    42   20   21 2    
    43   20   22 1    
    44   22   23 1    
    45   22   24 1    
    46   22  145 1    
    47   23  146 1    
    48   23  147 1    
    49   23  148 1    
    50   24   25 am   BACKBONE|DICT|INTERRES
    51   24  149 1    
    52   25   26 2    
    53   25   27 1    
    54   27   28 1    
    55   27   29 1    
    56   27  150 1    
    57   28  151 1    
    58   28  152 1    
    59   28  153 1    
    60   29   30 am   BACKBONE|DICT|INTERRES
    61   29  154 1    
    62   30   31 2    
    63   30   32 1    
    64   32   33 1    
    65   32   34 1    
    66   32  155 1    
    67   33  156 1    
    68   33  157 1    
    69   33  158 1    
    70   34   35 am   BACKBONE|DICT|INTERRES
    71   34  159 1    
    72   35   36 2    
    73   35   37 1    
    74   37   38 1    
    75   37   39 1    
    76   37  160 1    
    77   38  161 1    
    78   38  162 1    
    79   38  163 1    
    80   39   40 am   BACKBONE|DICT|INTERRES
    81   39  164 1    
    82   40   41 2    
    83   40   42 1    
    84   42   43 1    
    85   42   44 1    
    86   42  165 1    
    87   43  166 1    
    88   43  167 1    
    89   43  168 1    
    90   44   45 am   BACKBONE|DICT|INTERRES
    91   44  169 1    
    92   45   46 2    
    93   45   47 1    
    94   47   48 1    
    95   47   49 1    
    96   47  170 1    
    97   48  171 1    
    98   48  172 1    
    99   48  173 1    
   100   49   50 am   BACKBONE|DICT|INTERRES
   101   49  174 1    
   102   50   51 2    
   103   50   52 1    
   104   52   53 1    
   105   52   54 1    
   106   52  175 1    
   107   53  176 1    
   108   53  177 1    
   109   53  178 1    
   110   54   55 am   BACKBONE|DICT|INTERRES
   111   54  179 1    
   112   55   56 2    
   113   55   57 1    
   114   57   58 1    
   115   57   59 1    
   116   57  180 1    
   117   58  181 1    
   118   58  182 1    
   119   58  183 1    
   120   59   60 am   BACKBONE|DICT|INTERRES
   121   59  184 1    
   122   60   61 2    
   123   60   62 1    
   124   62   63 1    
   125   62   64 1    
   126   62  185 1    
   127   63  186 1    
   128   63  187 1    
   129   63  188 1    
   130   64   65 am   BACKBONE|DICT|INTERRES
   131   64  189 1    
   132   65   66 2    
   133   67   68 2    
   134   67   69 am   BACKBONE|DICT|INTERRES
   135   69   70 1    
   136   69  190 1    
   137   70   71 1    
   138   70   72 1    
   139   70  191 1    
   140   71  192 1    
   141   71  193 1    
   142   71  194 1    
   143   72   73 2    
   144   72   74 am   BACKBONE|DICT|INTERRES
   145   74   75 1    
   146   74  195 1    
   147   75   76 1    
   148   75   77 1    
   149   75  196 1    
   150   76  197 1    
   151   76  198 1    
   152   76  199 1    
   153   77   78 2    
   154   77   79 am   BACKBONE|DICT|INTERRES
   155   79   80 1    
   156   79  200 1    
   157   80   81 1    
   158   80   82 1    
   159   80  201 1    
   160   81  202 1    
   161   81  203 1    
   162   81  204 1    
   163   82   83 2    
   164   82   84 am   BACKBONE|DICT|INTERRES
   165   84   85 1    
   166   84  205 1    
   167   85   86 1    
   168   85   87 1    
   169   85  206 1    
   170   86  207 1    
   171   86  208 1    
   172   86  209 1    
   173   87   88 2    
   174   87   89 am   BACKBONE|DICT|INTERRES
   175   89   90 1    
   176   89  210 1    
   177   90   91 1    
   178   90   92 1    
   179   90  211 1    
   180   91  212 1    
   181   91  213 1    
   182   91  214 1    
   183   92   93 2    
   184   92   94 am   BACKBONE|DICT|INTERRES
   185   94   95 1    
   186   94  215 1    
   187   95   96 1    
   188   95   97 1    
   189   95  216 1    
   190   96  217 1    
   191   96  218 1    
   192   96  219 1    
   193   97   98 2    
   194   97   99 am   BACKBONE|DICT|INTERRES
   195   99  100 1    
   196   99  220 1    
   197  100  101 1    
   198  100  102 1    
   199  100  221 1    
   200  101  222 1    
   201  101  223 1    
   202  101  224 1    
   203  102  103 2    
   204  102  104 am   BACKBONE|DICT|INTERRES
   205  104  105 1    
   206  104  225 1    
   207  105  106 1    
   208  105  107 1    
   209  105  226 1    
   210  106  227 1    
   211  106  228 1    
   212  106  229 1    
   213  107  108 2    
   214  107  109 am   BACKBONE|DICT|INTERRES
   215  109  110 1    
   216  109  230 1    
   217  110  111 1    
   218  110  112 1    
   219  110  231 1    
   220  111  232 1    
   221  111  233 1    
   222  111  234 1    
   223  112  113 2    
   224  112  114 am   BACKBONE|DICT|INTERRES
   225  114  115 1    
   226  114  235 1    
   227  115  116 1    
   228  115  117 1    
   229  115  236 1    
   230  116  237 1    
   231  116  238 1    
   232  116  239 1    
   233  117  118 2    
   234  117  119 am   BACKBONE|DICT|INTERRES
   235  119  120 1    
   236  119  240 1    
   237  120  121 1    
   238  120  124 1    
   239  120  241 1    
   240  121  122 am   BACKBONE|DICT|INTERRES
   241  121  123 2    
   242  122  242 1    
   243  122  243 1    
   244  124  125 1    
   245  124  244 1    
   246  124  245 1    
   247  125  126 1    
   248  126  246 1    
   249  126  247 1    
@<TRIPOS>SUBSTRUCTURE
     1 UNK         1 GROUP             0       ****    0 ROOT    
