@<TRIPOS>MOLECULE
3R540
247   249    1
SMALL
USER_CHARGES


@<TRIPOS>ATOM
      1 CA          3.8999  -14.2261  -43.8124 C.3       0 UNK        -0.1800 
      2 C           3.2419  -14.2661  -45.1833 C.2       0 UNK         0.5000 
      3 O           2.3357  -13.4760  -45.4506 O.2       0 UNK        -0.5000 
      4 N           3.7126  -15.1687  -46.0538 N.am      1 UNK        -0.5000 
      5 CA          3.2540  -15.3490  -47.4404 C.3       1 UNK         0.1400 
      6 C6          3.8631  -16.6176  -48.0918 C.3       23 UNK        -0.0398 
      7 S7          3.5482  -18.1338  -47.1268 S.3       23 UNK        -0.2404 
      8 C8          2.8116  -19.2467  -48.3649 C.3       23 UNK        -0.0205 
      9 C9          1.4808  -18.7453  -48.9045 C.ar      23 UNK        -0.0193 
     10 C10         1.3028  -18.5892  -50.2817 C.ar      23 UNK        -0.1150 
     11 C11         0.0723  -18.1755  -50.7966 C.ar      23 UNK        -0.0193 
     12 C12        -0.9826  -17.9051  -49.9206 C.ar      23 UNK        -0.1150 
     13 C13        -0.8208  -18.0661  -48.5414 C.ar      23 UNK        -0.0193 
     14 C14         0.4159  -18.4800  -48.0382 C.ar      23 UNK        -0.1150 
     15 C15        -1.9830  -17.7879  -47.6014 C.3       23 UNK        -0.0205 
     16 S16        -2.9740  -19.2786  -47.2678 S.3       23 UNK        -0.2404 
     17 C17        -1.9510  -20.1324  -46.0241 C.3       23 UNK        -0.0398 
     18 CA         -1.1048  -21.2908  -46.6090 C.3       11 UNK         0.1400 
     19 N           0.1199  -21.4966  -45.8226 N.am      11 UNK        -0.5000 
     20 C           1.0849  -22.3972  -46.0626 C.2       10 UNK         0.5000 
     21 O           1.0720  -23.1781  -47.0126 O.2       10 UNK        -0.5000 
     22 CA          2.2199  -22.4867  -45.0300 C.3       10 UNK         0.1400 
     23 CB          3.2707  -21.3920  -45.2584 C.3       10 UNK        -0.1800 
     24 N           1.6888  -22.3849  -43.6720 N.am      10 UNK        -0.5000 
     25 C           1.1709  -23.4164  -42.9907 C.2       9 UNK         0.5000 
     26 O           1.1804  -24.5773  -43.3997 O.2       9 UNK        -0.5000 
     27 CA          0.5145  -23.1017  -41.6319 C.3       9 UNK         0.1400 
     28 CB          1.5331  -23.2613  -40.4934 C.3       9 UNK        -0.1800 
     29 N          -0.0708  -21.7611  -41.5652 N.am      9 UNK        -0.5000 
     30 C          -1.1285  -21.3523  -42.2797 C.2       8 UNK         0.5000 
     31 O          -1.7422  -22.0722  -43.0672 O.2       8 UNK        -0.5000 
     32 CA         -1.5295  -19.8715  -42.1311 C.3       8 UNK         0.1400 
     33 CB         -2.4939  -19.6887  -40.9506 C.3       8 UNK        -0.1800 
     34 N          -0.3922  -18.9592  -41.9722 N.am      8 UNK        -0.5000 
     35 C           0.6230  -18.8264  -42.8354 C.2       7 UNK         0.5000 
     36 O           0.7349  -19.5029  -43.8592 O.2       7 UNK        -0.5000 
     37 CA          1.6668  -17.7460  -42.4990 C.3       7 UNK         0.1400 
     38 CB          2.9147  -17.8329  -43.3918 C.3       7 UNK        -0.1800 
     39 N           1.0791  -16.4161  -42.6382 N.am      7 UNK        -0.5000 
     40 C           0.3491  -15.7939  -41.7046 C.2       6 UNK         0.5000 
     41 O           0.1285  -16.2667  -40.5886 O.2       6 UNK        -0.5000 
     42 CA         -0.2567  -14.4300  -42.0869 C.3       6 UNK         0.1400 
     43 CB          0.6204  -13.2761  -41.5768 C.3       6 UNK        -0.1800 
     44 N          -0.4764  -14.2613  -43.5264 N.am      6 UNK        -0.5000 
     45 C          -1.4090  -14.9129  -44.2380 C.2       5 UNK         0.5000 
     46 O          -2.1266  -15.7948  -43.7654 O.2       5 UNK        -0.5000 
     47 CA         -1.5854  -14.4817  -45.7064 C.3       5 UNK         0.1400 
     48 CB         -3.0288  -14.6716  -46.2124 C.3       5 UNK        -0.1800 
     49 N          -1.1999  -13.0826  -45.8765 N.am      5 UNK        -0.5000 
     50 C          -0.5567  -12.5715  -46.9305 C.2       4 UNK         0.5000 
     51 O          -0.2152  -13.2293  -47.9126 O.2       4 UNK        -0.5000 
     52 CA         -0.2227  -11.0739  -46.8690 C.3       4 UNK         0.1400 
     53 CB         -1.1089  -10.2817  -45.8766 C.3       4 UNK        -0.1800 
     54 N           1.1886  -10.9512  -46.5228 N.am      4 UNK        -0.5000 
     55 C           1.9128   -9.8281  -46.5899 C.2       3 UNK         0.5000 
     56 O           1.4732   -8.7426  -46.9714 O.2       3 UNK        -0.5000 
     57 CA          3.3871   -9.9439  -46.1732 C.3       3 UNK         0.1400 
     58 CB          3.5194  -10.1411  -44.6538 C.3       3 UNK        -0.1800 
     59 N           4.0542  -11.0403  -46.8715 N.am      3 UNK        -0.5000 
     60 C           4.4774  -10.9840  -48.1424 C.2       2 UNK         0.5000 
     61 O           4.3685   -9.9864  -48.8563 O.2       2 UNK        -0.5000 
     62 CA          5.1525  -12.2459  -48.7105 C.3       2 UNK         0.1400 
     63 CB          6.6804  -12.1366  -48.5883 C.3       2 UNK        -0.1800 
     64 N           4.7101  -13.4667  -48.0368 N.am      2 UNK        -0.5000 
     65 C           3.5734  -14.1198  -48.3184 C.2       1 UNK         0.5000 
     66 O           2.8053  -13.7929  -49.2224 O.2       1 UNK        -0.5000 
     67 C          -1.9467  -22.5769  -46.7607 C.2       11 UNK         0.5000 
     68 O          -2.5133  -22.8194  -47.8289 O.2       11 UNK        -0.5000 
     69 N          -1.9615  -23.4050  -45.7062 N.am      12 UNK        -0.5000 
     70 CA         -2.5671  -24.7367  -45.6610 C.3       12 UNK         0.1400 
     71 CB         -2.3694  -25.3295  -44.2588 C.3       12 UNK        -0.1800 
     72 C          -2.0418  -25.7097  -46.7357 C.2       12 UNK         0.5000 
     73 O          -2.7985  -26.5726  -47.1803 O.2       12 UNK        -0.5000 
     74 N          -0.7771  -25.5445  -47.1432 N.am      13 UNK        -0.5000 
     75 CA         -0.1345  -26.3309  -48.1917 C.3       13 UNK         0.1400 
     76 CB          1.2834  -26.7136  -47.7372 C.3       13 UNK        -0.1800 
     77 C          -0.0898  -25.5541  -49.5170 C.2       13 UNK         0.5000 
     78 O          -0.4724  -26.1014  -50.5507 O.2       13 UNK        -0.5000 
     79 N           0.3827  -24.3008  -49.4659 N.am      14 UNK        -0.5000 
     80 CA          0.6660  -23.4587  -50.6287 C.3       14 UNK         0.1400 
     81 CB          1.4437  -22.2130  -50.1758 C.3       14 UNK        -0.1800 
     82 C          -0.5908  -23.0544  -51.4141 C.2       14 UNK         0.5000 
     83 O          -0.6197  -23.2093  -52.6352 O.2       14 UNK        -0.5000 
     84 N          -1.6062  -22.5634  -50.6940 N.am      15 UNK        -0.5000 
     85 CA         -2.8729  -22.1008  -51.2611 C.3       15 UNK         0.1400 
     86 CB         -3.2645  -20.7805  -50.5861 C.3       15 UNK        -0.1800 
     87 C          -3.9938  -23.1359  -51.0787 C.2       15 UNK         0.5000 
     88 O          -5.1409  -22.8310  -51.4071 O.2       15 UNK        -0.5000 
     89 N          -3.6563  -24.3060  -50.5152 N.am      16 UNK        -0.5000 
     90 CA         -4.5531  -25.3909  -50.1095 C.3       16 UNK         0.1400 
     91 CB         -5.1607  -26.0867  -51.3441 C.3       16 UNK        -0.1800 
     92 C          -5.6055  -24.9235  -49.0805 C.2       16 UNK         0.5000 
     93 O          -6.7813  -25.2710  -49.1959 O.2       16 UNK        -0.5000 
     94 N          -5.1468  -24.1246  -48.1035 N.am      17 UNK        -0.5000 
     95 CA         -5.9267  -23.4729  -47.0461 C.3       17 UNK         0.1400 
     96 CB         -6.6540  -24.5007  -46.1519 C.3       17 UNK        -0.1800 
     97 C          -6.8498  -22.3796  -47.6131 C.2       17 UNK         0.5000 
     98 O          -8.0452  -22.3521  -47.3155 O.2       17 UNK        -0.5000 
     99 N          -6.2471  -21.4923  -48.4183 N.am      18 UNK        -0.5000 
    100 CA        -6.8563  -20.3291  -49.0697 C.3       18 UNK         0.1400 
    101 CB        -7.2842  -19.2778  -48.0244 C.3       18 UNK        -0.1800 
    102 C         -7.9829  -20.7103  -50.0532 C.2       18 UNK         0.5000 
    103 O         -9.0395  -20.0768  -50.0688 O.2       18 UNK        -0.5000 
    104 N         -7.7199  -21.7276  -50.8841 N.am      19 UNK        -0.5000 
    105 CA        -8.6103  -22.2021  -51.9477 C.3       19 UNK         0.1400 
    106 CB        -8.3808  -23.7090  -52.1443 C.3       19 UNK        -0.1800 
    107 C         -8.4075  -21.4401  -53.2758 C.2       19 UNK         0.5000 
    108 O         -8.9839  -21.8342  -54.2904 O.2       19 UNK        -0.5000 
    109 N         -7.5826  -20.3816  -53.2510 N.am      20 UNK        -0.5000 
    110 CA        -7.1841  -19.5222  -54.3708 C.3       20 UNK         0.1400 
    111 CB        -8.4007  -18.8156  -55.0060 C.3       20 UNK        -0.1800 
    112 C         -6.2894  -20.2416  -55.4016 C.2       20 UNK         0.5000 
    113 O         -6.2857  -19.8732  -56.5775 O.2       20 UNK        -0.5000 
    114 N         -5.5104  -21.2314  -54.9370 N.am      21 UNK        -0.5000 
    115 CA        -4.4835  -21.9185  -55.7294 C.3       21 UNK         0.1400 
    116 CB        -4.1034  -23.2359  -55.0364 C.3       21 UNK        -0.1800 
    117 C         -3.2372  -21.0416  -55.9887 C.2       21 UNK         0.5000 
    118 O         -2.4684  -21.3338  -56.9054 O.2       21 UNK        -0.5000 
    119 N         -3.0817  -19.9696  -55.2055 N.am      22 UNK        -0.5000 
    120 CA        -2.1135  -18.8852  -55.3887 C.3       22 UNK         0.1400 
    121 C         -2.6991  -17.5415  -54.8738 C.2       22 UNK         0.5000 
    122 N         -2.0578  -16.4207  -55.1760 N.am      22 UNK        -0.7600 
    123 O         -3.7298  -17.5005  -54.2028 O.2       22 UNK        -0.5000 
    124 C124       -0.7105  -19.2114  -54.8067 C.3       23 UNK        -0.0398 
    125 S125       -0.6932  -19.6058  -53.0232 S.3       23 UNK        -0.2404 
    126 C126       -0.1181  -18.0392  -52.2988 C.3       23 UNK        -0.0205 
    127 H127        4.8181  -14.8132  -43.7889 H         1 UNK         0.0600 
    128 H128        3.2254  -14.6226  -43.0559 H         1 UNK         0.0600 
    129 H129        4.1497  -13.2000  -43.5434 H         1 UNK         0.0600 
    130 H130        4.4382  -15.8065  -45.7586 H         1 UNK         0.3000 
    131 H131        2.1674  -15.4619  -47.4181 H         1 UNK         0.0600 
    132 H132        3.4718  -16.7455  -49.1025 H         1 UNK         0.0800 
    133 H133        4.9444  -16.5149  -48.1989 H         1 UNK         0.0800 
    134 H134        2.6485  -20.2241  -47.9117 H         1 UNK         0.0800 
    135 H135        3.5296  -19.4007  -49.1719 H         1 UNK         0.0800 
    136 H136        2.1160  -18.8088  -50.9590 H         1 UNK         0.1150 
    137 H137       -1.9384  -17.5909  -50.3161 H         1 UNK         0.1150 
    138 H138        0.5508  -18.6088  -46.9732 H         1 UNK         0.1150 
    139 H139       -1.6194  -17.3688  -46.6633 H         1 UNK         0.0800 
    140 H140       -2.6338  -17.0319  -48.0424 H         1 UNK         0.0800 
    141 H141       -2.6038  -20.4852  -45.2240 H         1 UNK         0.0800 
    142 H142       -1.3059  -19.3889  -45.5564 H         1 UNK         0.0800 
    143 H143       -0.7737  -21.0122  -47.6109 H         1 UNK         0.0600 
    144 H144        0.2528  -20.8681  -45.0344 H         1 UNK         0.3000 
    145 H145        2.7140  -23.4530  -45.1526 H         1 UNK         0.0600 
    146 H146        4.0533  -21.4307  -44.5008 H         1 UNK         0.0600 
    147 H147        3.7540  -21.5154  -46.2278 H         1 UNK         0.0600 
    148 H148        2.8309  -20.3953  -45.2339 H         1 UNK         0.0600 
    149 H149        1.5930  -21.4518  -43.2949 H         1 UNK         0.3000 
    150 H150       -0.2873  -23.8273  -41.4790 H         1 UNK         0.0600 
    151 H151        1.9709  -24.2604  -40.4984 H         1 UNK         0.0600 
    152 H152        1.0627  -23.1194  -39.5202 H         1 UNK         0.0600 
    153 H153        2.3504  -22.5442  -40.5804 H         1 UNK         0.0600 
    154 H154        0.3747  -21.0992  -40.9468 H         1 UNK         0.3000 
    155 H155       -2.0538  -19.5792  -43.0420 H         1 UNK         0.0600 
    156 H156       -2.0157  -19.9246  -39.9991 H         1 UNK         0.0600 
    157 H157       -3.3640  -20.3389  -41.0521 H         1 UNK         0.0600 
    158 H158       -2.8605  -18.6633  -40.8971 H         1 UNK         0.0600 
    159 H159       -0.4219  -18.3278  -41.1807 H         1 UNK         0.3000 
    160 H160        1.9863  -17.9026  -41.4665 H         1 UNK         0.0600 
    161 H161        2.6714  -17.6250  -44.4328 H         1 UNK         0.0600 
    162 H162        3.3633  -18.8260  -43.3473 H         1 UNK         0.0600 
    163 H163        3.6771  -17.1220  -43.0752 H         1 UNK         0.0600 
    164 H164        1.1572  -15.9813  -43.5448 H         1 UNK         0.3000 
    165 H165       -1.2259  -14.3603  -41.5884 H         1 UNK         0.0600 
    166 H166        0.1305  -12.3142  -41.7290 H         1 UNK         0.0600 
    167 H167        0.8147  -13.3738  -40.5079 H         1 UNK         0.0600 
    168 H168        1.5839  -13.2421  -42.0845 H         1 UNK         0.0600 
    169 H169        0.1107  -13.5890  -44.0009 H         1 UNK         0.3000 
    170 H170       -0.9187  -15.1179  -46.2916 H         1 UNK         0.0600 
    171 H171       -3.3727  -15.6972  -46.0760 H         1 UNK         0.0600 
    172 H172       -3.7252  -14.0226  -45.6806 H         1 UNK         0.0600 
    173 H173       -3.1049  -14.4437  -47.2757 H         1 UNK         0.0600 
    174 H174       -1.4484  -12.4627  -45.1178 H         1 UNK         0.3000 
    175 H175       -0.3744  -10.6700  -47.8720 H         1 UNK         0.0600 
    176 H176       -0.8931  -10.5390  -44.8389 H         1 UNK         0.0600 
    177 H177       -0.9602   -9.2074  -45.9830 H         1 UNK         0.0600 
    178 H178       -2.1684  -10.4677  -46.0582 H         1 UNK         0.0600 
    179 H179        1.6389  -11.8151  -46.2286 H         1 UNK         0.3000 
    180 H180        3.8868   -9.0078  -46.4325 H         1 UNK         0.0600 
    181 H181        3.0327  -11.0560  -44.3155 H         1 UNK         0.0600 
    182 H182        3.0620   -9.3108  -44.1144 H         1 UNK         0.0600 
    183 H183        4.5658  -10.1868  -44.3519 H         1 UNK         0.0600 
    184 H184        4.1422  -11.9117  -46.3719 H         1 UNK         0.3000 
    185 H185        4.9009  -12.3101  -49.7714 H         1 UNK         0.0600 
    186 H186        7.0504  -11.2484  -49.1022 H         1 UNK         0.0600 
    187 H187        6.9988  -12.0698  -47.5472 H         1 UNK         0.0600 
    188 H188        7.1744  -12.9989  -49.0365 H         1 UNK         0.0600 
    189 H189        5.2939  -13.8130  -47.2895 H         1 UNK         0.3000 
    190 H190       -1.5346  -23.0811  -44.8446 H         1 UNK         0.3000 
    191 H191       -3.6366  -24.6186  -45.8209 H         1 UNK         0.0600 
    192 H192       -1.3130  -25.4619  -44.0246 H         1 UNK         0.0600 
    193 H193       -2.8491  -26.3056  -44.1755 H         1 UNK         0.0600 
    194 H194       -2.8051  -24.6877  -43.4928 H         1 UNK         0.0600 
    195 H195       -0.2368  -24.7767  -46.7625 H         1 UNK         0.3000 
    196 H196       -0.6866  -27.2570  -48.3660 H         1 UNK         0.0600 
    197 H197        1.7957  -27.2958  -48.5041 H         1 UNK         0.0600 
    198 H198        1.2534  -27.3219  -46.8331 H         1 UNK         0.0600 
    199 H199        1.8954  -25.8356  -47.5266 H         1 UNK         0.0600 
    200 H200        0.6654  -23.9214  -48.5637 H         1 UNK         0.3000 
    201 H201        1.3082  -24.0293  -51.3028 H         1 UNK         0.0600 
    202 H202        2.3843  -22.4854  -49.6970 H         1 UNK         0.0600 
    203 H203        0.8689  -21.6170  -49.4662 H         1 UNK         0.0600 
    204 H204        1.6824  -21.5706  -51.0244 H         1 UNK         0.0600 
    205 H205       -1.5309  -22.5243  -49.6846 H         1 UNK         0.3000 
    206 H206       -2.7609  -21.9049  -52.3280 H         1 UNK         0.0600 
    207 H207       -4.1128  -20.3174  -51.0905 H         1 UNK         0.0600 
    208 H208       -3.5367  -20.9318  -49.5433 H         1 UNK         0.0600 
    209 H209       -2.4441  -20.0678  -50.6162 H         1 UNK         0.0600 
    210 H210       -2.6808  -24.4367  -50.2886 H         1 UNK         0.3000 
    211 H211       -3.9326  -26.1263  -49.5965 H         1 UNK         0.0600 
    212 H212       -5.8085  -25.4191  -51.9093 H         1 UNK         0.0600 
    213 H213       -5.7562  -26.9524  -51.0525 H         1 UNK         0.0600 
    214 H214       -4.3804  -26.4420  -52.0171 H         1 UNK         0.0600 
    215 H215       -4.1668  -23.8596  -48.1370 H         1 UNK         0.3000 
    216 H216       -5.2063  -22.9509  -46.4148 H         1 UNK         0.0600 
    217 H217       -7.0911  -24.0125  -45.2803 H         1 UNK         0.0600 
    218 H218       -5.9699  -25.2661  -45.7862 H         1 UNK         0.0600 
    219 H219       -7.4647  -25.0030  -46.6799 H         1 UNK         0.0600 
    220 H220       -5.2647  -21.6286  -48.6051 H         1 UNK         0.3000 
    221 H221       -6.0716  -19.8748  -49.6752 H         1 UNK         0.0600 
    222 H222       -8.1029  -19.6349  -47.3990 H         1 UNK         0.0600 
    223 H223       -6.4528  -19.0129  -47.3708 H         1 UNK         0.0600 
    224 H224       -7.6195  -18.3599  -48.5084 H         1 UNK         0.0600 
    225 H225       -6.8099  -22.1820  -50.8433 H         1 UNK         0.3000 
    226 H226       -9.6479  -22.0562  -51.6412 H         1 UNK         0.0600 
    227 H227       -8.4575  -24.2501  -51.2011 H         1 UNK         0.0600 
    228 H228       -9.1209  -24.1337  -52.8233 H         1 UNK         0.0600 
    229 H229       -7.3971  -23.9068  -52.5692 H         1 UNK         0.0600 
    230 H230       -7.1643  -20.1571  -52.3607 H         1 UNK         0.3000 
    231 H231       -6.5558  -18.7437  -53.9353 H         1 UNK         0.0600 
    232 H232       -9.0121  -18.3250  -54.2486 H         1 UNK         0.0600 
    233 H233       -9.0368  -19.5110  -55.5538 H         1 UNK         0.0600 
    234 H234       -8.0806  -18.0466  -55.7099 H         1 UNK         0.0600 
    235 H235       -5.5910  -21.4970  -53.9659 H         1 UNK         0.3000 
    236 H236       -4.9137  -22.1658  -56.7023 H         1 UNK         0.0600 
    237 H237       -3.4069  -23.8096  -55.6490 H         1 UNK         0.0600 
    238 H238       -3.6226  -23.0650  -54.0756 H         1 UNK         0.0600 
    239 H239       -4.9793  -23.8625  -54.8667 H         1 UNK         0.0600 
    240 H240       -3.7754  -19.7775  -54.4967 H         1 UNK         0.3000 
    241 H241       -1.9980  -18.7457  -56.4653 H         1 UNK         0.0600 
    242 H242       -2.4326  -15.5440  -54.8486 H         1 UNK         0.3800 
    243 H243       -1.2223  -16.4182  -55.7401 H         1 UNK         0.3800 
    244 H244       -0.0100  -18.4003  -55.0093 H         1 UNK         0.0800 
    245 H245       -0.3034  -20.0768  -55.3309 H         1 UNK         0.0800 
    246 H246        0.8209  -17.7409  -52.7673 H         1 UNK         0.0800 
    247 H247       -0.8384  -17.2487  -52.5133 H         1 UNK         0.0800 
@<TRIPOS>BOND
     1    1    2 1    
     2    1  127 1    
     3    1  128 1    
     4    1  129 1    
     5    2    3 2    
     6    2    4 am   BACKBONE|DICT|INTERRES
     7    4    5 1    
     8    4  130 1    
     9    5    6 1    
    10    5   65 1    
    11    5  131 1    
    12    6    7 1    
    13    6  132 1    
    14    6  133 1    
    15    7    8 1    
    16    8    9 1    
    17    8  134 1    
    18    8  135 1    
    19    9   10 ar   
    20    9   14 ar   
    21   10   11 ar   
    22   10  136 1    
    23   11   12 ar   
    24   11  126 1    
    25   12   13 ar   
    26   12  137 1    
    27   13   14 ar   
    28   13   15 1    
    29   14  138 1    
    30   15   16 1    
    31   15  139 1    
    32   15  140 1    
    33   16   17 1    
    34   17   18 1    
    35   17  141 1    
    36   17  142 1    
    37   18   19 1    
    38   18   67 1    
    39   18  143 1    
    40   19   20 am   BACKBONE|DICT|INTERRES
    41   19  144 1    
    42   20   21 2    
    43   20   22 1    
    44   22   23 1    
    45   22   24 1    
    46   22  145 1    
    47   23  146 1    
    48   23  147 1    
    49   23  148 1    
    50   24   25 am   BACKBONE|DICT|INTERRES
    51   24  149 1    
    52   25   26 2    
    53   25   27 1    
    54   27   28 1    
    55   27   29 1    
    56   27  150 1    
    57   28  151 1    
    58   28  152 1    
    59   28  153 1    
    60   29   30 am   BACKBONE|DICT|INTERRES
    61   29  154 1    
    62   30   31 2    
    63   30   32 1    
    64   32   33 1    
    65   32   34 1    
    66   32  155 1    
    67   33  156 1    
    68   33  157 1    
    69   33  158 1    
    70   34   35 am   BACKBONE|DICT|INTERRES
    71   34  159 1    
    72   35   36 2    
    73   35   37 1    
    74   37   38 1    
    75   37   39 1    
    76   37  160 1    
    77   38  161 1    
    78   38  162 1    
    79   38  163 1    
    80   39   40 am   BACKBONE|DICT|INTERRES
    81   39  164 1    
    82   40   41 2    
    83   40   42 1    
    84   42   43 1    
    85   42   44 1    
    86   42  165 1    
    87   43  166 1    
    88   43  167 1    
    89   43  168 1    
    90   44   45 am   BACKBONE|DICT|INTERRES
    91   44  169 1    
    92   45   46 2    
    93   45   47 1    
    94   47   48 1    
    95   47   49 1    
    96   47  170 1    
    97   48  171 1    
    98   48  172 1    
    99   48  173 1    
   100   49   50 am   BACKBONE|DICT|INTERRES
   101   49  174 1    
   102   50   51 2    
   103   50   52 1    
   104   52   53 1    
   105   52   54 1    
   106   52  175 1    
   107   53  176 1    
   108   53  177 1    
   109   53  178 1    
   110   54   55 am   BACKBONE|DICT|INTERRES
   111   54  179 1    
   112   55   56 2    
   113   55   57 1    
   114   57   58 1    
   115   57   59 1    
   116   57  180 1    
   117   58  181 1    
   118   58  182 1    
   119   58  183 1    
   120   59   60 am   BACKBONE|DICT|INTERRES
   121   59  184 1    
   122   60   61 2    
   123   60   62 1    
   124   62   63 1    
   125   62   64 1    
   126   62  185 1    
   127   63  186 1    
   128   63  187 1    
   129   63  188 1    
   130   64   65 am   BACKBONE|DICT|INTERRES
   131   64  189 1    
   132   65   66 2    
   133   67   68 2    
   134   67   69 am   BACKBONE|DICT|INTERRES
   135   69   70 1    
   136   69  190 1    
   137   70   71 1    
   138   70   72 1    
   139   70  191 1    
   140   71  192 1    
   141   71  193 1    
   142   71  194 1    
   143   72   73 2    
   144   72   74 am   BACKBONE|DICT|INTERRES
   145   74   75 1    
   146   74  195 1    
   147   75   76 1    
   148   75   77 1    
   149   75  196 1    
   150   76  197 1    
   151   76  198 1    
   152   76  199 1    
   153   77   78 2    
   154   77   79 am   BACKBONE|DICT|INTERRES
   155   79   80 1    
   156   79  200 1    
   157   80   81 1    
   158   80   82 1    
   159   80  201 1    
   160   81  202 1    
   161   81  203 1    
   162   81  204 1    
   163   82   83 2    
   164   82   84 am   BACKBONE|DICT|INTERRES
   165   84   85 1    
   166   84  205 1    
   167   85   86 1    
   168   85   87 1    
   169   85  206 1    
   170   86  207 1    
   171   86  208 1    
   172   86  209 1    
   173   87   88 2    
   174   87   89 am   BACKBONE|DICT|INTERRES
   175   89   90 1    
   176   89  210 1    
   177   90   91 1    
   178   90   92 1    
   179   90  211 1    
   180   91  212 1    
   181   91  213 1    
   182   91  214 1    
   183   92   93 2    
   184   92   94 am   BACKBONE|DICT|INTERRES
   185   94   95 1    
   186   94  215 1    
   187   95   96 1    
   188   95   97 1    
   189   95  216 1    
   190   96  217 1    
   191   96  218 1    
   192   96  219 1    
   193   97   98 2    
   194   97   99 am   BACKBONE|DICT|INTERRES
   195   99  100 1    
   196   99  220 1    
   197  100  101 1    
   198  100  102 1    
   199  100  221 1    
   200  101  222 1    
   201  101  223 1    
   202  101  224 1    
   203  102  103 2    
   204  102  104 am   BACKBONE|DICT|INTERRES
   205  104  105 1    
   206  104  225 1    
   207  105  106 1    
   208  105  107 1    
   209  105  226 1    
   210  106  227 1    
   211  106  228 1    
   212  106  229 1    
   213  107  108 2    
   214  107  109 am   BACKBONE|DICT|INTERRES
   215  109  110 1    
   216  109  230 1    
   217  110  111 1    
   218  110  112 1    
   219  110  231 1    
   220  111  232 1    
   221  111  233 1    
   222  111  234 1    
   223  112  113 2    
   224  112  114 am   BACKBONE|DICT|INTERRES
   225  114  115 1    
   226  114  235 1    
   227  115  116 1    
   228  115  117 1    
   229  115  236 1    
   230  116  237 1    
   231  116  238 1    
   232  116  239 1    
   233  117  118 2    
   234  117  119 am   BACKBONE|DICT|INTERRES
   235  119  120 1    
   236  119  240 1    
   237  120  121 1    
   238  120  124 1    
   239  120  241 1    
   240  121  122 am   BACKBONE|DICT|INTERRES
   241  121  123 2    
   242  122  242 1    
   243  122  243 1    
   244  124  125 1    
   245  124  244 1    
   246  124  245 1    
   247  125  126 1    
   248  126  246 1    
   249  126  247 1    
@<TRIPOS>SUBSTRUCTURE
     1 UNK         1 GROUP             0       ****    0 ROOT    
