@<TRIPOS>MOLECULE
3R540
247   249    1
SMALL
USER_CHARGES


@<TRIPOS>ATOM
      1 CA         -0.7835  -13.8172  -52.7899 C.3       0 UNK        -0.1800 
      2 C          -1.3240  -13.3265  -51.4487 C.2       0 UNK         0.5000 
      3 O          -2.5361  -13.1892  -51.3005 O.2       0 UNK        -0.5000 
      4 N          -0.4785  -13.0443  -50.4524 N.am      1 UNK        -0.5000 
      5 CA          0.9804  -13.1436  -50.4586 C.3       1 UNK         0.1400 
      6 C6          1.4856  -14.5831  -50.1612 C.3       23 UNK        -0.0398 
      7 S7          1.0814  -15.2184  -48.4934 S.3       23 UNK        -0.2404 
      8 C8         -0.3914  -16.2423  -48.8093 C.3       23 UNK        -0.0205 
      9 C9         -0.0955  -17.4511  -49.6845 C.ar      23 UNK        -0.0193 
     10 C10        -0.7231  -17.5843  -50.9262 C.ar      23 UNK        -0.1150 
     11 C11        -0.4848  -18.7027  -51.7335 C.ar      23 UNK        -0.0193 
     12 C12         0.4199  -19.6741  -51.2919 C.ar      23 UNK        -0.1150 
     13 C13         1.0675  -19.5465  -50.0591 C.ar      23 UNK        -0.0193 
     14 C14         0.7924  -18.4404  -49.2510 C.ar      23 UNK        -0.1150 
     15 C15         2.0957  -20.5828  -49.6283 C.3       23 UNK        -0.0205 
     16 S16         1.3271  -22.1229  -49.0405 S.3       23 UNK        -0.2404 
     17 C17         0.8486  -21.6720  -47.3392 C.3       23 UNK        -0.0398 
     18 CA          0.5075  -22.9139  -46.4804 C.3       11 UNK         0.1400 
     19 N           0.5700  -22.6211  -45.0461 N.am      11 UNK        -0.5000 
     20 C           0.4971  -23.5401  -44.0729 C.2       10 UNK         0.5000 
     21 O           0.4172  -24.7491  -44.2811 O.2       10 UNK        -0.5000 
     22 CA          0.4446  -23.0236  -42.6245 C.3       10 UNK         0.1400 
     23 CB          1.8496  -22.6750  -42.1124 C.3       10 UNK        -0.1800 
     24 N          -0.4463  -21.8720  -42.4771 N.am      10 UNK        -0.5000 
     25 C          -1.7686  -21.9125  -42.6973 C.2       9 UNK         0.5000 
     26 O          -2.3795  -22.9425  -42.9817 O.2       9 UNK        -0.5000 
     27 CA         -2.5307  -20.5767  -42.6361 C.3       9 UNK         0.1400 
     28 CB         -2.8624  -20.2047  -41.1836 C.3       9 UNK        -0.1800 
     29 N          -1.8049  -19.4782  -43.2753 N.am      9 UNK        -0.5000 
     30 C          -1.4931  -19.4250  -44.5789 C.2       8 UNK         0.5000 
     31 O          -1.8182  -20.2858  -45.3959 O.2       8 UNK        -0.5000 
     32 CA         -0.6184  -18.2420  -45.0341 C.3       8 UNK         0.1400 
     33 CB         -1.4493  -16.9557  -45.1513 C.3       8 UNK        -0.1800 
     34 N           0.5138  -18.0164  -44.1353 N.am      8 UNK        -0.5000 
     35 C           1.4901  -18.9053  -43.9039 C.2       7 UNK         0.5000 
     36 O           1.5822  -19.9855  -44.4856 O.2       7 UNK        -0.5000 
     37 CA          2.4981  -18.5561  -42.7963 C.3       7 UNK         0.1400 
     38 CB          3.6181  -17.6522  -43.3298 C.3       7 UNK        -0.1800 
     39 N           1.8481  -17.9164  -41.6527 N.am      7 UNK        -0.5000 
     40 C           1.0456  -18.5530  -40.7881 C.2       6 UNK         0.5000 
     41 O           0.8014  -19.7576  -40.8446 O.2       6 UNK        -0.5000 
     42 CA          0.3738  -17.6920  -39.7022 C.3       6 UNK         0.1400 
     43 CB          1.3198  -17.4903  -38.5092 C.3       6 UNK        -0.1800 
     44 N          -0.0563  -16.3869  -40.2059 N.am      6 UNK        -0.5000 
     45 C          -1.0303  -16.2083  -41.1096 C.2       5 UNK         0.5000 
     46 O          -1.7053  -17.1259  -41.5738 O.2       5 UNK        -0.5000 
     47 CA         -1.2512  -14.7704  -41.6190 C.3       5 UNK         0.1400 
     48 CB         -2.2565  -14.0308  -40.7242 C.3       5 UNK        -0.1800 
     49 N          -0.0159  -13.9850  -41.7155 N.am      5 UNK        -0.5000 
     50 C           1.0356  -14.3088  -42.4800 C.2       4 UNK         0.5000 
     51 O           1.0840  -15.3285  -43.1716 O.2       4 UNK        -0.5000 
     52 CA          2.2564  -13.3727  -42.3914 C.3       4 UNK         0.1400 
     53 CB          3.0508  -13.6658  -41.1080 C.3       4 UNK        -0.1800 
     54 N           3.1617  -13.5078  -43.5338 N.am      4 UNK        -0.5000 
     55 C           2.8675  -13.1717  -44.7957 C.2       3 UNK         0.5000 
     56 O           1.7963  -12.6635  -45.1376 O.2       3 UNK        -0.5000 
     57 CA          3.9673  -13.4662  -45.8368 C.3       3 UNK         0.1400 
     58 CB          4.0783  -14.9753  -46.1104 C.3       3 UNK        -0.1800 
     59 N           3.7358  -12.7755  -47.1051 N.am      3 UNK        -0.5000 
     60 C           3.9061  -11.4615  -47.3060 C.2       2 UNK         0.5000 
     61 O           4.3234  -10.6908  -46.4398 O.2       2 UNK        -0.5000 
     62 CA          3.5908  -10.9101  -48.7130 C.3       2 UNK         0.1400 
     63 CB          4.8868  -10.5021  -49.4327 C.3       2 UNK        -0.1800 
     64 N           2.8621  -11.8539  -49.5663 N.am      2 UNK        -0.5000 
     65 C           1.5464  -12.0898  -49.4857 C.2       1 UNK         0.5000 
     66 O           0.7965  -11.5152  -48.6909 O.2       1 UNK        -0.5000 
     67 C          -0.8436  -23.5483  -46.8782 C.2       11 UNK         0.5000 
     68 O          -0.8531  -24.5569  -47.5851 O.2       11 UNK        -0.5000 
     69 N          -1.9516  -22.9910  -46.3663 N.am      12 UNK        -0.5000 
     70 CA         -3.3070  -23.5109  -46.5549 C.3       12 UNK         0.1400 
     71 CB         -4.3322  -22.5369  -45.9537 C.3       12 UNK        -0.1800 
     72 C          -3.5039  -24.9269  -45.9830 C.2       12 UNK         0.5000 
     73 O          -4.2008  -25.7330  -46.5982 O.2       12 UNK        -0.5000 
     74 N          -2.8823  -25.2064  -44.8300 N.am      13 UNK        -0.5000 
     75 CA         -2.8826  -26.5206  -44.1910 C.3       13 UNK         0.1400 
     76 CB         -2.4416  -26.3756  -42.7261 C.3       13 UNK        -0.1800 
     77 C          -1.9967  -27.5394  -44.9325 C.2       13 UNK         0.5000 
     78 O          -2.4118  -28.6856  -45.1090 O.2       13 UNK        -0.5000 
     79 N          -0.7927  -27.1130  -45.3383 N.am      14 UNK        -0.5000 
     80 CA          0.2049  -27.9499  -46.0066 C.3       14 UNK         0.1400 
     81 CB          1.5671  -27.2394  -45.9799 C.3       14 UNK        -0.1800 
     82 C          -0.1725  -28.3229  -47.4506 C.2       14 UNK         0.5000 
     83 O           0.0817  -29.4545  -47.8668 O.2       14 UNK        -0.5000 
     84 N          -0.7546  -27.3718  -48.1875 N.am      15 UNK        -0.5000 
     85 CA         -1.1416  -27.5175  -49.5844 C.3       15 UNK         0.1400 
     86 CB          0.0111  -27.0358  -50.4901 C.3       15 UNK        -0.1800 
     87 C          -2.4646  -26.7712  -49.8010 C.2       15 UNK         0.5000 
     88 O          -3.5254  -27.3312  -49.5219 O.2       15 UNK        -0.5000 
     89 N          -2.3832  -25.5298  -50.2857 N.am      16 UNK        -0.5000 
     90 CA         -3.4948  -24.6143  -50.4940 C.3       16 UNK         0.1400 
     91 CB         -4.2437  -24.9629  -51.7931 C.3       16 UNK        -0.1800 
     92 C          -2.9243  -23.1924  -50.5533 C.2       16 UNK         0.5000 
     93 O          -1.7967  -23.0069  -51.0172 O.2       16 UNK        -0.5000 
     94 N          -3.7210  -22.2208  -50.1058 N.am      17 UNK        -0.5000 
     95 CA         -3.4209  -20.7955  -50.1288 C.3       17 UNK         0.1400 
     96 CB         -2.4604  -20.4254  -48.9868 C.3       17 UNK        -0.1800 
     97 C          -4.7448  -20.0296  -50.0205 C.2       17 UNK         0.5000 
     98 O          -5.7439  -20.5996  -49.5722 O.2       17 UNK        -0.5000 
     99 N          -4.7218  -18.7610  -50.4485 N.am      18 UNK        -0.5000 
    100 CA        -5.8622  -17.8446  -50.5672 C.3       18 UNK         0.1400 
    101 CB        -6.4202  -17.4805  -49.1752 C.3       18 UNK        -0.1800 
    102 C         -6.9457  -18.3584  -51.5439 C.2       18 UNK         0.5000 
    103 O         -8.1387  -18.1508  -51.3128 O.2       18 UNK        -0.5000 
    104 N         -6.5096  -19.0329  -52.6145 N.am      19 UNK        -0.5000 
    105 CA        -7.3458  -19.6368  -53.6449 C.3       19 UNK         0.1400 
    106 CB        -7.8402  -21.0141  -53.1672 C.3       19 UNK        -0.1800 
    107 C         -6.5282  -19.7646  -54.9373 C.2       19 UNK         0.5000 
    108 O         -5.2959  -19.7472  -54.8851 O.2       19 UNK        -0.5000 
    109 N         -7.2271  -19.8969  -56.0733 N.am      20 UNK        -0.5000 
    110 CA        -6.6767  -20.0063  -57.4291 C.3       20 UNK         0.1400 
    111 CB        -5.9785  -21.3722  -57.6218 C.3       20 UNK        -0.1800 
    112 C         -5.7950  -18.7873  -57.7758 C.2       20 UNK         0.5000 
    113 O         -6.3162  -17.6713  -57.8279 O.2       20 UNK        -0.5000 
    114 N         -4.4849  -19.0031  -57.9601 N.am      21 UNK        -0.5000 
    115 CA        -3.4785  -17.9804  -58.2644 C.3       21 UNK         0.1400 
    116 CB        -2.1253  -18.6712  -58.4932 C.3       21 UNK        -0.1800 
    117 C         -3.3415  -16.8746  -57.1963 C.2       21 UNK         0.5000 
    118 O         -2.9240  -15.7656  -57.5327 O.2       21 UNK        -0.5000 
    119 N         -3.7096  -17.1856  -55.9486 N.am      22 UNK        -0.5000 
    120 CA        -3.7930  -16.2477  -54.8191 C.3       22 UNK         0.1400 
    121 C         -5.2561  -15.9999  -54.3445 C.2       22 UNK         0.5000 
    122 N         -6.2762  -16.3206  -55.1331 N.am      22 UNK        -0.7600 
    123 O         -5.4801  -15.4812  -53.2553 O.2       22 UNK        -0.5000 
    124 C124       -2.8137  -16.6226  -53.6724 C.3       23 UNK        -0.0398 
    125 S125       -2.9151  -18.3627  -53.1243 S.3       23 UNK        -0.2404 
    126 C126       -1.1628  -18.8763  -53.0925 C.3       23 UNK        -0.0205 
    127 H127       -0.3159  -14.7957  -52.6891 H         1 UNK         0.0600 
    128 H128       -0.0577  -13.1179  -53.2035 H         1 UNK         0.0600 
    129 H129       -1.5928  -13.9052  -53.5146 H         1 UNK         0.0600 
    130 H130       -0.8372  -12.6580  -49.5881 H         1 UNK         0.3000 
    131 H131        1.3454  -12.8522  -51.4444 H         1 UNK         0.0600 
    132 H132        1.1062  -15.2747  -50.9117 H         1 UNK         0.0800 
    133 H133        2.5700  -14.6254  -50.2713 H         1 UNK         0.0800 
    134 H134       -1.1722  -15.6199  -49.2481 H         1 UNK         0.0800 
    135 H135       -0.7846  -16.5947  -47.8576 H         1 UNK         0.0800 
    136 H136       -1.4029  -16.8143  -51.2563 H         1 UNK         0.1150 
    137 H137        0.6284  -20.5355  -51.9110 H         1 UNK         0.1150 
    138 H138        1.2849  -18.3346  -48.2945 H         1 UNK         0.1150 
    139 H139        2.7357  -20.8194  -50.4795 H         1 UNK         0.0800 
    140 H140        2.7569  -20.1799  -48.8597 H         1 UNK         0.0800 
    141 H141        0.0264  -20.9559  -47.3563 H         1 UNK         0.0800 
    142 H142        1.6945  -21.1460  -46.8953 H         1 UNK         0.0800 
    143 H143        1.2783  -23.6654  -46.6652 H         1 UNK         0.0600 
    144 H144        0.6841  -21.6448  -44.7870 H         1 UNK         0.3000 
    145 H145        0.0504  -23.8286  -42.0008 H         1 UNK         0.0600 
    146 H146        1.8236  -22.3717  -41.0657 H         1 UNK         0.0600 
    147 H147        2.5147  -23.5363  -42.1849 H         1 UNK         0.0600 
    148 H148        2.3000  -21.8648  -42.6849 H         1 UNK         0.0600 
    149 H149       -0.0211  -20.9990  -42.1822 H         1 UNK         0.3000 
    150 H150       -3.4714  -20.7081  -43.1743 H         1 UNK         0.0600 
    151 H151       -3.4173  -21.0047  -40.6921 H         1 UNK         0.0600 
    152 H152       -3.4782  -19.3063  -41.1384 H         1 UNK         0.0600 
    153 H153       -1.9610  -20.0215  -40.5983 H         1 UNK         0.0600 
    154 H154       -1.5438  -18.6998  -42.6765 H         1 UNK         0.3000 
    155 H155       -0.2167  -18.4808  -46.0211 H         1 UNK         0.0600 
    156 H156       -1.9200  -16.6896  -44.2058 H         1 UNK         0.0600 
    157 H157       -2.2450  -17.0736  -45.8878 H         1 UNK         0.0600 
    158 H158       -0.8321  -16.1127  -45.4635 H         1 UNK         0.0600 
    159 H159        0.5528  -17.1209  -43.6566 H         1 UNK         0.3000 
    160 H160        2.9540  -19.4874  -42.4541 H         1 UNK         0.0600 
    161 H161        4.3671  -17.4566  -42.5624 H         1 UNK         0.0600 
    162 H162        3.2312  -16.6938  -43.6723 H         1 UNK         0.0600 
    163 H163        4.1286  -18.1198  -44.1727 H         1 UNK         0.0600 
    164 H164        1.9389  -16.9137  -41.5845 H         1 UNK         0.3000 
    165 H165       -0.5098  -18.2291  -39.3507 H         1 UNK         0.0600 
    166 H166        0.8266  -16.9475  -37.7026 H         1 UNK         0.0600 
    167 H167        1.6447  -18.4491  -38.1031 H         1 UNK         0.0600 
    168 H168        2.2140  -16.9332  -38.7918 H         1 UNK         0.0600 
    169 H169        0.4460  -15.5778  -39.8724 H         1 UNK         0.3000 
    170 H170       -1.6759  -14.8395  -42.6223 H         1 UNK         0.0600 
    171 H171       -3.1944  -14.5834  -40.6516 H         1 UNK         0.0600 
    172 H172       -1.8741  -13.8986  -39.7113 H         1 UNK         0.0600 
    173 H173       -2.4925  -13.0454  -41.1262 H         1 UNK         0.0600 
    174 H174        0.0220  -13.1406  -41.1628 H         1 UNK         0.3000 
    175 H175        1.8988  -12.3415  -42.3605 H         1 UNK         0.0600 
    176 H176        3.4330  -14.6876  -41.0952 H         1 UNK         0.0600 
    177 H177        3.8999  -12.9896  -41.0070 H         1 UNK         0.0600 
    178 H178        2.4312  -13.5362  -40.2197 H         1 UNK         0.0600 
    179 H179        4.0523  -13.9420  -43.3434 H         1 UNK         0.3000 
    180 H180        4.9215  -13.1191  -45.4346 H         1 UNK         0.0600 
    181 H181        3.1087  -15.4198  -46.3368 H         1 UNK         0.0600 
    182 H182        4.4827  -15.4960  -45.2432 H         1 UNK         0.0600 
    183 H183        4.7478  -15.1830  -46.9453 H         1 UNK         0.0600 
    184 H184        3.3390  -13.3263  -47.8507 H         1 UNK         0.3000 
    185 H185        2.9818  -10.0132  -48.5803 H         1 UNK         0.0600 
    186 H186        5.4437   -9.7665  -48.8507 H         1 UNK         0.0600 
    187 H187        5.5438  -11.3575  -49.5946 H         1 UNK         0.0600 
    188 H188        4.6749  -10.0517  -50.4026 H         1 UNK         0.0600 
    189 H189        3.4154  -12.3508  -50.2498 H         1 UNK         0.3000 
    190 H190       -1.8645  -22.1337  -45.8260 H         1 UNK         0.3000 
    191 H191       -3.4857  -23.5659  -47.6278 H         1 UNK         0.0600 
    192 H192       -4.2038  -22.4308  -44.8770 H         1 UNK         0.0600 
    193 H193       -5.3500  -22.8879  -46.1280 H         1 UNK         0.0600 
    194 H194       -4.2538  -21.5451  -46.3968 H         1 UNK         0.0600 
    195 H195       -2.3873  -24.4619  -44.3501 H         1 UNK         0.3000 
    196 H196       -3.9057  -26.9027  -44.1957 H         1 UNK         0.0600 
    197 H197       -2.4548  -27.3399  -42.2169 H         1 UNK         0.0600 
    198 H198       -3.1084  -25.7087  -42.1790 H         1 UNK         0.0600 
    199 H199       -1.4309  -25.9748  -42.6455 H         1 UNK         0.0600 
    200 H200       -0.5024  -26.1669  -45.1035 H         1 UNK         0.3000 
    201 H201        0.2997  -28.8785  -45.4397 H         1 UNK         0.0600 
    202 H202        1.8954  -27.0554  -44.9568 H         1 UNK         0.0600 
    203 H203        1.5288  -26.2797  -46.4971 H         1 UNK         0.0600 
    204 H204        2.3350  -27.8443  -46.4638 H         1 UNK         0.0600 
    205 H205       -0.9198  -26.4539  -47.7793 H         1 UNK         0.3000 
    206 H206       -1.3394  -28.5671  -49.8123 H         1 UNK         0.0600 
    207 H207       -0.2814  -27.0491  -51.5408 H         1 UNK         0.0600 
    208 H208        0.3306  -26.0226  -50.2421 H         1 UNK         0.0600 
    209 H209        0.8802  -27.6861  -50.3898 H         1 UNK         0.0600 
    210 H210       -1.4746  -25.1126  -50.4488 H         1 UNK         0.3000 
    211 H211       -4.1802  -24.6882  -49.6471 H         1 UNK         0.0600 
    212 H212       -3.5822  -24.9223  -52.6593 H         1 UNK         0.0600 
    213 H213       -5.0626  -24.2648  -51.9712 H         1 UNK         0.0600 
    214 H214       -4.6754  -25.9628  -51.7479 H         1 UNK         0.0600 
    215 H215       -4.6604  -22.4266  -49.7870 H         1 UNK         0.3000 
    216 H216       -2.9567  -20.5506  -51.0857 H         1 UNK         0.0600 
    217 H217       -2.2560  -19.3549  -48.9723 H         1 UNK         0.0600 
    218 H218       -1.5055  -20.9335  -49.1075 H         1 UNK         0.0600 
    219 H219       -2.8641  -20.6940  -48.0124 H         1 UNK         0.0600 
    220 H220       -3.8530  -18.4093  -50.8283 H         1 UNK         0.3000 
    221 H221       -5.4673  -16.9289  -51.0077 H         1 UNK         0.0600 
    222 H222       -6.8968  -18.3339  -48.6923 H         1 UNK         0.0600 
    223 H223       -5.6305  -17.1196  -48.5163 H         1 UNK         0.0600 
    224 H224       -7.1666  -16.6889  -49.2494 H         1 UNK         0.0600 
    225 H225       -5.5149  -19.1204  -52.7856 H         1 UNK         0.3000 
    226 H226       -8.1996  -18.9858  -53.8440 H         1 UNK         0.0600 
    227 H227       -8.4607  -21.4950  -53.9241 H         1 UNK         0.0600 
    228 H228       -7.0070  -21.6836  -52.9492 H         1 UNK         0.0600 
    229 H229       -8.4425  -20.9270  -52.2628 H         1 UNK         0.0600 
    230 H230       -8.2358  -19.8740  -56.0200 H         1 UNK         0.3000 
    231 H231       -7.5247  -19.9714  -58.1145 H         1 UNK         0.0600 
    232 H232       -6.6743  -22.1906  -57.4368 H         1 UNK         0.0600 
    233 H233       -5.1313  -21.5064  -56.9484 H         1 UNK         0.0600 
    234 H234       -5.6155  -21.4882  -58.6438 H         1 UNK         0.0600 
    235 H235       -4.1432  -19.9473  -57.8548 H         1 UNK         0.3000 
    236 H236       -3.7769  -17.4946  -59.1955 H         1 UNK         0.0600 
    237 H237       -2.1812  -19.3905  -59.3105 H         1 UNK         0.0600 
    238 H238       -1.3540  -17.9451  -58.7539 H         1 UNK         0.0600 
    239 H239       -1.7894  -19.2003  -57.6003 H         1 UNK         0.0600 
    240 H240       -4.0518  -18.1203  -55.7545 H         1 UNK         0.3000 
    241 H241       -3.4806  -15.2595  -55.1602 H         1 UNK         0.0600 
    242 H242       -6.1284  -16.7103  -56.0573 H         1 UNK         0.3800 
    243 H243       -7.2130  -16.1228  -54.8213 H         1 UNK         0.3800 
    244 H244       -1.7983  -16.4222  -54.0134 H         1 UNK         0.0800 
    245 H245       -2.9613  -15.9738  -52.8080 H         1 UNK         0.0800 
    246 H246       -1.1363  -19.9292  -53.3775 H         1 UNK         0.0800 
    247 H247       -0.5915  -18.3459  -53.8547 H         1 UNK         0.0800 
@<TRIPOS>BOND
     1    1    2 1    
     2    1  127 1    
     3    1  128 1    
     4    1  129 1    
     5    2    3 2    
     6    2    4 am   BACKBONE|DICT|INTERRES
     7    4    5 1    
     8    4  130 1    
     9    5    6 1    
    10    5   65 1    
    11    5  131 1    
    12    6    7 1    
    13    6  132 1    
    14    6  133 1    
    15    7    8 1    
    16    8    9 1    
    17    8  134 1    
    18    8  135 1    
    19    9   10 ar   
    20    9   14 ar   
    21   10   11 ar   
    22   10  136 1    
    23   11   12 ar   
    24   11  126 1    
    25   12   13 ar   
    26   12  137 1    
    27   13   14 ar   
    28   13   15 1    
    29   14  138 1    
    30   15   16 1    
    31   15  139 1    
    32   15  140 1    
    33   16   17 1    
    34   17   18 1    
    35   17  141 1    
    36   17  142 1    
    37   18   19 1    
    38   18   67 1    
    39   18  143 1    
    40   19   20 am   BACKBONE|DICT|INTERRES
    41   19  144 1    
    42   20   21 2    
    43   20   22 1    
    44   22   23 1    
    45   22   24 1    
    46   22  145 1    
    47   23  146 1    
    48   23  147 1    
    49   23  148 1    
    50   24   25 am   BACKBONE|DICT|INTERRES
    51   24  149 1    
    52   25   26 2    
    53   25   27 1    
    54   27   28 1    
    55   27   29 1    
    56   27  150 1    
    57   28  151 1    
    58   28  152 1    
    59   28  153 1    
    60   29   30 am   BACKBONE|DICT|INTERRES
    61   29  154 1    
    62   30   31 2    
    63   30   32 1    
    64   32   33 1    
    65   32   34 1    
    66   32  155 1    
    67   33  156 1    
    68   33  157 1    
    69   33  158 1    
    70   34   35 am   BACKBONE|DICT|INTERRES
    71   34  159 1    
    72   35   36 2    
    73   35   37 1    
    74   37   38 1    
    75   37   39 1    
    76   37  160 1    
    77   38  161 1    
    78   38  162 1    
    79   38  163 1    
    80   39   40 am   BACKBONE|DICT|INTERRES
    81   39  164 1    
    82   40   41 2    
    83   40   42 1    
    84   42   43 1    
    85   42   44 1    
    86   42  165 1    
    87   43  166 1    
    88   43  167 1    
    89   43  168 1    
    90   44   45 am   BACKBONE|DICT|INTERRES
    91   44  169 1    
    92   45   46 2    
    93   45   47 1    
    94   47   48 1    
    95   47   49 1    
    96   47  170 1    
    97   48  171 1    
    98   48  172 1    
    99   48  173 1    
   100   49   50 am   BACKBONE|DICT|INTERRES
   101   49  174 1    
   102   50   51 2    
   103   50   52 1    
   104   52   53 1    
   105   52   54 1    
   106   52  175 1    
   107   53  176 1    
   108   53  177 1    
   109   53  178 1    
   110   54   55 am   BACKBONE|DICT|INTERRES
   111   54  179 1    
   112   55   56 2    
   113   55   57 1    
   114   57   58 1    
   115   57   59 1    
   116   57  180 1    
   117   58  181 1    
   118   58  182 1    
   119   58  183 1    
   120   59   60 am   BACKBONE|DICT|INTERRES
   121   59  184 1    
   122   60   61 2    
   123   60   62 1    
   124   62   63 1    
   125   62   64 1    
   126   62  185 1    
   127   63  186 1    
   128   63  187 1    
   129   63  188 1    
   130   64   65 am   BACKBONE|DICT|INTERRES
   131   64  189 1    
   132   65   66 2    
   133   67   68 2    
   134   67   69 am   BACKBONE|DICT|INTERRES
   135   69   70 1    
   136   69  190 1    
   137   70   71 1    
   138   70   72 1    
   139   70  191 1    
   140   71  192 1    
   141   71  193 1    
   142   71  194 1    
   143   72   73 2    
   144   72   74 am   BACKBONE|DICT|INTERRES
   145   74   75 1    
   146   74  195 1    
   147   75   76 1    
   148   75   77 1    
   149   75  196 1    
   150   76  197 1    
   151   76  198 1    
   152   76  199 1    
   153   77   78 2    
   154   77   79 am   BACKBONE|DICT|INTERRES
   155   79   80 1    
   156   79  200 1    
   157   80   81 1    
   158   80   82 1    
   159   80  201 1    
   160   81  202 1    
   161   81  203 1    
   162   81  204 1    
   163   82   83 2    
   164   82   84 am   BACKBONE|DICT|INTERRES
   165   84   85 1    
   166   84  205 1    
   167   85   86 1    
   168   85   87 1    
   169   85  206 1    
   170   86  207 1    
   171   86  208 1    
   172   86  209 1    
   173   87   88 2    
   174   87   89 am   BACKBONE|DICT|INTERRES
   175   89   90 1    
   176   89  210 1    
   177   90   91 1    
   178   90   92 1    
   179   90  211 1    
   180   91  212 1    
   181   91  213 1    
   182   91  214 1    
   183   92   93 2    
   184   92   94 am   BACKBONE|DICT|INTERRES
   185   94   95 1    
   186   94  215 1    
   187   95   96 1    
   188   95   97 1    
   189   95  216 1    
   190   96  217 1    
   191   96  218 1    
   192   96  219 1    
   193   97   98 2    
   194   97   99 am   BACKBONE|DICT|INTERRES
   195   99  100 1    
   196   99  220 1    
   197  100  101 1    
   198  100  102 1    
   199  100  221 1    
   200  101  222 1    
   201  101  223 1    
   202  101  224 1    
   203  102  103 2    
   204  102  104 am   BACKBONE|DICT|INTERRES
   205  104  105 1    
   206  104  225 1    
   207  105  106 1    
   208  105  107 1    
   209  105  226 1    
   210  106  227 1    
   211  106  228 1    
   212  106  229 1    
   213  107  108 2    
   214  107  109 am   BACKBONE|DICT|INTERRES
   215  109  110 1    
   216  109  230 1    
   217  110  111 1    
   218  110  112 1    
   219  110  231 1    
   220  111  232 1    
   221  111  233 1    
   222  111  234 1    
   223  112  113 2    
   224  112  114 am   BACKBONE|DICT|INTERRES
   225  114  115 1    
   226  114  235 1    
   227  115  116 1    
   228  115  117 1    
   229  115  236 1    
   230  116  237 1    
   231  116  238 1    
   232  116  239 1    
   233  117  118 2    
   234  117  119 am   BACKBONE|DICT|INTERRES
   235  119  120 1    
   236  119  240 1    
   237  120  121 1    
   238  120  124 1    
   239  120  241 1    
   240  121  122 am   BACKBONE|DICT|INTERRES
   241  121  123 2    
   242  122  242 1    
   243  122  243 1    
   244  124  125 1    
   245  124  244 1    
   246  124  245 1    
   247  125  126 1    
   248  126  246 1    
   249  126  247 1    
@<TRIPOS>SUBSTRUCTURE
     1 UNK         1 GROUP             0       ****    0 ROOT    
