@<TRIPOS>MOLECULE
3R540
247   249    1
SMALL
USER_CHARGES


@<TRIPOS>ATOM
      1 CA         -2.2895  -12.3758  -51.7214 C.3       0 UNK        -0.1800 
      2 C          -2.2223  -13.1497  -50.4122 C.2       0 UNK         0.5000 
      3 O          -1.1324  -13.3499  -49.8764 O.2       0 UNK        -0.5000 
      4 N          -3.3815  -13.5866  -49.9045 N.am      1 UNK        -0.5000 
      5 CA         -3.5202  -14.3558  -48.6626 C.3       1 UNK         0.1400 
      6 C6         -4.8786  -15.1027  -48.5781 C.3       23 UNK        -0.0398 
      7 S7         -5.2826  -16.0868  -50.0655 S.3       23 UNK        -0.2404 
      8 C8         -4.3825  -17.6473  -49.7706 C.3       23 UNK        -0.0205 
      9 C9         -2.8714  -17.4896  -49.8975 C.ar      23 UNK        -0.0193 
     10 C10        -2.3142  -16.9492  -51.0604 C.ar      23 UNK        -0.1150 
     11 C11        -0.9291  -16.7781  -51.1868 C.ar      23 UNK        -0.0193 
     12 C12        -0.1049  -17.1772  -50.1321 C.ar      23 UNK        -0.1150 
     13 C13        -0.6430  -17.7287  -48.9673 C.ar      23 UNK        -0.0193 
     14 C14        -2.0283  -17.8801  -48.8534 C.ar      23 UNK        -0.1150 
     15 C15         0.2802  -18.1329  -47.8293 C.3       23 UNK        -0.0205 
     16 S16         0.7937  -19.8737  -47.9368 S.3       23 UNK        -0.2404 
     17 C17        -0.7190  -20.7470  -47.4128 C.3       23 UNK        -0.0398 
     18 CA         -0.3955  -22.0881  -46.7152 C.3       11 UNK         0.1400 
     19 N           0.3771  -21.9264  -45.4798 N.am      11 UNK        -0.5000 
     20 C           1.0577  -22.9141  -44.8805 C.2       10 UNK         0.5000 
     21 O           1.1596  -24.0493  -45.3443 O.2       10 UNK        -0.5000 
     22 CA          1.6870  -22.5952  -43.5107 C.3       10 UNK         0.1400 
     23 CB          3.1038  -22.0300  -43.6728 C.3       10 UNK        -0.1800 
     24 N           0.8701  -21.6630  -42.7313 N.am      10 UNK        -0.5000 
     25 C          -0.3116  -21.9955  -42.1891 C.2       9 UNK         0.5000 
     26 O          -0.7916  -23.1268  -42.2531 O.2       9 UNK        -0.5000 
     27 CA         -1.1221  -20.8759  -41.5111 C.3       9 UNK         0.1400 
     28 CB         -0.8141  -20.8262  -40.0089 C.3       9 UNK        -0.1800 
     29 N          -0.9072  -19.5627  -42.1271 N.am      9 UNK        -0.5000 
     30 C          -1.2807  -19.2679  -43.3824 C.2       8 UNK         0.5000 
     31 O          -1.8527  -20.0798  -44.1114 O.2       8 UNK        -0.5000 
     32 CA         -0.9022  -17.8938  -43.9688 C.3       8 UNK         0.1400 
     33 CB         -2.0234  -17.2856  -44.8336 C.3       8 UNK        -0.1800 
     34 N          -0.3727  -16.9280  -43.0073 N.am      8 UNK        -0.5000 
     35 C          -1.0000  -16.3066  -42.0001 C.2       7 UNK         0.5000 
     36 O          -2.2075  -16.3947  -41.7754 O.2       7 UNK        -0.5000 
     37 CA         -0.0818  -15.4789  -41.0712 C.3       7 UNK         0.1400 
     38 CB         -0.7338  -15.1521  -39.7113 C.3       7 UNK        -0.1800 
     39 N           1.2368  -16.1109  -40.8894 N.am      7 UNK        -0.5000 
     40 C           1.4676  -17.3296  -40.3737 C.2       6 UNK         0.5000 
     41 O           0.5805  -18.0465  -39.9144 O.2       6 UNK        -0.5000 
     42 CA          2.9185  -17.8496  -40.4443 C.3       6 UNK         0.1400 
     43 CB          3.0506  -19.3342  -40.0414 C.3       6 UNK        -0.1800 
     44 N           3.5297  -17.6184  -41.7566 N.am      6 UNK        -0.5000 
     45 C           3.1287  -18.0822  -42.9485 C.2       5 UNK         0.5000 
     46 O           2.1523  -18.8207  -43.1023 O.2       5 UNK        -0.5000 
     47 CA          3.9423  -17.5932  -44.1709 C.3       5 UNK         0.1400 
     48 CB          3.4414  -18.2016  -45.4935 C.3       5 UNK        -0.1800 
     49 N           3.9100  -16.1357  -44.3113 N.am      5 UNK        -0.5000 
     50 C           4.4978  -15.2258  -43.5226 C.2       4 UNK         0.5000 
     51 O           5.2408  -15.5257  -42.5866 O.2       4 UNK        -0.5000 
     52 CA          4.1952  -13.7342  -43.7965 C.3       4 UNK         0.1400 
     53 CB          5.4799  -12.9872  -44.1897 C.3       4 UNK        -0.1800 
     54 N           3.1733  -13.4717  -44.8184 N.am      4 UNK        -0.5000 
     55 C           1.8826  -13.8261  -44.7617 C.2       3 UNK         0.5000 
     56 O           1.3977  -14.4791  -43.8353 O.2       3 UNK        -0.5000 
     57 CA          1.0296  -13.4412  -45.9867 C.3       3 UNK         0.1400 
     58 CB          1.5018  -14.2116  -47.2321 C.3       3 UNK        -0.1800 
     59 N          -0.3917  -13.7219  -45.8012 N.am      3 UNK        -0.5000 
     60 C          -1.2318  -13.0674  -44.9884 C.2       2 UNK         0.5000 
     61 O          -0.9057  -12.0987  -44.3002 O.2       2 UNK        -0.5000 
     62 CA         -2.6827  -13.5999  -44.9590 C.3       2 UNK         0.1400 
     63 CB         -3.7021  -12.5761  -44.4163 C.3       2 UNK        -0.1800 
     64 N          -3.1025  -14.1569  -46.2562 N.am      2 UNK        -0.5000 
     65 C          -3.2721  -13.4864  -47.4076 C.2       1 UNK         0.5000 
     66 O          -3.2332  -12.2566  -47.4983 O.2       1 UNK        -0.5000 
     67 C          -1.6794  -22.8978  -46.4552 C.2       11 UNK         0.5000 
     68 O          -2.0185  -23.7615  -47.2630 O.2       11 UNK        -0.5000 
     69 N          -2.3472  -22.6480  -45.3192 N.am      12 UNK        -0.5000 
     70 CA         -3.5147  -23.4043  -44.8606 C.3       12 UNK         0.1400 
     71 CB         -4.1190  -22.7303  -43.6207 C.3       12 UNK        -0.1800 
     72 C          -3.1863  -24.8830  -44.5803 C.2       12 UNK         0.5000 
     73 O          -3.9545  -25.7582  -44.9787 O.2       12 UNK        -0.5000 
     74 N          -2.0214  -25.1427  -43.9679 N.am      13 UNK        -0.5000 
     75 CA         -1.4713  -26.4846  -43.7475 C.3       13 UNK         0.1400 
     76 CB         -0.2323  -26.3862  -42.8454 C.3       13 UNK        -0.1800 
     77 C          -1.1333  -27.2301  -45.0557 C.2       13 UNK         0.5000 
     78 O          -1.2210  -28.4574  -45.0942 O.2       13 UNK        -0.5000 
     79 N          -0.7999  -26.4761  -46.1120 N.am      14 UNK        -0.5000 
     80 CA         -0.5948  -26.9641  -47.4777 C.3       14 UNK         0.1400 
     81 CB          0.4186  -26.0477  -48.1856 C.3       14 UNK        -0.1800 
     82 C          -1.9093  -27.0750  -48.2840 C.2       14 UNK         0.5000 
     83 O          -1.8515  -27.3380  -49.4853 O.2       14 UNK        -0.5000 
     84 N          -3.0619  -26.8675  -47.6275 N.am      15 UNK        -0.5000 
     85 CA         -4.4245  -26.9140  -48.1674 C.3       15 UNK         0.1400 
     86 CB         -4.7701  -28.3252  -48.6892 C.3       15 UNK        -0.1800 
     87 C          -4.7146  -25.7957  -49.1898 C.2       15 UNK         0.5000 
     88 O          -5.4734  -26.0122  -50.1363 O.2       15 UNK        -0.5000 
     89 N          -4.1163  -24.6153  -48.9640 N.am      16 UNK        -0.5000 
     90 CA         -4.2198  -23.3942  -49.7678 C.3       16 UNK         0.1400 
     91 CB         -5.6482  -22.8132  -49.7162 C.3       16 UNK        -0.1800 
     92 C          -3.6935  -23.5985  -51.2007 C.2       16 UNK         0.5000 
     93 O          -4.3697  -23.2497  -52.1692 O.2       16 UNK        -0.5000 
     94 N          -2.4796  -24.1598  -51.3013 N.am      17 UNK        -0.5000 
     95 CA         -1.7944  -24.5315  -52.5461 C.3       17 UNK         0.1400 
     96 CB         -0.4397  -25.1639  -52.1913 C.3       17 UNK        -0.1800 
     97 C          -1.5993  -23.3832  -53.5599 C.2       17 UNK         0.5000 
     98 O          -1.5093  -23.6440  -54.7599 O.2       17 UNK        -0.5000 
     99 N          -1.5598  -22.1379  -53.0668 N.am      18 UNK        -0.5000 
    100 CA        -1.5097  -20.9137  -53.8685 C.3       18 UNK         0.1400 
    101 CB        -1.1037  -19.7515  -52.9526 C.3       18 UNK        -0.1800 
    102 C         -2.8352  -20.5807  -54.5857 C.2       18 UNK         0.5000 
    103 O         -2.8305  -19.7425  -55.4904 O.2       18 UNK        -0.5000 
    104 N         -3.9459  -21.1983  -54.1476 N.am      19 UNK        -0.5000 
    105 CA        -5.3120  -21.1091  -54.6845 C.3       19 UNK         0.1400 
    106 CB        -5.3639  -21.7450  -56.0889 C.3       19 UNK        -0.1800 
    107 C         -5.9241  -19.6904  -54.6730 C.2       19 UNK         0.5000 
    108 O         -6.9014  -19.4459  -55.3814 O.2       19 UNK        -0.5000 
    109 N         -5.3114  -18.7738  -53.9070 N.am      20 UNK        -0.5000 
    110 CA        -5.5235  -17.3194  -53.9000 C.3       20 UNK         0.1400 
    111 CB        -6.9484  -16.9637  -53.4294 C.3       20 UNK        -0.1800 
    112 C         -5.1469  -16.6255  -55.2321 C.2       20 UNK         0.5000 
    113 O         -5.4484  -15.4438  -55.4062 O.2       20 UNK        -0.5000 
    114 N         -4.4845  -17.3567  -56.1391 N.am      21 UNK        -0.5000 
    115 CA        -3.9685  -16.8668  -57.4140 C.3       21 UNK         0.1400 
    116 CB        -4.0772  -17.9847  -58.4628 C.3       21 UNK        -0.1800 
    117 C         -2.5118  -16.4058  -57.2583 C.2       21 UNK         0.5000 
    118 O         -2.1409  -15.3717  -57.8144 O.2       21 UNK        -0.5000 
    119 N         -1.7303  -17.1684  -56.4792 N.am      22 UNK        -0.5000 
    120 CA        -0.3521  -16.8578  -56.0564 C.3       22 UNK         0.1400 
    121 C          0.7118  -16.8822  -57.1968 C.2       22 UNK         0.5000 
    122 N          0.4292  -17.4733  -58.3512 N.am      22 UNK        -0.7600 
    123 O          1.8240  -16.3898  -57.0266 O.2       22 UNK        -0.5000 
    124 C124       -0.2635  -15.5738  -55.1801 C.3       23 UNK        -0.0398 
    125 S125       -1.3971  -15.6271  -53.7494 S.3       23 UNK        -0.2404 
    126 C126       -0.2644  -16.1899  -52.4330 C.3       23 UNK        -0.0205 
    127 H127       -3.2897  -12.3993  -52.1551 H         1 UNK         0.0600 
    128 H128       -1.5972  -12.8042  -52.4461 H         1 UNK         0.0600 
    129 H129       -2.0112  -11.3350  -51.5565 H         1 UNK         0.0600 
    130 H130       -4.2442  -13.3817  -50.3864 H         1 UNK         0.3000 
    131 H131       -2.7264  -15.1030  -48.6650 H         1 UNK         0.0600 
    132 H132       -5.6898  -14.3869  -48.4335 H         1 UNK         0.0800 
    133 H133       -4.9060  -15.7655  -47.7121 H         1 UNK         0.0800 
    134 H134       -4.7157  -18.3840  -50.5027 H         1 UNK         0.0800 
    135 H135       -4.6574  -18.0420  -48.7914 H         1 UNK         0.0800 
    136 H136       -2.9773  -16.6504  -51.8557 H         1 UNK         0.1150 
    137 H137        0.9660  -17.0567  -50.2181 H         1 UNK         0.1150 
    138 H138       -2.4508  -18.2998  -47.9526 H         1 UNK         0.1150 
    139 H139       -0.1975  -17.9398  -46.8727 H         1 UNK         0.0800 
    140 H140        1.1778  -17.5144  -47.8492 H         1 UNK         0.0800 
    141 H141       -1.3285  -20.9117  -48.3034 H         1 UNK         0.0800 
    142 H142       -1.3034  -20.1063  -46.7517 H         1 UNK         0.0800 
    143 H143        0.2101  -22.6763  -47.4085 H         1 UNK         0.0600 
    144 H144        0.3222  -21.0284  -45.0240 H         1 UNK         0.3000 
    145 H145        1.7623  -23.5313  -42.9532 H         1 UNK         0.0600 
    146 H146        3.1000  -21.1088  -44.2515 H         1 UNK         0.0600 
    147 H147        3.7498  -22.7401  -44.1905 H         1 UNK         0.0600 
    148 H148        3.5589  -21.8172  -42.7054 H         1 UNK         0.0600 
    149 H149        1.1965  -20.7044  -42.6685 H         1 UNK         0.3000 
    150 H150       -2.1803  -21.1187  -41.6219 H         1 UNK         0.0600 
    151 H151        0.2460  -20.6582  -39.8193 H         1 UNK         0.0600 
    152 H152       -1.0841  -21.7667  -39.5271 H         1 UNK         0.0600 
    153 H153       -1.3766  -20.0341  -39.5144 H         1 UNK         0.0600 
    154 H154       -0.4165  -18.8717  -41.5707 H         1 UNK         0.3000 
    155 H155       -0.0633  -18.1085  -44.6297 H         1 UNK         0.0600 
    156 H156       -2.8875  -16.9911  -44.2386 H         1 UNK         0.0600 
    157 H157       -2.3780  -17.9941  -45.5820 H         1 UNK         0.0600 
    158 H158       -1.6573  -16.4121  -45.3686 H         1 UNK         0.0600 
    159 H159        0.6224  -16.7654  -43.0792 H         1 UNK         0.3000 
    160 H160        0.0928  -14.5302  -41.5795 H         1 UNK         0.0600 
    161 H161       -1.0146  -16.0534  -39.1658 H         1 UNK         0.0600 
    162 H162       -1.6390  -14.5590  -39.8465 H         1 UNK         0.0600 
    163 H163       -0.0595  -14.5738  -39.0799 H         1 UNK         0.0600 
    164 H164        2.0181  -15.6009  -41.2765 H         1 UNK         0.3000 
    165 H165        3.4896  -17.2600  -39.7260 H         1 UNK         0.0600 
    166 H166        2.6857  -19.4984  -39.0269 H         1 UNK         0.0600 
    167 H167        2.4827  -19.9888  -40.7026 H         1 UNK         0.0600 
    168 H168        4.0912  -19.6570  -40.0670 H         1 UNK         0.0600 
    169 H169        4.3133  -16.9702  -41.7687 H         1 UNK         0.3000 
    170 H170        4.9781  -17.9047  -44.0230 H         1 UNK         0.0600 
    171 H171        4.0188  -17.8346  -46.3422 H         1 UNK         0.0600 
    172 H172        3.5351  -19.2863  -45.4924 H         1 UNK         0.0600 
    173 H173        2.3933  -17.9621  -45.6743 H         1 UNK         0.0600 
    174 H174        3.2999  -15.7805  -45.0311 H         1 UNK         0.3000 
    175 H175        3.8321  -13.3129  -42.8570 H         1 UNK         0.0600 
    176 H176        6.2558  -13.1106  -43.4328 H         1 UNK         0.0600 
    177 H177        5.8829  -13.3527  -45.1350 H         1 UNK         0.0600 
    178 H178        5.2995  -11.9169  -44.2918 H         1 UNK         0.0600 
    179 H179        3.4926  -12.9601  -45.6286 H         1 UNK         0.3000 
    180 H180        1.1477  -12.3703  -46.1634 H         1 UNK         0.0600 
    181 H181        1.4420  -15.2894  -47.0817 H         1 UNK         0.0600 
    182 H182        2.5353  -13.9722  -47.4847 H         1 UNK         0.0600 
    183 H183        0.8967  -13.9629  -48.1042 H         1 UNK         0.0600 
    184 H184       -0.7561  -14.4986  -46.3286 H         1 UNK         0.3000 
    185 H185       -2.6742  -14.4351  -44.2575 H         1 UNK         0.0600 
    186 H186       -3.4717  -12.3098  -43.3841 H         1 UNK         0.0600 
    187 H187       -3.7036  -11.6525  -44.9951 H         1 UNK         0.0600 
    188 H188       -4.7134  -12.9824  -44.4273 H         1 UNK         0.0600 
    189 H189       -3.1983  -15.1617  -46.2743 H         1 UNK         0.3000 
    190 H190       -2.0490  -21.8706  -44.7363 H         1 UNK         0.3000 
    191 H191       -4.2600  -23.3744  -45.6584 H         1 UNK         0.0600 
    192 H192       -4.3502  -21.6822  -43.8124 H         1 UNK         0.0600 
    193 H193       -5.0473  -23.2212  -43.3264 H         1 UNK         0.0600 
    194 H194       -3.4431  -22.7749  -42.7677 H         1 UNK         0.0600 
    195 H195       -1.4783  -24.3656  -43.6029 H         1 UNK         0.3000 
    196 H196       -2.2280  -27.0711  -43.2225 H         1 UNK         0.0600 
    197 H197        0.5562  -25.7931  -43.3086 H         1 UNK         0.0600 
    198 H198        0.1794  -27.3745  -42.6370 H         1 UNK         0.0600 
    199 H199       -0.4773  -25.9278  -41.8871 H         1 UNK         0.0600 
    200 H200       -0.7335  -25.4750  -45.9845 H         1 UNK         0.3000 
    201 H201       -0.1627  -27.9657  -47.4338 H         1 UNK         0.0600 
    202 H202        0.0245  -25.0426  -48.3317 H         1 UNK         0.0600 
    203 H203        1.3421  -25.9638  -47.6123 H         1 UNK         0.0600 
    204 H204        0.6833  -26.4398  -49.1682 H         1 UNK         0.0600 
    205 H205       -3.0088  -26.6201  -46.6465 H         1 UNK         0.3000 
    206 H206       -5.0847  -26.7155  -47.3223 H         1 UNK         0.0600 
    207 H207       -4.5566  -29.0862  -47.9387 H         1 UNK         0.0600 
    208 H208       -5.8300  -28.4018  -48.9342 H         1 UNK         0.0600 
    209 H209       -4.2097  -28.5749  -49.5905 H         1 UNK         0.0600 
    210 H210       -3.4612  -24.5521  -48.1884 H         1 UNK         0.3000 
    211 H211       -3.5575  -22.6629  -49.3027 H         1 UNK         0.0600 
    212 H212       -5.9728  -22.6590  -48.6872 H         1 UNK         0.0600 
    213 H213       -5.6934  -21.8463  -50.2188 H         1 UNK         0.0600 
    214 H214       -6.3726  -23.4669  -50.2025 H         1 UNK         0.0600 
    215 H215       -2.0191  -24.4365  -50.4463 H         1 UNK         0.3000 
    216 H216       -2.4077  -25.2899  -53.0365 H         1 UNK         0.0600 
    217 H217        0.1986  -24.4678  -51.6457 H         1 UNK         0.0600 
    218 H218        0.0987  -25.4693  -53.0895 H         1 UNK         0.0600 
    219 H219       -0.5686  -26.0542  -51.5757 H         1 UNK         0.0600 
    220 H220       -1.6250  -22.0218  -52.0668 H         1 UNK         0.3000 
    221 H221       -0.7441  -21.0307  -54.6381 H         1 UNK         0.0600 
    222 H222       -1.8002  -19.6319  -52.1220 H         1 UNK         0.0600 
    223 H223       -0.1082  -19.9028  -52.5349 H         1 UNK         0.0600 
    224 H224       -1.0858  -18.8102  -53.5011 H         1 UNK         0.0600 
    225 H225       -3.8497  -21.8694  -53.3900 H         1 UNK         0.3000 
    226 H226       -5.9364  -21.7116  -54.0235 H         1 UNK         0.0600 
    227 H227       -4.9395  -22.7491  -56.0817 H         1 UNK         0.0600 
    228 H228       -6.3909  -21.8324  -56.4453 H         1 UNK         0.0600 
    229 H229       -4.8127  -21.1532  -56.8207 H         1 UNK         0.0600 
    230 H230       -4.5188  -19.0954  -53.3709 H         1 UNK         0.3000 
    231 H231       -4.8318  -16.9222  -53.1579 H         1 UNK         0.0600 
    232 H232       -7.7032  -17.2415  -54.1650 H         1 UNK         0.0600 
    233 H233       -7.0440  -15.8915  -53.2547 H         1 UNK         0.0600 
    234 H234       -7.1895  -17.4643  -52.4917 H         1 UNK         0.0600 
    235 H235       -4.2293  -18.3060  -55.8925 H         1 UNK         0.3000 
    236 H236       -4.5636  -16.0174  -57.7560 H         1 UNK         0.0600 
    237 H237       -3.5061  -18.8685  -58.1749 H         1 UNK         0.0600 
    238 H238       -5.1142  -18.2904  -58.6032 H         1 UNK         0.0600 
    239 H239       -3.7021  -17.6498  -59.4306 H         1 UNK         0.0600 
    240 H240       -2.1213  -18.0233  -56.0965 H         1 UNK         0.3000 
    241 H241       -0.0631  -17.6923  -55.4175 H         1 UNK         0.0600 
    242 H242        1.1232  -17.4963  -59.0819 H         1 UNK         0.3800 
    243 H243       -0.4755  -17.8895  -58.5036 H         1 UNK         0.3800 
    244 H244       -0.5029  -14.6904  -55.7731 H         1 UNK         0.0800 
    245 H245        0.7536  -15.4206  -54.8160 H         1 UNK         0.0800 
    246 H246        0.3578  -15.3447  -52.1348 H         1 UNK         0.0800 
    247 H247        0.4083  -16.9437  -52.8442 H         1 UNK         0.0800 
@<TRIPOS>BOND
     1    1    2 1    
     2    1  127 1    
     3    1  128 1    
     4    1  129 1    
     5    2    3 2    
     6    2    4 am   BACKBONE|DICT|INTERRES
     7    4    5 1    
     8    4  130 1    
     9    5    6 1    
    10    5   65 1    
    11    5  131 1    
    12    6    7 1    
    13    6  132 1    
    14    6  133 1    
    15    7    8 1    
    16    8    9 1    
    17    8  134 1    
    18    8  135 1    
    19    9   10 ar   
    20    9   14 ar   
    21   10   11 ar   
    22   10  136 1    
    23   11   12 ar   
    24   11  126 1    
    25   12   13 ar   
    26   12  137 1    
    27   13   14 ar   
    28   13   15 1    
    29   14  138 1    
    30   15   16 1    
    31   15  139 1    
    32   15  140 1    
    33   16   17 1    
    34   17   18 1    
    35   17  141 1    
    36   17  142 1    
    37   18   19 1    
    38   18   67 1    
    39   18  143 1    
    40   19   20 am   BACKBONE|DICT|INTERRES
    41   19  144 1    
    42   20   21 2    
    43   20   22 1    
    44   22   23 1    
    45   22   24 1    
    46   22  145 1    
    47   23  146 1    
    48   23  147 1    
    49   23  148 1    
    50   24   25 am   BACKBONE|DICT|INTERRES
    51   24  149 1    
    52   25   26 2    
    53   25   27 1    
    54   27   28 1    
    55   27   29 1    
    56   27  150 1    
    57   28  151 1    
    58   28  152 1    
    59   28  153 1    
    60   29   30 am   BACKBONE|DICT|INTERRES
    61   29  154 1    
    62   30   31 2    
    63   30   32 1    
    64   32   33 1    
    65   32   34 1    
    66   32  155 1    
    67   33  156 1    
    68   33  157 1    
    69   33  158 1    
    70   34   35 am   BACKBONE|DICT|INTERRES
    71   34  159 1    
    72   35   36 2    
    73   35   37 1    
    74   37   38 1    
    75   37   39 1    
    76   37  160 1    
    77   38  161 1    
    78   38  162 1    
    79   38  163 1    
    80   39   40 am   BACKBONE|DICT|INTERRES
    81   39  164 1    
    82   40   41 2    
    83   40   42 1    
    84   42   43 1    
    85   42   44 1    
    86   42  165 1    
    87   43  166 1    
    88   43  167 1    
    89   43  168 1    
    90   44   45 am   BACKBONE|DICT|INTERRES
    91   44  169 1    
    92   45   46 2    
    93   45   47 1    
    94   47   48 1    
    95   47   49 1    
    96   47  170 1    
    97   48  171 1    
    98   48  172 1    
    99   48  173 1    
   100   49   50 am   BACKBONE|DICT|INTERRES
   101   49  174 1    
   102   50   51 2    
   103   50   52 1    
   104   52   53 1    
   105   52   54 1    
   106   52  175 1    
   107   53  176 1    
   108   53  177 1    
   109   53  178 1    
   110   54   55 am   BACKBONE|DICT|INTERRES
   111   54  179 1    
   112   55   56 2    
   113   55   57 1    
   114   57   58 1    
   115   57   59 1    
   116   57  180 1    
   117   58  181 1    
   118   58  182 1    
   119   58  183 1    
   120   59   60 am   BACKBONE|DICT|INTERRES
   121   59  184 1    
   122   60   61 2    
   123   60   62 1    
   124   62   63 1    
   125   62   64 1    
   126   62  185 1    
   127   63  186 1    
   128   63  187 1    
   129   63  188 1    
   130   64   65 am   BACKBONE|DICT|INTERRES
   131   64  189 1    
   132   65   66 2    
   133   67   68 2    
   134   67   69 am   BACKBONE|DICT|INTERRES
   135   69   70 1    
   136   69  190 1    
   137   70   71 1    
   138   70   72 1    
   139   70  191 1    
   140   71  192 1    
   141   71  193 1    
   142   71  194 1    
   143   72   73 2    
   144   72   74 am   BACKBONE|DICT|INTERRES
   145   74   75 1    
   146   74  195 1    
   147   75   76 1    
   148   75   77 1    
   149   75  196 1    
   150   76  197 1    
   151   76  198 1    
   152   76  199 1    
   153   77   78 2    
   154   77   79 am   BACKBONE|DICT|INTERRES
   155   79   80 1    
   156   79  200 1    
   157   80   81 1    
   158   80   82 1    
   159   80  201 1    
   160   81  202 1    
   161   81  203 1    
   162   81  204 1    
   163   82   83 2    
   164   82   84 am   BACKBONE|DICT|INTERRES
   165   84   85 1    
   166   84  205 1    
   167   85   86 1    
   168   85   87 1    
   169   85  206 1    
   170   86  207 1    
   171   86  208 1    
   172   86  209 1    
   173   87   88 2    
   174   87   89 am   BACKBONE|DICT|INTERRES
   175   89   90 1    
   176   89  210 1    
   177   90   91 1    
   178   90   92 1    
   179   90  211 1    
   180   91  212 1    
   181   91  213 1    
   182   91  214 1    
   183   92   93 2    
   184   92   94 am   BACKBONE|DICT|INTERRES
   185   94   95 1    
   186   94  215 1    
   187   95   96 1    
   188   95   97 1    
   189   95  216 1    
   190   96  217 1    
   191   96  218 1    
   192   96  219 1    
   193   97   98 2    
   194   97   99 am   BACKBONE|DICT|INTERRES
   195   99  100 1    
   196   99  220 1    
   197  100  101 1    
   198  100  102 1    
   199  100  221 1    
   200  101  222 1    
   201  101  223 1    
   202  101  224 1    
   203  102  103 2    
   204  102  104 am   BACKBONE|DICT|INTERRES
   205  104  105 1    
   206  104  225 1    
   207  105  106 1    
   208  105  107 1    
   209  105  226 1    
   210  106  227 1    
   211  106  228 1    
   212  106  229 1    
   213  107  108 2    
   214  107  109 am   BACKBONE|DICT|INTERRES
   215  109  110 1    
   216  109  230 1    
   217  110  111 1    
   218  110  112 1    
   219  110  231 1    
   220  111  232 1    
   221  111  233 1    
   222  111  234 1    
   223  112  113 2    
   224  112  114 am   BACKBONE|DICT|INTERRES
   225  114  115 1    
   226  114  235 1    
   227  115  116 1    
   228  115  117 1    
   229  115  236 1    
   230  116  237 1    
   231  116  238 1    
   232  116  239 1    
   233  117  118 2    
   234  117  119 am   BACKBONE|DICT|INTERRES
   235  119  120 1    
   236  119  240 1    
   237  120  121 1    
   238  120  124 1    
   239  120  241 1    
   240  121  122 am   BACKBONE|DICT|INTERRES
   241  121  123 2    
   242  122  242 1    
   243  122  243 1    
   244  124  125 1    
   245  124  244 1    
   246  124  245 1    
   247  125  126 1    
   248  126  246 1    
   249  126  247 1    
@<TRIPOS>SUBSTRUCTURE
     1 UNK         1 GROUP             0       ****    0 ROOT    
