@<TRIPOS>MOLECULE
3R540
247   249    1
SMALL
USER_CHARGES


@<TRIPOS>ATOM
      1 CA          4.8042  -15.9898  -49.8269 C.3       0 UNK        -0.1800 
      2 C           4.7205  -14.5978  -49.2163 C.2       0 UNK         0.5000 
      3 O           5.3451  -13.6683  -49.7253 O.2       0 UNK        -0.5000 
      4 N           3.9561  -14.4579  -48.1237 N.am      1 UNK        -0.5000 
      5 CA          3.7108  -13.2136  -47.3742 C.3       1 UNK         0.1400 
      6 C6          2.9129  -12.1482  -48.1797 C.3       23 UNK        -0.0398 
      7 S7          1.2264  -12.7234  -48.5841 S.3       23 UNK        -0.2404 
      8 C8          1.3675  -13.1685  -50.3411 C.3       23 UNK        -0.0205 
      9 C9          0.5065  -14.3805  -50.6618 C.ar      23 UNK        -0.0193 
     10 C10        -0.7824  -14.2296  -51.1833 C.ar      23 UNK        -0.1150 
     11 C11        -1.5585  -15.3533  -51.4889 C.ar      23 UNK        -0.0193 
     12 C12        -1.0416  -16.6313  -51.2579 C.ar      23 UNK        -0.1150 
     13 C13         0.2462  -16.7944  -50.7397 C.ar      23 UNK        -0.0193 
     14 C14         1.0124  -15.6644  -50.4460 C.ar      23 UNK        -0.1150 
     15 C15         0.8348  -18.1831  -50.5352 C.3       23 UNK        -0.0205 
     16 S16         1.1321  -18.5620  -48.7821 S.3       23 UNK        -0.2404 
     17 C17        -0.5523  -18.7515  -48.1043 C.3       23 UNK        -0.0398 
     18 CA         -0.7187  -20.1202  -47.3882 C.3       11 UNK         0.1400 
     19 N          -1.2615  -19.9812  -46.0340 N.am      11 UNK        -0.5000 
     20 C          -1.2484  -20.9570  -45.1149 C.2       10 UNK         0.5000 
     21 O          -0.7425  -22.0637  -45.2991 O.2       10 UNK        -0.5000 
     22 CA         -1.9638  -20.6648  -43.7865 C.3       10 UNK         0.1400 
     23 CB         -1.0447  -19.8955  -42.8248 C.3       10 UNK        -0.1800 
     24 N          -3.2072  -19.9232  -44.0002 N.am      10 UNK        -0.5000 
     25 C          -4.3138  -20.4611  -44.5344 C.2       9 UNK         0.5000 
     26 O          -4.4064  -21.6449  -44.8566 O.2       9 UNK        -0.5000 
     27 CA         -5.5033  -19.5158  -44.7894 C.3       9 UNK         0.1400 
     28 CB         -6.3670  -19.3830  -43.5266 C.3       9 UNK        -0.1800 
     29 N          -5.0931  -18.1845  -45.2368 N.am      9 UNK        -0.5000 
     30 C          -4.4521  -17.9314  -46.3869 C.2       8 UNK         0.5000 
     31 O          -4.1675  -18.7943  -47.2131 O.2       8 UNK        -0.5000 
     32 CA         -3.9923  -16.4815  -46.6197 C.3       8 UNK         0.1400 
     33 CB         -5.1000  -15.6698  -47.3029 C.3       8 UNK        -0.1800 
     34 N          -3.5734  -15.8001  -45.3913 N.am      8 UNK        -0.5000 
     35 C          -2.5807  -16.2181  -44.5958 C.2       7 UNK         0.5000 
     36 O          -1.9366  -17.2515  -44.7919 O.2       7 UNK        -0.5000 
     37 CA         -2.2507  -15.3373  -43.3809 C.3       7 UNK         0.1400 
     38 CB         -2.3130  -16.1415  -42.0728 C.3       7 UNK        -0.1800 
     39 N          -0.9109  -14.7933  -43.5607 N.am      7 UNK        -0.5000 
     40 C          -0.6337  -13.7589  -44.3681 C.2       6 UNK         0.5000 
     41 O          -1.4969  -13.0238  -44.8498 O.2       6 UNK        -0.5000 
     42 CA          0.8443  -13.5170  -44.7298 C.3       6 UNK         0.1400 
     43 CB          1.4418  -12.3929  -43.8718 C.3       6 UNK        -0.1800 
     44 N           1.6745  -14.7180  -44.6078 N.am      6 UNK        -0.5000 
     45 C           1.5437  -15.8178  -45.3680 C.2       5 UNK         0.5000 
     46 O           0.8135  -15.8664  -46.3551 O.2       5 UNK        -0.5000 
     47 CA          2.3553  -17.0740  -44.9763 C.3       5 UNK         0.1400 
     48 CB          3.4860  -17.3186  -45.9889 C.3       5 UNK        -0.1800 
     49 N           2.9516  -17.0267  -43.6394 N.am      5 UNK        -0.5000 
     50 C           2.3042  -16.8767  -42.4753 C.2       4 UNK         0.5000 
     51 O           1.0784  -16.8548  -42.3719 O.2       4 UNK        -0.5000 
     52 CA          3.1812  -16.6250  -41.2306 C.3       4 UNK         0.1400 
     53 CB          3.3744  -17.9282  -40.4411 C.3       4 UNK        -0.1800 
     54 N           4.4995  -16.0407  -41.5248 N.am      4 UNK        -0.5000 
     55 C           4.7232  -14.8847  -42.1697 C.2       3 UNK         0.5000 
     56 O           3.8195  -14.1771  -42.6169 O.2       3 UNK        -0.5000 
     57 CA          6.1836  -14.4647  -42.4102 C.3       3 UNK         0.1400 
     58 CB          7.2273  -15.5344  -42.0165 C.3       3 UNK        -0.1800 
     59 N           6.3292  -14.1121  -43.8210 N.am      3 UNK        -0.5000 
     60 C           7.2716  -13.3136  -44.3358 C.2       2 UNK         0.5000 
     61 O           8.1320  -12.7504  -43.6576 O.2       2 UNK        -0.5000 
     62 CA          7.2754  -13.1223  -45.8658 C.3       2 UNK         0.1400 
     63 CB          8.3880  -13.9704  -46.5027 C.3       2 UNK        -0.1800 
     64 N           6.0024  -13.4813  -46.4965 N.am      2 UNK        -0.5000 
     65 C           4.9730  -12.6420  -46.6795 C.2       1 UNK         0.5000 
     66 O           4.9853  -11.4714  -46.2965 O.2       1 UNK        -0.5000 
     67 C          -1.5191  -21.1451  -48.2232 C.2       11 UNK         0.5000 
     68 O          -0.9182  -21.9760  -48.9042 O.2       11 UNK        -0.5000 
     69 N          -2.8545  -21.1178  -48.1010 N.am      12 UNK        -0.5000 
     70 CA         -3.7696  -22.1002  -48.6821 C.3       12 UNK         0.1400 
     71 CB         -5.2218  -21.6531  -48.4674 C.3       12 UNK        -0.1800 
     72 C          -3.5503  -23.5140  -48.1203 C.2       12 UNK         0.5000 
     73 O          -3.5205  -24.4682  -48.8951 O.2       12 UNK        -0.5000 
     74 N          -3.3635  -23.6282  -46.7968 N.am      13 UNK        -0.5000 
     75 CA         -3.0544  -24.8862  -46.1135 C.3       13 UNK         0.1400 
     76 CB         -3.1058  -24.6867  -44.5919 C.3       13 UNK        -0.1800 
     77 C          -1.7020  -25.4818  -46.5450 C.2       13 UNK         0.5000 
     78 O          -1.6217  -26.6887  -46.7740 O.2       13 UNK        -0.5000 
     79 N          -0.6816  -24.6271  -46.7088 N.am      14 UNK        -0.5000 
     80 CA          0.6354  -24.9942  -47.2392 C.3       14 UNK         0.1400 
     81 CB          1.5956  -23.8034  -47.0978 C.3       14 UNK        -0.1800 
     82 C           0.5814  -25.4867  -48.7003 C.2       14 UNK         0.5000 
     83 O           1.3404  -26.3830  -49.0694 O.2       14 UNK        -0.5000 
     84 N          -0.3465  -24.9270  -49.4870 N.am      15 UNK        -0.5000 
     85 CA         -0.6690  -25.3395  -50.8542 C.3       15 UNK         0.1400 
     86 CB         -1.2147  -24.1191  -51.6119 C.3       15 UNK        -0.1800 
     87 C          -1.6662  -26.5187  -50.9206 C.2       15 UNK         0.5000 
     88 O          -2.0997  -26.8726  -52.0181 O.2       15 UNK        -0.5000 
     89 N          -2.0443  -27.0886  -49.7644 N.am      16 UNK        -0.5000 
     90 CA         -2.9845  -28.2021  -49.5786 C.3       16 UNK         0.1400 
     91 CB         -2.3819  -29.5097  -50.1326 C.3       16 UNK        -0.1800 
     92 C          -4.4008  -27.9190  -50.1280 C.2       16 UNK         0.5000 
     93 O          -5.0964  -28.8464  -50.5450 O.2       16 UNK        -0.5000 
     94 N          -4.7874  -26.6345  -50.1391 N.am      17 UNK        -0.5000 
     95 CA         -6.0218  -26.0579  -50.6814 C.3       17 UNK         0.1400 
     96 CB         -7.2525  -26.5604  -49.8996 C.3       17 UNK        -0.1800 
     97 C          -6.1879  -26.2145  -52.2103 C.2       17 UNK         0.5000 
     98 O          -7.2720  -25.9416  -52.7283 O.2       17 UNK        -0.5000 
     99 N          -5.1232  -26.6190  -52.9190 N.am      18 UNK        -0.5000 
    100 CA        -5.1007  -26.7534  -54.3782 C.3       18 UNK         0.1400 
    101 CB        -4.0127  -27.7662  -54.7675 C.3       18 UNK        -0.1800 
    102 C         -4.8649  -25.4066  -55.0894 C.2       18 UNK         0.5000 
    103 O         -5.1338  -25.2937  -56.2861 O.2       18 UNK        -0.5000 
    104 N         -4.3686  -24.4162  -54.3429 N.am      19 UNK        -0.5000 
    105 CA        -4.0750  -23.0538  -54.7632 C.3       19 UNK         0.1400 
    106 CB        -2.7518  -23.0274  -55.5557 C.3       19 UNK        -0.1800 
    107 C         -4.0090  -22.1760  -53.5016 C.2       19 UNK         0.5000 
    108 O         -4.2570  -22.6715  -52.3985 O.2       19 UNK        -0.5000 
    109 N         -3.6644  -20.8932  -53.6860 N.am      20 UNK        -0.5000 
    110 CA        -3.3585  -19.8999  -52.6451 C.3       20 UNK         0.1400 
    111 CB        -2.1240  -20.3378  -51.8288 C.3       20 UNK        -0.1800 
    112 C         -4.5438  -19.4858  -51.7458 C.2       20 UNK         0.5000 
    113 O         -4.3371  -18.7929  -50.7497 O.2       20 UNK        -0.5000 
    114 N         -5.7706  -19.8635  -52.1250 N.am      21 UNK        -0.5000 
    115 CA        -7.0155  -19.5778  -51.4103 C.3       21 UNK         0.1400 
    116 CB        -8.0485  -20.6573  -51.7811 C.3       21 UNK        -0.1800 
    117 C         -7.5257  -18.1412  -51.6598 C.2       21 UNK         0.5000 
    118 O         -8.6691  -17.9536  -52.0794 O.2       21 UNK        -0.5000 
    119 N         -6.6647  -17.1499  -51.4033 N.am      22 UNK        -0.5000 
    120 CA        -6.9603  -15.7111  -51.5152 C.3       22 UNK         0.1400 
    121 C         -7.7069  -15.0943  -50.2935 C.2       22 UNK         0.5000 
    122 N         -8.0273  -15.8519  -49.2514 N.am      22 UNK        -0.7600 
    123 O         -8.0277  -13.9088  -50.3014 O.2       22 UNK        -0.5000 
    124 C124       -5.7108  -14.8900  -51.9322 C.3       23 UNK        -0.0398 
    125 S125       -4.2489  -15.1093  -50.8552 S.3       23 UNK        -0.2404 
    126 C126       -2.9367  -15.1931  -52.1109 C.3       23 UNK        -0.0205 
    127 H127        5.8389  -16.3322  -49.8390 H         1 UNK         0.0600 
    128 H128        4.2131  -16.7167  -49.2690 H         1 UNK         0.0600 
    129 H129        4.4387  -15.9712  -50.8537 H         1 UNK         0.0600 
    130 H130        3.4393  -15.2586  -47.7908 H         1 UNK         0.3000 
    131 H131        3.0812  -13.5098  -46.5397 H         1 UNK         0.0600 
    132 H132        2.7896  -11.2351  -47.5954 H         1 UNK         0.0800 
    133 H133        3.4454  -11.8531  -49.0845 H         1 UNK         0.0800 
    134 H134        1.0737  -12.3147  -50.9533 H         1 UNK         0.0800 
    135 H135        2.4047  -13.3856  -50.5975 H         1 UNK         0.0800 
    136 H136       -1.1784  -13.2393  -51.3592 H         1 UNK         0.1150 
    137 H137       -1.6422  -17.4946  -51.4993 H         1 UNK         0.1150 
    138 H138        2.0054  -15.7871  -50.0424 H         1 UNK         0.1150 
    139 H139        0.2063  -18.9551  -50.9741 H         1 UNK         0.0800 
    140 H140        1.7871  -18.2376  -51.0646 H         1 UNK         0.0800 
    141 H141       -1.3013  -18.5961  -48.8830 H         1 UNK         0.0800 
    142 H142       -0.6978  -17.9277  -47.4035 H         1 UNK         0.0800 
    143 H143        0.2717  -20.5604  -47.2511 H         1 UNK         0.0600 
    144 H144       -1.6733  -19.0880  -45.7865 H         1 UNK         0.3000 
    145 H145       -2.2117  -21.6202  -43.3194 H         1 UNK         0.0600 
    146 H146       -1.5520  -19.6681  -41.8873 H         1 UNK         0.0600 
    147 H147       -0.1604  -20.4853  -42.5814 H         1 UNK         0.0600 
    148 H148       -0.6957  -18.9567  -43.2548 H         1 UNK         0.0600 
    149 H149       -3.1729  -18.9265  -43.8378 H         1 UNK         0.3000 
    150 H150       -6.1156  -19.9596  -45.5771 H         1 UNK         0.0600 
    151 H151       -6.7044  -20.3610  -43.1804 H         1 UNK         0.0600 
    152 H152       -7.2568  -18.7831  -43.7185 H         1 UNK         0.0600 
    153 H153       -5.8167  -18.9168  -42.7082 H         1 UNK         0.0600 
    154 H154       -5.2804  -17.4143  -44.6122 H         1 UNK         0.3000 
    155 H155       -3.1308  -16.5147  -47.2905 H         1 UNK         0.0600 
    156 H156       -4.7538  -14.6708  -47.5683 H         1 UNK         0.0600 
    157 H157       -5.9802  -15.5662  -46.6675 H         1 UNK         0.0600 
    158 H158       -5.4156  -16.1567  -48.2260 H         1 UNK         0.0600 
    159 H159       -4.0382  -14.9291  -45.1786 H         1 UNK         0.3000 
    160 H160       -2.9729  -14.5211  -43.3101 H         1 UNK         0.0600 
    161 H161       -1.6079  -16.9726  -42.0715 H         1 UNK         0.0600 
    162 H162       -3.3094  -16.5566  -41.9172 H         1 UNK         0.0600 
    163 H163       -2.0839  -15.5113  -41.2134 H         1 UNK         0.0600 
    164 H164       -0.1494  -15.3821  -43.2405 H         1 UNK         0.3000 
    165 H165        0.8641  -13.1946  -45.7702 H         1 UNK         0.0600 
    166 H166        1.4572  -12.6607  -42.8146 H         1 UNK         0.0600 
    167 H167        2.4640  -12.1654  -44.1756 H         1 UNK         0.0600 
    168 H168        0.8617  -11.4746  -43.9707 H         1 UNK         0.0600 
    169 H169        2.3300  -14.7274  -43.8328 H         1 UNK         0.3000 
    170 H170        1.6669  -17.9213  -45.0080 H         1 UNK         0.0600 
    171 H171        3.1050  -17.3468  -47.0091 H         1 UNK         0.0600 
    172 H172        4.2445  -16.5366  -45.9426 H         1 UNK         0.0600 
    173 H173        3.9779  -18.2740  -45.8053 H         1 UNK         0.0600 
    174 H174        3.9595  -17.0415  -43.6045 H         1 UNK         0.3000 
    175 H175        2.6434  -15.9167  -40.5973 H         1 UNK         0.0600 
    176 H176        3.9061  -17.7490  -39.5065 H         1 UNK         0.0600 
    177 H177        2.4132  -18.3765  -40.1852 H         1 UNK         0.0600 
    178 H178        3.9383  -18.6656  -41.0138 H         1 UNK         0.0600 
    179 H179        5.2993  -16.5664  -41.2023 H         1 UNK         0.3000 
    180 H180        6.3519  -13.5724  -41.8039 H         1 UNK         0.0600 
    181 H181        7.1036  -16.4525  -42.5922 H         1 UNK         0.0600 
    182 H182        7.1608  -15.7857  -40.9572 H         1 UNK         0.0600 
    183 H183        8.2422  -15.1753  -42.1880 H         1 UNK         0.0600 
    184 H184        5.6146  -14.4715  -44.4360 H         1 UNK         0.3000 
    185 H185        7.4965  -12.0715  -46.0657 H         1 UNK         0.0600 
    186 H186        8.4402  -13.8068  -47.5795 H         1 UNK         0.0600 
    187 H187        9.3634  -13.7116  -46.0886 H         1 UNK         0.0600 
    188 H188        8.2312  -15.0362  -46.3317 H         1 UNK         0.0600 
    189 H189        5.9247  -14.4195  -46.8602 H         1 UNK         0.3000 
    190 H190       -3.2861  -20.3512  -47.5887 H         1 UNK         0.3000 
    191 H191       -3.5856  -22.1361  -49.7560 H         1 UNK         0.0600 
    192 H192       -5.3798  -20.6480  -48.8544 H         1 UNK         0.0600 
    193 H193       -5.9147  -22.3172  -48.9855 H         1 UNK         0.0600 
    194 H194       -5.4928  -21.6478  -47.4117 H         1 UNK         0.0600 
    195 H195       -3.4628  -22.8054  -46.2114 H         1 UNK         0.3000 
    196 H196       -3.8304  -25.6057  -46.3835 H         1 UNK         0.0600 
    197 H197       -2.8993  -25.6212  -44.0687 H         1 UNK         0.0600 
    198 H198       -4.0911  -24.3472  -44.2723 H         1 UNK         0.0600 
    199 H199       -2.3732  -23.9538  -44.2548 H         1 UNK         0.0600 
    200 H200       -0.8116  -23.6548  -46.4436 H         1 UNK         0.3000 
    201 H201        1.0208  -25.8141  -46.6297 H         1 UNK         0.0600 
    202 H202        1.6843  -23.4896  -46.0576 H         1 UNK         0.0600 
    203 H203        1.2612  -22.9437  -47.6784 H         1 UNK         0.0600 
    204 H204        2.5955  -24.0650  -47.4458 H         1 UNK         0.0600 
    205 H205       -0.8948  -24.1613  -49.1120 H         1 UNK         0.3000 
    206 H206        0.2458  -25.6646  -51.3533 H         1 UNK         0.0600 
    207 H207       -0.5015  -23.2948  -51.6014 H         1 UNK         0.0600 
    208 H208       -1.4211  -24.3572  -52.6558 H         1 UNK         0.0600 
    209 H209       -2.1429  -23.7623  -51.1663 H         1 UNK         0.0600 
    210 H210       -1.6694  -26.7045  -48.9055 H         1 UNK         0.3000 
    211 H211       -3.1010  -28.3235  -48.5010 H         1 UNK         0.0600 
    212 H212       -2.2957  -29.4865  -51.2194 H         1 UNK         0.0600 
    213 H213       -3.0008  -30.3689  -49.8718 H         1 UNK         0.0600 
    214 H214       -1.3891  -29.6909  -49.7209 H         1 UNK         0.0600 
    215 H215       -4.1439  -25.9461  -49.7497 H         1 UNK         0.3000 
    216 H216       -5.9409  -24.9840  -50.5059 H         1 UNK         0.0600 
    217 H217       -7.1218  -26.4189  -48.8268 H         1 UNK         0.0600 
    218 H218       -7.4428  -27.6188  -50.0790 H         1 UNK         0.0600 
    219 H219       -8.1510  -26.0145  -50.1895 H         1 UNK         0.0600 
    220 H220       -4.2544  -26.8146  -52.4344 H         1 UNK         0.3000 
    221 H221       -6.0630  -27.1441  -54.7154 H         1 UNK         0.0600 
    222 H222       -3.0171  -27.4101  -54.5010 H         1 UNK         0.0600 
    223 H223       -4.1698  -28.7250  -54.2730 H         1 UNK         0.0600 
    224 H224       -4.0174  -27.9493  -55.8427 H         1 UNK         0.0600 
    225 H225       -4.2397  -24.5692  -53.3503 H         1 UNK         0.3000 
    226 H226       -4.8908  -22.6878  -55.3895 H         1 UNK         0.0600 
    227 H227       -2.7931  -23.6881  -56.4216 H         1 UNK         0.0600 
    228 H228       -2.5298  -22.0285  -55.9315 H         1 UNK         0.0600 
    229 H229       -1.9097  -23.3421  -54.9382 H         1 UNK         0.0600 
    230 H230       -3.5171  -20.5745  -54.6337 H         1 UNK         0.3000 
    231 H231       -3.0827  -18.9866  -53.1742 H         1 UNK         0.0600 
    232 H232       -1.9405  -19.6724  -50.9877 H         1 UNK         0.0600 
    233 H233       -1.2280  -20.3425  -52.4488 H         1 UNK         0.0600 
    234 H234       -2.2357  -21.3349  -51.4099 H         1 UNK         0.0600 
    235 H235       -5.8545  -20.4036  -52.9728 H         1 UNK         0.3000 
    236 H236       -6.8324  -19.6585  -50.3380 H         1 UNK         0.0600 
    237 H237       -8.9786  -20.5172  -51.2289 H         1 UNK         0.0600 
    238 H238       -8.2892  -20.6364  -52.8447 H         1 UNK         0.0600 
    239 H239       -7.6780  -21.6544  -51.5405 H         1 UNK         0.0600 
    240 H240       -5.7424  -17.3939  -51.0544 H         1 UNK         0.3000 
    241 H241       -7.6703  -15.5971  -52.3366 H         1 UNK         0.0600 
    242 H242       -7.7875  -16.8288  -49.2350 H         1 UNK         0.3800 
    243 H243       -8.5239  -15.4414  -48.4767 H         1 UNK         0.3800 
    244 H244       -5.4412  -15.1744  -52.9500 H         1 UNK         0.0800 
    245 H245       -5.9431  -13.8251  -51.9870 H         1 UNK         0.0800 
    246 H246       -3.1362  -16.0275  -52.7853 H         1 UNK         0.0800 
    247 H247       -2.9644  -14.2896  -52.7222 H         1 UNK         0.0800 
@<TRIPOS>BOND
     1    1    2 1    
     2    1  127 1    
     3    1  128 1    
     4    1  129 1    
     5    2    3 2    
     6    2    4 am   BACKBONE|DICT|INTERRES
     7    4    5 1    
     8    4  130 1    
     9    5    6 1    
    10    5   65 1    
    11    5  131 1    
    12    6    7 1    
    13    6  132 1    
    14    6  133 1    
    15    7    8 1    
    16    8    9 1    
    17    8  134 1    
    18    8  135 1    
    19    9   10 ar   
    20    9   14 ar   
    21   10   11 ar   
    22   10  136 1    
    23   11   12 ar   
    24   11  126 1    
    25   12   13 ar   
    26   12  137 1    
    27   13   14 ar   
    28   13   15 1    
    29   14  138 1    
    30   15   16 1    
    31   15  139 1    
    32   15  140 1    
    33   16   17 1    
    34   17   18 1    
    35   17  141 1    
    36   17  142 1    
    37   18   19 1    
    38   18   67 1    
    39   18  143 1    
    40   19   20 am   BACKBONE|DICT|INTERRES
    41   19  144 1    
    42   20   21 2    
    43   20   22 1    
    44   22   23 1    
    45   22   24 1    
    46   22  145 1    
    47   23  146 1    
    48   23  147 1    
    49   23  148 1    
    50   24   25 am   BACKBONE|DICT|INTERRES
    51   24  149 1    
    52   25   26 2    
    53   25   27 1    
    54   27   28 1    
    55   27   29 1    
    56   27  150 1    
    57   28  151 1    
    58   28  152 1    
    59   28  153 1    
    60   29   30 am   BACKBONE|DICT|INTERRES
    61   29  154 1    
    62   30   31 2    
    63   30   32 1    
    64   32   33 1    
    65   32   34 1    
    66   32  155 1    
    67   33  156 1    
    68   33  157 1    
    69   33  158 1    
    70   34   35 am   BACKBONE|DICT|INTERRES
    71   34  159 1    
    72   35   36 2    
    73   35   37 1    
    74   37   38 1    
    75   37   39 1    
    76   37  160 1    
    77   38  161 1    
    78   38  162 1    
    79   38  163 1    
    80   39   40 am   BACKBONE|DICT|INTERRES
    81   39  164 1    
    82   40   41 2    
    83   40   42 1    
    84   42   43 1    
    85   42   44 1    
    86   42  165 1    
    87   43  166 1    
    88   43  167 1    
    89   43  168 1    
    90   44   45 am   BACKBONE|DICT|INTERRES
    91   44  169 1    
    92   45   46 2    
    93   45   47 1    
    94   47   48 1    
    95   47   49 1    
    96   47  170 1    
    97   48  171 1    
    98   48  172 1    
    99   48  173 1    
   100   49   50 am   BACKBONE|DICT|INTERRES
   101   49  174 1    
   102   50   51 2    
   103   50   52 1    
   104   52   53 1    
   105   52   54 1    
   106   52  175 1    
   107   53  176 1    
   108   53  177 1    
   109   53  178 1    
   110   54   55 am   BACKBONE|DICT|INTERRES
   111   54  179 1    
   112   55   56 2    
   113   55   57 1    
   114   57   58 1    
   115   57   59 1    
   116   57  180 1    
   117   58  181 1    
   118   58  182 1    
   119   58  183 1    
   120   59   60 am   BACKBONE|DICT|INTERRES
   121   59  184 1    
   122   60   61 2    
   123   60   62 1    
   124   62   63 1    
   125   62   64 1    
   126   62  185 1    
   127   63  186 1    
   128   63  187 1    
   129   63  188 1    
   130   64   65 am   BACKBONE|DICT|INTERRES
   131   64  189 1    
   132   65   66 2    
   133   67   68 2    
   134   67   69 am   BACKBONE|DICT|INTERRES
   135   69   70 1    
   136   69  190 1    
   137   70   71 1    
   138   70   72 1    
   139   70  191 1    
   140   71  192 1    
   141   71  193 1    
   142   71  194 1    
   143   72   73 2    
   144   72   74 am   BACKBONE|DICT|INTERRES
   145   74   75 1    
   146   74  195 1    
   147   75   76 1    
   148   75   77 1    
   149   75  196 1    
   150   76  197 1    
   151   76  198 1    
   152   76  199 1    
   153   77   78 2    
   154   77   79 am   BACKBONE|DICT|INTERRES
   155   79   80 1    
   156   79  200 1    
   157   80   81 1    
   158   80   82 1    
   159   80  201 1    
   160   81  202 1    
   161   81  203 1    
   162   81  204 1    
   163   82   83 2    
   164   82   84 am   BACKBONE|DICT|INTERRES
   165   84   85 1    
   166   84  205 1    
   167   85   86 1    
   168   85   87 1    
   169   85  206 1    
   170   86  207 1    
   171   86  208 1    
   172   86  209 1    
   173   87   88 2    
   174   87   89 am   BACKBONE|DICT|INTERRES
   175   89   90 1    
   176   89  210 1    
   177   90   91 1    
   178   90   92 1    
   179   90  211 1    
   180   91  212 1    
   181   91  213 1    
   182   91  214 1    
   183   92   93 2    
   184   92   94 am   BACKBONE|DICT|INTERRES
   185   94   95 1    
   186   94  215 1    
   187   95   96 1    
   188   95   97 1    
   189   95  216 1    
   190   96  217 1    
   191   96  218 1    
   192   96  219 1    
   193   97   98 2    
   194   97   99 am   BACKBONE|DICT|INTERRES
   195   99  100 1    
   196   99  220 1    
   197  100  101 1    
   198  100  102 1    
   199  100  221 1    
   200  101  222 1    
   201  101  223 1    
   202  101  224 1    
   203  102  103 2    
   204  102  104 am   BACKBONE|DICT|INTERRES
   205  104  105 1    
   206  104  225 1    
   207  105  106 1    
   208  105  107 1    
   209  105  226 1    
   210  106  227 1    
   211  106  228 1    
   212  106  229 1    
   213  107  108 2    
   214  107  109 am   BACKBONE|DICT|INTERRES
   215  109  110 1    
   216  109  230 1    
   217  110  111 1    
   218  110  112 1    
   219  110  231 1    
   220  111  232 1    
   221  111  233 1    
   222  111  234 1    
   223  112  113 2    
   224  112  114 am   BACKBONE|DICT|INTERRES
   225  114  115 1    
   226  114  235 1    
   227  115  116 1    
   228  115  117 1    
   229  115  236 1    
   230  116  237 1    
   231  116  238 1    
   232  116  239 1    
   233  117  118 2    
   234  117  119 am   BACKBONE|DICT|INTERRES
   235  119  120 1    
   236  119  240 1    
   237  120  121 1    
   238  120  124 1    
   239  120  241 1    
   240  121  122 am   BACKBONE|DICT|INTERRES
   241  121  123 2    
   242  122  242 1    
   243  122  243 1    
   244  124  125 1    
   245  124  244 1    
   246  124  245 1    
   247  125  126 1    
   248  126  246 1    
   249  126  247 1    
@<TRIPOS>SUBSTRUCTURE
     1 UNK         1 GROUP             0       ****    0 ROOT    
