@<TRIPOS>MOLECULE
3R540
247   249    1
SMALL
USER_CHARGES


@<TRIPOS>ATOM
      1 CA          5.8002  -14.8193  -44.8657 C.3       0 UNK        -0.1800 
      2 C           4.6171  -14.0518  -45.4359 C.2       0 UNK         0.5000 
      3 O           3.9211  -13.3611  -44.6888 O.2       0 UNK        -0.5000 
      4 N           4.3962  -14.1565  -46.7539 N.am      1 UNK        -0.5000 
      5 CA          3.3020  -13.5455  -47.5279 C.3       1 UNK         0.1400 
      6 C6          3.1274  -14.2337  -48.9058 C.3       23 UNK        -0.0398 
      7 S7          2.7094  -15.9990  -48.7535 S.3       23 UNK        -0.2404 
      8 C8          2.5629  -16.4559  -50.5081 C.3       23 UNK        -0.0205 
      9 C9          1.7595  -17.7356  -50.6514 C.ar      23 UNK        -0.0193 
     10 C10         0.3795  -17.6729  -50.8565 C.ar      23 UNK        -0.1150 
     11 C11        -0.3866  -18.8397  -50.9060 C.ar      23 UNK        -0.0193 
     12 C12         0.2450  -20.0787  -50.7532 C.ar      23 UNK        -0.1150 
     13 C13         1.6295  -20.1561  -50.5731 C.ar      23 UNK        -0.0193 
     14 C14         2.3836  -18.9796  -50.5342 C.ar      23 UNK        -0.1150 
     15 C15         2.2996  -21.5104  -50.3811 C.3       23 UNK        -0.0205 
     16 S16         3.1962  -21.6508  -48.7953 S.3       23 UNK        -0.2404 
     17 C17         1.9499  -21.1108  -47.5725 C.3       23 UNK        -0.0398 
     18 CA          1.1916  -22.2687  -46.8873 C.3       11 UNK         0.1400 
     19 N           0.4763  -21.8016  -45.6989 N.am      11 UNK        -0.5000 
     20 C          -0.1431  -22.5932  -44.8134 C.2       10 UNK         0.5000 
     21 O          -0.1287  -23.8230  -44.8658 O.2       10 UNK        -0.5000 
     22 CA         -0.9515  -21.8897  -43.7092 C.3       10 UNK         0.1400 
     23 CB         -0.0283  -21.4199  -42.5754 C.3       10 UNK        -0.1800 
     24 N          -1.7279  -20.7568  -44.2177 N.am      10 UNK        -0.5000 
     25 C          -2.7355  -20.8638  -45.0961 C.2       9 UNK         0.5000 
     26 O          -3.1454  -21.9387  -45.5333 O.2       9 UNK        -0.5000 
     27 CA         -3.3642  -19.5535  -45.6070 C.3       9 UNK         0.1400 
     28 CB         -4.3552  -18.9814  -44.5837 C.3       9 UNK        -0.1800 
     29 N          -2.3690  -18.5375  -45.9511 N.am      9 UNK        -0.5000 
     30 C          -1.4474  -18.6762  -46.9147 C.2       8 UNK         0.5000 
     31 O          -1.3542  -19.6703  -47.6315 O.2       8 UNK        -0.5000 
     32 CA         -0.4235  -17.5387  -47.0635 C.3       8 UNK         0.1400 
     33 CB         -1.0225  -16.3531  -47.8367 C.3       8 UNK        -0.1800 
     34 N           0.0763  -17.0834  -45.7663 N.am      8 UNK        -0.5000 
     35 C           0.8039  -17.8358  -44.9283 C.2       7 UNK         0.5000 
     36 O           1.1716  -18.9836  -45.1775 O.2       7 UNK        -0.5000 
     37 CA          1.1231  -17.2191  -43.5559 C.3       7 UNK         0.1400 
     38 CB          2.2928  -16.2314  -43.6625 C.3       7 UNK        -0.1800 
     39 N          -0.0380  -16.5444  -42.9751 N.am      7 UNK        -0.5000 
     40 C          -1.1473  -17.1770  -42.5626 C.2       6 UNK         0.5000 
     41 O          -1.2854  -18.3987  -42.5905 O.2       6 UNK        -0.5000 
     42 CA         -2.3181  -16.3006  -42.0788 C.3       6 UNK         0.1400 
     43 CB         -2.2010  -16.0326  -40.5712 C.3       6 UNK        -0.1800 
     44 N          -2.4131  -15.0242  -42.7866 N.am      6 UNK        -0.5000 
     45 C          -2.5983  -14.8802  -44.1071 C.2       5 UNK         0.5000 
     46 O          -2.7767  -15.8263  -44.8739 O.2       5 UNK        -0.5000 
     47 CA         -2.5306  -13.4449  -44.6678 C.3       5 UNK         0.1400 
     48 CB         -3.9439  -12.9017  -44.9240 C.3       5 UNK        -0.1800 
     49 N          -1.8101  -12.5184  -43.7863 N.am      5 UNK        -0.5000 
     50 C          -0.4929  -12.5670  -43.5482 C.2       4 UNK         0.5000 
     51 O           0.2756  -13.3585  -44.1000 O.2       4 UNK        -0.5000 
     52 CA          0.0312  -11.6311  -42.4529 C.3       4 UNK         0.1400 
     53 CB         -0.1901  -12.2698  -41.0665 C.3       4 UNK        -0.1800 
     54 N           1.4508  -11.3794  -42.6753 N.am      4 UNK        -0.5000 
     55 C           2.1704  -10.4174  -42.0845 C.2       3 UNK         0.5000 
     56 O           1.7115   -9.6206  -41.2648 O.2       3 UNK        -0.5000 
     57 CA          3.6498  -10.3139  -42.4929 C.3       3 UNK         0.1400 
     58 CB          4.4922  -11.3665  -41.7550 C.3       3 UNK        -0.1800 
     59 N           3.8357  -10.4716  -43.9345 N.am      3 UNK        -0.5000 
     60 C           3.5137   -9.5413  -44.8487 C.2       2 UNK         0.5000 
     61 O           3.0556   -8.4348  -44.5621 O.2       2 UNK        -0.5000 
     62 CA          3.7271   -9.9026  -46.3281 C.3       2 UNK         0.1400 
     63 CB          5.1166   -9.4353  -46.8016 C.3       2 UNK        -0.1800 
     64 N           3.5687  -11.3398  -46.5208 N.am      2 UNK        -0.5000 
     65 C           3.4586  -12.0106  -47.6669 C.2       1 UNK         0.5000 
     66 O           3.4838  -11.4747  -48.7765 O.2       1 UNK        -0.5000 
     67 C           0.2483  -23.0065  -47.8602 C.2       11 UNK         0.5000 
     68 O           0.5841  -24.1016  -48.3102 O.2       11 UNK        -0.5000 
     69 N          -0.9318  -22.4274  -48.1265 N.am      12 UNK        -0.5000 
     70 CA         -1.9847  -23.0289  -48.9441 C.3       12 UNK         0.1400 
     71 CB         -3.1399  -22.0372  -49.1252 C.3       12 UNK        -0.1800 
     72 C          -2.4959  -24.3560  -48.3632 C.2       12 UNK         0.5000 
     73 O          -2.6070  -25.3298  -49.1049 O.2       12 UNK        -0.5000 
     74 N          -2.7415  -24.3912  -47.0459 N.am      13 UNK        -0.5000 
     75 CA         -3.1477  -25.5903  -46.3122 C.3       13 UNK         0.1400 
     76 CB         -3.4805  -25.2219  -44.8588 C.3       13 UNK        -0.1800 
     77 C          -2.0963  -26.7146  -46.3699 C.2       13 UNK         0.5000 
     78 O          -2.4620  -27.8701  -46.5869 O.2       13 UNK        -0.5000 
     79 N          -0.8131  -26.3550  -46.2212 N.am      14 UNK        -0.5000 
     80 CA          0.3257  -27.2678  -46.3450 C.3       14 UNK         0.1400 
     81 CB          1.6018  -26.5638  -45.8590 C.3       14 UNK        -0.1800 
     82 C           0.5096  -27.8083  -47.7769 C.2       14 UNK         0.5000 
     83 O           0.8166  -28.9888  -47.9464 O.2       14 UNK        -0.5000 
     84 N           0.2951  -26.9450  -48.7785 N.am      15 UNK        -0.5000 
     85 CA          0.3436  -27.2786  -50.2041 C.3       15 UNK         0.1400 
     86 CB          0.4930  -25.9763  -51.0083 C.3       15 UNK        -0.1800 
     87 C          -0.8842  -28.0710  -50.7007 C.2       15 UNK         0.5000 
     88 O          -0.8316  -28.6234  -51.8003 O.2       15 UNK        -0.5000 
     89 N          -1.9624  -28.0896  -49.9029 N.am      16 UNK        -0.5000 
     90 CA         -3.2992  -28.6103  -50.2089 C.3       16 UNK         0.1400 
     91 CB         -3.2715  -30.1380  -50.4236 C.3       16 UNK        -0.1800 
     92 C          -3.9747  -27.8361  -51.3630 C.2       16 UNK         0.5000 
     93 O          -4.6280  -28.4337  -52.2208 O.2       16 UNK        -0.5000 
     94 N          -3.7917  -26.5120  -51.3559 N.am      17 UNK        -0.5000 
     95 CA         -4.3450  -25.5543  -52.3064 C.3       17 UNK         0.1400 
     96 CB         -3.1960  -24.6639  -52.8101 C.3       17 UNK        -0.1800 
     97 C          -5.4162  -24.6920  -51.6192 C.2       17 UNK         0.5000 
     98 O          -5.4652  -24.6190  -50.3887 O.2       17 UNK        -0.5000 
     99 N          -6.2416  -24.0215  -52.4300 N.am      18 UNK        -0.5000 
    100 CA        -7.1754  -22.9981  -51.9690 C.3       18 UNK         0.1400 
    101 CB        -8.3168  -22.8536  -52.9881 C.3       18 UNK        -0.1800 
    102 C         -6.4251  -21.6678  -51.8048 C.2       18 UNK         0.5000 
    103 O         -5.8110  -21.2027  -52.7672 O.2       18 UNK        -0.5000 
    104 N         -6.5110  -21.0599  -50.6139 N.am      19 UNK        -0.5000 
    105 CA        -5.8520  -19.7903  -50.2822 C.3       19 UNK         0.1400 
    106 CB        -6.0710  -19.4739  -48.7954 C.3       19 UNK        -0.1800 
    107 C         -6.3067  -18.6125  -51.1663 C.2       19 UNK         0.5000 
    108 O         -5.5076  -17.7271  -51.4692 O.2       19 UNK        -0.5000 
    109 N         -7.5727  -18.6522  -51.6021 N.am      20 UNK        -0.5000 
    110 CA        -8.1749  -17.6857  -52.5187 C.3       20 UNK         0.1400 
    111 CB        -9.6982  -17.8879  -52.5165 C.3       20 UNK        -0.1800 
    112 C         -7.6252  -17.7645  -53.9576 C.2       20 UNK         0.5000 
    113 O         -7.7351  -16.7788  -54.6878 O.2       20 UNK        -0.5000 
    114 N         -7.0606  -18.9168  -54.3510 N.am      21 UNK        -0.5000 
    115 CA        -6.4735  -19.1202  -55.6750 C.3       21 UNK         0.1400 
    116 CB        -6.4783  -20.6157  -56.0308 C.3       21 UNK        -0.1800 
    117 C         -5.0549  -18.5343  -55.7556 C.2       21 UNK         0.5000 
    118 O         -4.7440  -17.8357  -56.7217 O.2       21 UNK        -0.5000 
    119 N         -4.2264  -18.8207  -54.7430 N.am      22 UNK        -0.5000 
    120 CA        -2.8579  -18.2913  -54.6230 C.3       22 UNK         0.1400 
    121 C         -2.7760  -16.8361  -54.0812 C.2       22 UNK         0.5000 
    122 N         -3.7378  -16.3558  -53.3031 N.am      22 UNK        -0.7600 
    123 O         -1.8265  -16.1212  -54.3890 O.2       22 UNK        -0.5000 
    124 C124       -1.9094  -19.2526  -53.8593 C.3       23 UNK        -0.0398 
    125 S125       -2.5829  -19.9030  -52.2927 S.3       23 UNK        -0.2404 
    126 C126       -1.8988  -18.7404  -51.0667 C.3       23 UNK        -0.0205 
    127 H127        6.5300  -14.1252  -44.4491 H         1 UNK         0.0600 
    128 H128        6.2967  -15.4232  -45.6255 H         1 UNK         0.0600 
    129 H129        5.4662  -15.4826  -44.0680 H         1 UNK         0.0600 
    130 H130        5.0210  -14.7325  -47.2993 H         1 UNK         0.3000 
    131 H131        2.3782  -13.7041  -46.9665 H         1 UNK         0.0600 
    132 H132        4.0334  -14.1336  -49.5061 H         1 UNK         0.0800 
    133 H133        2.3247  -13.7557  -49.4706 H         1 UNK         0.0800 
    134 H134        2.0801  -15.6511  -51.0647 H         1 UNK         0.0800 
    135 H135        3.5577  -16.5797  -50.9387 H         1 UNK         0.0800 
    136 H136       -0.1023  -16.7093  -50.9455 H         1 UNK         0.1150 
    137 H137       -0.3474  -20.9825  -50.7624 H         1 UNK         0.1150 
    138 H138        3.4507  -19.0316  -50.3694 H         1 UNK         0.1150 
    139 H139        1.5680  -22.3172  -50.4456 H         1 UNK         0.0800 
    140 H140        3.0034  -21.6739  -51.1979 H         1 UNK         0.0800 
    141 H141        1.2549  -20.3898  -48.0017 H         1 UNK         0.0800 
    142 H142        2.5049  -20.5539  -46.8170 H         1 UNK         0.0800 
    143 H143        1.9313  -22.9938  -46.5411 H         1 UNK         0.0600 
    144 H144        0.4488  -20.7963  -45.5575 H         1 UNK         0.3000 
    145 H145       -1.6526  -22.6177  -43.2962 H         1 UNK         0.0600 
    146 H146       -0.6030  -21.0068  -41.7464 H         1 UNK         0.0600 
    147 H147        0.5610  -22.2489  -42.1815 H         1 UNK         0.0600 
    148 H148        0.6678  -20.6519  -42.9145 H         1 UNK         0.0600 
    149 H149       -1.4804  -19.8393  -43.8575 H         1 UNK         0.3000 
    150 H150       -3.9178  -19.7881  -46.5178 H         1 UNK         0.0600 
    151 H151       -5.1448  -19.7007  -44.3629 H         1 UNK         0.0600 
    152 H152       -4.8334  -18.0767  -44.9599 H         1 UNK         0.0600 
    153 H153       -3.8642  -18.7348  -43.6428 H         1 UNK         0.0600 
    154 H154       -2.4032  -17.6641  -45.4334 H         1 UNK         0.3000 
    155 H155        0.4220  -17.9256  -47.6367 H         1 UNK         0.0600 
    156 H156       -0.2711  -15.5874  -48.0285 H         1 UNK         0.0600 
    157 H157       -1.4125  -16.6754  -48.8020 H         1 UNK         0.0600 
    158 H158       -1.8462  -15.8861  -47.2984 H         1 UNK         0.0600 
    159 H159       -0.2142  -16.1657  -45.4632 H         1 UNK         0.3000 
    160 H160        1.4191  -18.0278  -42.8842 H         1 UNK         0.0600 
    161 H161        2.0550  -15.3984  -44.3245 H         1 UNK         0.0600 
    162 H162        3.1811  -16.7226  -44.0610 H         1 UNK         0.0600 
    163 H163        2.5567  -15.8192  -42.6885 H         1 UNK         0.0600 
    164 H164       -0.0129  -15.5344  -42.9555 H         1 UNK         0.3000 
    165 H165       -3.2432  -16.8508  -42.2589 H         1 UNK         0.0600 
    166 H166       -3.0649  -15.4811  -40.1998 H         1 UNK         0.0600 
    167 H167       -2.1492  -16.9677  -40.0118 H         1 UNK         0.0600 
    168 H168       -1.3060  -15.4568  -40.3320 H         1 UNK         0.0600 
    169 H169       -2.2936  -14.1910  -42.2315 H         1 UNK         0.3000 
    170 H170       -2.0022  -13.4918  -45.6225 H         1 UNK         0.0600 
    171 H171       -4.4971  -13.5563  -45.5990 H         1 UNK         0.0600 
    172 H172       -4.5186  -12.8211  -44.0005 H         1 UNK         0.0600 
    173 H173       -3.9096  -11.9151  -45.3866 H         1 UNK         0.0600 
    174 H174       -2.3739  -11.8402  -43.2934 H         1 UNK         0.3000 
    175 H175       -0.5093  -10.6843  -42.5151 H         1 UNK         0.0600 
    176 H176       -1.2453  -12.4829  -40.8929 H         1 UNK         0.0600 
    177 H177        0.3565  -13.2086  -40.9669 H         1 UNK         0.0600 
    178 H178        0.1351  -11.6093  -40.2630 H         1 UNK         0.0600 
    179 H179        1.8870  -11.9979  -43.3491 H         1 UNK         0.3000 
    180 H180        4.0119   -9.3254  -42.2021 H         1 UNK         0.0600 
    181 H181        4.1918  -12.3819  -42.0174 H         1 UNK         0.0600 
    182 H182        4.3877  -11.2620  -40.6744 H         1 UNK         0.0600 
    183 H183        5.5511  -11.2596  -41.9909 H         1 UNK         0.0600 
    184 H184        4.2049  -11.3661  -44.2310 H         1 UNK         0.3000 
    185 H185        2.9591   -9.3897  -46.9105 H         1 UNK         0.0600 
    186 H186        5.2559   -8.3702  -46.6120 H         1 UNK         0.0600 
    187 H187        5.9154   -9.9690  -46.2852 H         1 UNK         0.0600 
    188 H188        5.2486   -9.5896  -47.8723 H         1 UNK         0.0600 
    189 H189        3.5297  -11.9057  -45.6770 H         1 UNK         0.3000 
    190 H190       -1.1212  -21.4970  -47.7592 H         1 UNK         0.3000 
    191 H191       -1.5573  -23.2343  -49.9273 H         1 UNK         0.0600 
    192 H192       -3.6312  -21.8061  -48.1806 H         1 UNK         0.0600 
    193 H193       -3.8952  -22.4364  -49.8021 H         1 UNK         0.0600 
    194 H194       -2.7843  -21.1030  -49.5512 H         1 UNK         0.0600 
    195 H195       -2.6656  -23.5309  -46.5097 H         1 UNK         0.3000 
    196 H196       -4.0587  -25.9671  -46.7820 H         1 UNK         0.0600 
    197 H197       -3.8112  -26.0980  -44.2996 H         1 UNK         0.0600 
    198 H198       -4.2825  -24.4849  -44.8135 H         1 UNK         0.0600 
    199 H199       -2.6167  -24.8072  -44.3394 H         1 UNK         0.0600 
    200 H200       -0.5990  -25.3867  -46.0009 H         1 UNK         0.3000 
    201 H201        0.1414  -28.1221  -45.6904 H         1 UNK         0.0600 
    202 H202        1.5049  -26.2464  -44.8206 H         1 UNK         0.0600 
    203 H203        1.8287  -25.6811  -46.4573 H         1 UNK         0.0600 
    204 H204        2.4627  -27.2308  -45.9170 H         1 UNK         0.0600 
    205 H205        0.1166  -25.9704  -48.5504 H         1 UNK         0.3000 
    206 H206        1.2266  -27.8947  -50.3847 H         1 UNK         0.0600 
    207 H207        1.3889  -25.4298  -50.7129 H         1 UNK         0.0600 
    208 H208        0.5741  -26.1803  -52.0766 H         1 UNK         0.0600 
    209 H209       -0.3636  -25.3168  -50.8647 H         1 UNK         0.0600 
    210 H210       -1.8990  -27.5552  -49.0459 H         1 UNK         0.3000 
    211 H211       -3.9042  -28.4163  -49.3221 H         1 UNK         0.0600 
    212 H212       -2.7419  -30.4129  -51.3359 H         1 UNK         0.0600 
    213 H213       -4.2831  -30.5377  -50.5020 H         1 UNK         0.0600 
    214 H214       -2.7871  -30.6436  -49.5882 H         1 UNK         0.0600 
    215 H215       -3.3170  -26.0983  -50.5536 H         1 UNK         0.3000 
    216 H216       -4.7987  -26.0696  -53.1553 H         1 UNK         0.0600 
    217 H217       -2.7345  -24.1043  -51.9954 H         1 UNK         0.0600 
    218 H218       -3.5490  -23.9395  -53.5453 H         1 UNK         0.0600 
    219 H219       -2.4175  -25.2592  -53.2877 H         1 UNK         0.0600 
    220 H220       -6.1138  -24.0894  -53.4292 H         1 UNK         0.3000 
    221 H221       -7.6080  -23.2964  -51.0114 H         1 UNK         0.0600 
    222 H222       -8.8693  -23.7874  -53.0941 H         1 UNK         0.0600 
    223 H223       -7.9470  -22.5707  -53.9744 H         1 UNK         0.0600 
    224 H224       -9.0280  -22.0891  -52.6727 H         1 UNK         0.0600 
    225 H225       -7.0322  -21.5043  -49.8719 H         1 UNK         0.3000 
    226 H226       -4.7825  -19.9235  -50.4412 H         1 UNK         0.0600 
    227 H227       -5.7043  -20.2816  -48.1622 H         1 UNK         0.0600 
    228 H228       -5.5362  -18.5678  -48.5071 H         1 UNK         0.0600 
    229 H229       -7.1264  -19.3211  -48.5669 H         1 UNK         0.0600 
    230 H230       -8.1561  -19.4201  -51.3050 H         1 UNK         0.3000 
    231 H231       -7.9622  -16.6830  -52.1419 H         1 UNK         0.0600 
    232 H232       -9.9723  -18.8832  -52.8688 H         1 UNK         0.0600 
    233 H233      -10.1901  -17.1628  -53.1663 H         1 UNK         0.0600 
    234 H234      -10.1125  -17.7585  -51.5165 H         1 UNK         0.0600 
    235 H235       -6.9443  -19.6696  -53.6837 H         1 UNK         0.3000 
    236 H236       -7.0907  -18.6077  -56.4164 H         1 UNK         0.0600 
    237 H237       -7.4856  -21.0292  -55.9822 H         1 UNK         0.0600 
    238 H238       -6.1122  -20.7717  -57.0462 H         1 UNK         0.0600 
    239 H239       -5.8424  -21.1987  -55.3650 H         1 UNK         0.0600 
    240 H240       -4.5485  -19.4049  -53.9822 H         1 UNK         0.3000 
    241 H241       -2.4515  -18.2311  -55.6349 H         1 UNK         0.0600 
    242 H242       -3.6725  -15.4055  -52.9772 H         1 UNK         0.3800 
    243 H243       -4.4683  -16.9552  -52.9332 H         1 UNK         0.3800 
    244 H244       -0.9344  -18.7936  -53.6863 H         1 UNK         0.0800 
    245 H245       -1.7078  -20.1175  -54.4921 H         1 UNK         0.0800 
    246 H246       -2.1935  -17.7269  -51.3387 H         1 UNK         0.0800 
    247 H247       -2.3613  -18.9313  -50.0990 H         1 UNK         0.0800 
@<TRIPOS>BOND
     1    1    2 1    
     2    1  127 1    
     3    1  128 1    
     4    1  129 1    
     5    2    3 2    
     6    2    4 am   BACKBONE|DICT|INTERRES
     7    4    5 1    
     8    4  130 1    
     9    5    6 1    
    10    5   65 1    
    11    5  131 1    
    12    6    7 1    
    13    6  132 1    
    14    6  133 1    
    15    7    8 1    
    16    8    9 1    
    17    8  134 1    
    18    8  135 1    
    19    9   10 ar   
    20    9   14 ar   
    21   10   11 ar   
    22   10  136 1    
    23   11   12 ar   
    24   11  126 1    
    25   12   13 ar   
    26   12  137 1    
    27   13   14 ar   
    28   13   15 1    
    29   14  138 1    
    30   15   16 1    
    31   15  139 1    
    32   15  140 1    
    33   16   17 1    
    34   17   18 1    
    35   17  141 1    
    36   17  142 1    
    37   18   19 1    
    38   18   67 1    
    39   18  143 1    
    40   19   20 am   BACKBONE|DICT|INTERRES
    41   19  144 1    
    42   20   21 2    
    43   20   22 1    
    44   22   23 1    
    45   22   24 1    
    46   22  145 1    
    47   23  146 1    
    48   23  147 1    
    49   23  148 1    
    50   24   25 am   BACKBONE|DICT|INTERRES
    51   24  149 1    
    52   25   26 2    
    53   25   27 1    
    54   27   28 1    
    55   27   29 1    
    56   27  150 1    
    57   28  151 1    
    58   28  152 1    
    59   28  153 1    
    60   29   30 am   BACKBONE|DICT|INTERRES
    61   29  154 1    
    62   30   31 2    
    63   30   32 1    
    64   32   33 1    
    65   32   34 1    
    66   32  155 1    
    67   33  156 1    
    68   33  157 1    
    69   33  158 1    
    70   34   35 am   BACKBONE|DICT|INTERRES
    71   34  159 1    
    72   35   36 2    
    73   35   37 1    
    74   37   38 1    
    75   37   39 1    
    76   37  160 1    
    77   38  161 1    
    78   38  162 1    
    79   38  163 1    
    80   39   40 am   BACKBONE|DICT|INTERRES
    81   39  164 1    
    82   40   41 2    
    83   40   42 1    
    84   42   43 1    
    85   42   44 1    
    86   42  165 1    
    87   43  166 1    
    88   43  167 1    
    89   43  168 1    
    90   44   45 am   BACKBONE|DICT|INTERRES
    91   44  169 1    
    92   45   46 2    
    93   45   47 1    
    94   47   48 1    
    95   47   49 1    
    96   47  170 1    
    97   48  171 1    
    98   48  172 1    
    99   48  173 1    
   100   49   50 am   BACKBONE|DICT|INTERRES
   101   49  174 1    
   102   50   51 2    
   103   50   52 1    
   104   52   53 1    
   105   52   54 1    
   106   52  175 1    
   107   53  176 1    
   108   53  177 1    
   109   53  178 1    
   110   54   55 am   BACKBONE|DICT|INTERRES
   111   54  179 1    
   112   55   56 2    
   113   55   57 1    
   114   57   58 1    
   115   57   59 1    
   116   57  180 1    
   117   58  181 1    
   118   58  182 1    
   119   58  183 1    
   120   59   60 am   BACKBONE|DICT|INTERRES
   121   59  184 1    
   122   60   61 2    
   123   60   62 1    
   124   62   63 1    
   125   62   64 1    
   126   62  185 1    
   127   63  186 1    
   128   63  187 1    
   129   63  188 1    
   130   64   65 am   BACKBONE|DICT|INTERRES
   131   64  189 1    
   132   65   66 2    
   133   67   68 2    
   134   67   69 am   BACKBONE|DICT|INTERRES
   135   69   70 1    
   136   69  190 1    
   137   70   71 1    
   138   70   72 1    
   139   70  191 1    
   140   71  192 1    
   141   71  193 1    
   142   71  194 1    
   143   72   73 2    
   144   72   74 am   BACKBONE|DICT|INTERRES
   145   74   75 1    
   146   74  195 1    
   147   75   76 1    
   148   75   77 1    
   149   75  196 1    
   150   76  197 1    
   151   76  198 1    
   152   76  199 1    
   153   77   78 2    
   154   77   79 am   BACKBONE|DICT|INTERRES
   155   79   80 1    
   156   79  200 1    
   157   80   81 1    
   158   80   82 1    
   159   80  201 1    
   160   81  202 1    
   161   81  203 1    
   162   81  204 1    
   163   82   83 2    
   164   82   84 am   BACKBONE|DICT|INTERRES
   165   84   85 1    
   166   84  205 1    
   167   85   86 1    
   168   85   87 1    
   169   85  206 1    
   170   86  207 1    
   171   86  208 1    
   172   86  209 1    
   173   87   88 2    
   174   87   89 am   BACKBONE|DICT|INTERRES
   175   89   90 1    
   176   89  210 1    
   177   90   91 1    
   178   90   92 1    
   179   90  211 1    
   180   91  212 1    
   181   91  213 1    
   182   91  214 1    
   183   92   93 2    
   184   92   94 am   BACKBONE|DICT|INTERRES
   185   94   95 1    
   186   94  215 1    
   187   95   96 1    
   188   95   97 1    
   189   95  216 1    
   190   96  217 1    
   191   96  218 1    
   192   96  219 1    
   193   97   98 2    
   194   97   99 am   BACKBONE|DICT|INTERRES
   195   99  100 1    
   196   99  220 1    
   197  100  101 1    
   198  100  102 1    
   199  100  221 1    
   200  101  222 1    
   201  101  223 1    
   202  101  224 1    
   203  102  103 2    
   204  102  104 am   BACKBONE|DICT|INTERRES
   205  104  105 1    
   206  104  225 1    
   207  105  106 1    
   208  105  107 1    
   209  105  226 1    
   210  106  227 1    
   211  106  228 1    
   212  106  229 1    
   213  107  108 2    
   214  107  109 am   BACKBONE|DICT|INTERRES
   215  109  110 1    
   216  109  230 1    
   217  110  111 1    
   218  110  112 1    
   219  110  231 1    
   220  111  232 1    
   221  111  233 1    
   222  111  234 1    
   223  112  113 2    
   224  112  114 am   BACKBONE|DICT|INTERRES
   225  114  115 1    
   226  114  235 1    
   227  115  116 1    
   228  115  117 1    
   229  115  236 1    
   230  116  237 1    
   231  116  238 1    
   232  116  239 1    
   233  117  118 2    
   234  117  119 am   BACKBONE|DICT|INTERRES
   235  119  120 1    
   236  119  240 1    
   237  120  121 1    
   238  120  124 1    
   239  120  241 1    
   240  121  122 am   BACKBONE|DICT|INTERRES
   241  121  123 2    
   242  122  242 1    
   243  122  243 1    
   244  124  125 1    
   245  124  244 1    
   246  124  245 1    
   247  125  126 1    
   248  126  246 1    
   249  126  247 1    
@<TRIPOS>SUBSTRUCTURE
     1 UNK         1 GROUP             0       ****    0 ROOT    
