@<TRIPOS>MOLECULE
3R540
247   249    1
SMALL
USER_CHARGES


@<TRIPOS>ATOM
      1 CA          1.9770  -10.9473  -47.8243 C.3       0 UNK        -0.1800 
      2 C           2.0426  -12.4200  -48.2037 C.2       0 UNK         0.5000 
      3 O           1.2579  -13.2108  -47.6846 O.2       0 UNK        -0.5000 
      4 N           2.9622  -12.7677  -49.1146 N.am      1 UNK        -0.5000 
      5 CA          3.2897  -14.1145  -49.6070 C.3       1 UNK         0.1400 
      6 C6          2.0763  -14.9431  -50.1153 C.3       23 UNK        -0.0398 
      7 S7          1.2355  -14.1619  -51.5356 S.3       23 UNK        -0.2404 
      8 C8         -0.3895  -13.7171  -50.8391 C.3       23 UNK        -0.0205 
      9 C9         -1.2186  -14.9374  -50.4634 C.ar      23 UNK        -0.0193 
     10 C10        -1.7059  -15.7888  -51.4586 C.ar      23 UNK        -0.1150 
     11 C11        -2.4759  -16.9069  -51.1268 C.ar      23 UNK        -0.0193 
     12 C12        -2.7603  -17.1686  -49.7821 C.ar      23 UNK        -0.1150 
     13 C13        -2.2710  -16.3301  -48.7744 C.ar      23 UNK        -0.0193 
     14 C14        -1.5075  -15.2118  -49.1233 C.ar      23 UNK        -0.1150 
     15 C15        -2.5692  -16.6290  -47.3113 C.3       23 UNK        -0.0205 
     16 S16        -1.0646  -17.1051  -46.3997 S.3       23 UNK        -0.2404 
     17 C17        -1.7716  -17.9252  -44.9278 C.3       23 UNK        -0.0398 
     18 CA         -1.6264  -19.4677  -44.9556 C.3       11 UNK         0.1400 
     19 N          -1.9623  -20.0710  -43.6593 N.am      11 UNK        -0.5000 
     20 C          -1.8897  -21.3796  -43.3632 C.2       10 UNK         0.5000 
     21 O          -1.6374  -22.2508  -44.1967 O.2       10 UNK        -0.5000 
     22 CA         -2.1482  -21.7933  -41.9030 C.3       10 UNK         0.1400 
     23 CB         -1.2341  -22.9525  -41.4674 C.3       10 UNK        -0.1800 
     24 N          -1.9561  -20.6709  -40.9849 N.am      10 UNK        -0.5000 
     25 C          -2.8412  -20.2599  -40.0667 C.2       9 UNK         0.5000 
     26 O          -3.9498  -20.7739  -39.9127 O.2       9 UNK        -0.5000 
     27 CA         -2.4306  -19.0864  -39.1510 C.3       9 UNK         0.1400 
     28 CB         -2.1113  -19.5986  -37.7376 C.3       9 UNK        -0.1800 
     29 N          -1.2819  -18.3208  -39.6384 N.am      9 UNK        -0.5000 
     30 C          -1.2905  -17.5169  -40.7095 C.2       8 UNK         0.5000 
     31 O          -2.2850  -17.3154  -41.4067 O.2       8 UNK        -0.5000 
     32 CA          0.0563  -16.8785  -41.1003 C.3       8 UNK         0.1400 
     33 CB          0.2399  -15.5294  -40.3903 C.3       8 UNK        -0.1800 
     34 N           1.2267  -17.7290  -40.8409 N.am      8 UNK        -0.5000 
     35 C           1.4080  -18.9640  -41.3286 C.2       7 UNK         0.5000 
     36 O           0.5953  -19.5293  -42.0590 O.2       7 UNK        -0.5000 
     37 CA          2.6842  -19.7017  -40.9056 C.3       7 UNK         0.1400 
     38 CB          2.4086  -21.2019  -40.6677 C.3       7 UNK        -0.1800 
     39 N           3.7139  -19.5244  -41.9256 N.am      7 UNK        -0.5000 
     40 C           5.0159  -19.7799  -41.7366 C.2       6 UNK         0.5000 
     41 O           5.4872  -20.1737  -40.6684 O.2       6 UNK        -0.5000 
     42 CA          5.9603  -19.5427  -42.9289 C.3       6 UNK         0.1400 
     43 CB          5.7147  -20.5649  -44.0508 C.3       6 UNK        -0.1800 
     44 N           5.8491  -18.1872  -43.4605 N.am      6 UNK        -0.5000 
     45 C           6.2365  -17.0753  -42.8189 C.2       5 UNK         0.5000 
     46 O           6.8075  -17.0743  -41.7277 O.2       5 UNK        -0.5000 
     47 CA          5.9064  -15.7338  -43.5015 C.3       5 UNK         0.1400 
     48 CB          6.9990  -15.3381  -44.5065 C.3       5 UNK        -0.1800 
     49 N           4.6068  -15.7673  -44.1725 N.am      5 UNK        -0.5000 
     50 C           3.4336  -15.8480  -43.5288 C.2       4 UNK         0.5000 
     51 O           3.3205  -15.7996  -42.3043 O.2       4 UNK        -0.5000 
     52 CA          2.1802  -16.0423  -44.3956 C.3       4 UNK         0.1400 
     53 CB          1.5737  -14.6861  -44.7757 C.3       4 UNK        -0.1800 
     54 N           2.4535  -16.8278  -45.5980 N.am      4 UNK        -0.5000 
     55 C           2.6328  -18.1571  -45.5888 C.2       3 UNK         0.5000 
     56 O           2.5857  -18.8438  -44.5685 O.2       3 UNK        -0.5000 
     57 CA          2.9779  -18.8261  -46.9329 C.3       3 UNK         0.1400 
     58 CB          1.7082  -19.1124  -47.7437 C.3       3 UNK        -0.1800 
     59 N           3.8864  -18.0273  -47.7533 N.am      3 UNK        -0.5000 
     60 C           5.1267  -17.6664  -47.3998 C.2       2 UNK         0.5000 
     61 O           5.6716  -18.0326  -46.3600 O.2       2 UNK        -0.5000 
     62 CA          5.8620  -16.6941  -48.3416 C.3       2 UNK         0.1400 
     63 CB          6.7734  -17.4677  -49.3055 C.3       2 UNK        -0.1800 
     64 N           4.9645  -15.8277  -49.1153 N.am      2 UNK        -0.5000 
     65 C           4.1295  -14.9187  -48.5898 C.2       1 UNK         0.5000 
     66 O           4.0123  -14.7370  -47.3754 O.2       1 UNK        -0.5000 
     67 C          -2.4140  -20.0937  -46.1245 C.2       11 UNK         0.5000 
     68 O          -1.8247  -20.3944  -47.1609 O.2       11 UNK        -0.5000 
     69 N          -3.7183  -20.3249  -45.9187 N.am      12 UNK        -0.5000 
     70 CA         -4.6092  -20.9275  -46.9099 C.3       12 UNK         0.1400 
     71 CB         -6.0547  -20.8768  -46.3953 C.3       12 UNK        -0.1800 
     72 C          -4.2174  -22.3657  -47.2964 C.2       12 UNK         0.5000 
     73 O          -4.3383  -22.7310  -48.4659 O.2       12 UNK        -0.5000 
     74 N          -3.7298  -23.1410  -46.3195 N.am      13 UNK        -0.5000 
     75 CA         -3.2301  -24.4984  -46.5238 C.3       13 UNK         0.1400 
     76 CB         -3.2391  -25.2566  -45.1871 C.3       13 UNK        -0.1800 
     77 C          -1.8238  -24.4931  -47.1447 C.2       13 UNK         0.5000 
     78 O          -1.5692  -25.2609  -48.0724 O.2       13 UNK        -0.5000 
     79 N          -0.9478  -23.6156  -46.6358 N.am      14 UNK        -0.5000 
     80 CA          0.4395  -23.4619  -47.0742 C.3       14 UNK         0.1400 
     81 CB          1.1834  -22.5444  -46.0909 C.3       14 UNK        -0.1800 
     82 C           0.5708  -22.9537  -48.5223 C.2       14 UNK         0.5000 
     83 O           1.4095  -23.4622  -49.2670 O.2       14 UNK        -0.5000 
     84 N          -0.2679  -21.9815  -48.9033 N.am      15 UNK        -0.5000 
     85 CA         -0.3210  -21.4227  -50.2555 C.3       15 UNK         0.1400 
     86 CB         -0.9248  -20.0136  -50.1890 C.3       15 UNK        -0.1800 
     87 C          -1.1469  -22.2773  -51.2344 C.2       15 UNK         0.5000 
     88 O          -1.0278  -22.0736  -52.4428 O.2       15 UNK        -0.5000 
     89 N          -1.9881  -23.1770  -50.6997 N.am      16 UNK        -0.5000 
     90 CA         -3.0168  -23.9558  -51.3966 C.3       16 UNK         0.1400 
     91 CB         -2.3902  -24.9603  -52.3858 C.3       16 UNK        -0.1800 
     92 C          -4.0578  -23.0262  -52.0509 C.2       16 UNK         0.5000 
     93 O          -4.2514  -23.0528  -53.2678 O.2       16 UNK        -0.5000 
     94 N          -4.6973  -22.1951  -51.2164 N.am      17 UNK        -0.5000 
     95 CA         -5.6249  -21.1281  -51.6038 C.3       17 UNK         0.1400 
     96 CB         -6.1044  -20.3847  -50.3499 C.3       17 UNK        -0.1800 
     97 C          -6.8252  -21.5827  -52.4502 C.2       17 UNK         0.5000 
     98 O          -7.2940  -20.8065  -53.2808 O.2       17 UNK        -0.5000 
     99 N          -7.2736  -22.8298  -52.2575 N.am      18 UNK        -0.5000 
    100 CA        -8.3345  -23.4588  -53.0453 C.3       18 UNK         0.1400 
    101 CB        -8.7733  -24.7557  -52.3487 C.3       18 UNK        -0.1800 
    102 C         -7.9233  -23.7427  -54.5045 C.2       18 UNK         0.5000 
    103 O         -8.7803  -23.7084  -55.3879 O.2       18 UNK        -0.5000 
    104 N         -6.6298  -24.0091  -54.7329 N.am      19 UNK        -0.5000 
    105 CA        -6.0516  -24.2380  -56.0569 C.3       19 UNK         0.1400 
    106 CB        -4.8898  -25.2377  -55.9397 C.3       19 UNK        -0.1800 
    107 C         -5.5737  -22.9198  -56.6872 C.2       19 UNK         0.5000 
    108 O         -5.7698  -22.7109  -57.8848 O.2       19 UNK        -0.5000 
    109 N         -4.9702  -22.0487  -55.8665 N.am      20 UNK        -0.5000 
    110 CA        -4.4646  -20.7325  -56.2631 C.3       20 UNK         0.1400 
    111 CB        -3.4942  -20.2344  -55.1814 C.3       20 UNK        -0.1800 
    112 C         -5.5741  -19.6910  -56.5216 C.2       20 UNK         0.5000 
    113 O         -5.3065  -18.6828  -57.1763 O.2       20 UNK        -0.5000 
    114 N         -6.7847  -19.9535  -56.0064 N.am      21 UNK        -0.5000 
    115 CA        -7.9844  -19.1105  -56.0420 C.3       21 UNK         0.1400 
    116 CB        -8.4747  -18.8942  -57.4892 C.3       21 UNK        -0.1800 
    117 C         -7.8061  -17.7993  -55.2476 C.2       21 UNK         0.5000 
    118 O         -8.2441  -16.7360  -55.6921 O.2       21 UNK        -0.5000 
    119 N         -7.1579  -17.9056  -54.0823 N.am      22 UNK        -0.5000 
    120 CA        -6.9321  -16.7974  -53.1437 C.3       22 UNK         0.1400 
    121 C         -8.1595  -16.5868  -52.2184 C.2       22 UNK         0.5000 
    122 N         -8.5149  -15.3445  -51.9207 N.am      22 UNK        -0.7600 
    123 O         -8.7686  -17.5381  -51.7343 O.2       22 UNK        -0.5000 
    124 C124       -5.6460  -17.0007  -52.3041 C.3       23 UNK        -0.0398 
    125 S125       -4.1537  -17.0717  -53.3471 S.3       23 UNK        -0.2404 
    126 C126       -2.9556  -17.8517  -52.2212 C.3       23 UNK        -0.0205 
    127 H127        2.7174  -10.3545  -48.3620 H         1 UNK         0.0600 
    128 H128        2.1567  -10.8286  -46.7558 H         1 UNK         0.0600 
    129 H129        0.9895  -10.5459  -48.0517 H         1 UNK         0.0600 
    130 H130        3.5624  -12.0408  -49.4772 H         1 UNK         0.3000 
    131 H131        3.9424  -13.9404  -50.4642 H         1 UNK         0.0600 
    132 H132        2.4054  -15.9252  -50.4583 H         1 UNK         0.0800 
    133 H133        1.3668  -15.1429  -49.3125 H         1 UNK         0.0800 
    134 H134       -0.2504  -13.0614  -49.9794 H         1 UNK         0.0800 
    135 H135       -0.9384  -13.1330  -51.5788 H         1 UNK         0.0800 
    136 H136       -1.4787  -15.5843  -52.4956 H         1 UNK         0.1150 
    137 H137       -3.3474  -18.0364  -49.5172 H         1 UNK         0.1150 
    138 H138       -1.1269  -14.5630  -48.3462 H         1 UNK         0.1150 
    139 H139       -3.0113  -15.7493  -46.8418 H         1 UNK         0.0800 
    140 H140       -3.3101  -17.4261  -47.2361 H         1 UNK         0.0800 
    141 H141       -1.2374  -17.5298  -44.0640 H         1 UNK         0.0800 
    142 H142       -2.8134  -17.6290  -44.7935 H         1 UNK         0.0800 
    143 H143       -0.5714  -19.6933  -45.1237 H         1 UNK         0.0600 
    144 H144       -2.1742  -19.4297  -42.9081 H         1 UNK         0.3000 
    145 H145       -3.1812  -22.1440  -41.8685 H         1 UNK         0.0600 
    146 H146       -1.4260  -23.2389  -40.4333 H         1 UNK         0.0600 
    147 H147       -1.3973  -23.8380  -42.0830 H         1 UNK         0.0600 
    148 H148       -0.1811  -22.6824  -41.5514 H         1 UNK         0.0600 
    149 H149       -1.0745  -20.1778  -41.0858 H         1 UNK         0.3000 
    150 H150       -3.2863  -18.4112  -39.0852 H         1 UNK         0.0600 
    151 H151       -2.9573  -20.1446  -37.3179 H         1 UNK         0.0600 
    152 H152       -1.8912  -18.7743  -37.0589 H         1 UNK         0.0600 
    153 H153       -1.2538  -20.2727  -37.7386 H         1 UNK         0.0600 
    154 H154       -0.4157  -18.4340  -39.1327 H         1 UNK         0.3000 
    155 H155        0.0098  -16.6894  -42.1712 H         1 UNK         0.0600 
    156 H156        1.1318  -15.0140  -40.7470 H         1 UNK         0.0600 
    157 H157        0.3313  -15.6517  -39.3104 H         1 UNK         0.0600 
    158 H158       -0.6092  -14.8702  -40.5762 H         1 UNK         0.0600 
    159 H159        1.9597  -17.3159  -40.2818 H         1 UNK         0.3000 
    160 H160        3.0331  -19.2627  -39.9685 H         1 UNK         0.0600 
    161 H161        2.1636  -21.7159  -41.5981 H         1 UNK         0.0600 
    162 H162        1.5712  -21.3430  -39.9831 H         1 UNK         0.0600 
    163 H163        3.2699  -21.7037  -40.2276 H         1 UNK         0.0600 
    164 H164        3.3831  -19.2129  -42.8372 H         1 UNK         0.3000 
    165 H165        6.9843  -19.6793  -42.5746 H         1 UNK         0.0600 
    166 H166        4.7172  -20.4699  -44.4790 H         1 UNK         0.0600 
    167 H167        6.4359  -20.4415  -44.8590 H         1 UNK         0.0600 
    168 H168        5.8151  -21.5847  -43.6774 H         1 UNK         0.0600 
    169 H169        5.4634  -18.0965  -44.3948 H         1 UNK         0.3000 
    170 H170        5.8665  -14.9651  -42.7268 H         1 UNK         0.0600 
    171 H171        7.9610  -15.2232  -44.0058 H         1 UNK         0.0600 
    172 H172        7.1266  -16.0889  -45.2855 H         1 UNK         0.0600 
    173 H173        6.7677  -14.3884  -44.9892 H         1 UNK         0.0600 
    174 H174        4.6065  -15.7934  -45.1830 H         1 UNK         0.3000 
    175 H175        1.4455  -16.5885  -43.8063 H         1 UNK         0.0600 
    176 H176        2.2833  -14.0719  -45.3306 H         1 UNK         0.0600 
    177 H177        0.6819  -14.8064  -45.3905 H         1 UNK         0.0600 
    178 H178        1.2827  -14.1271  -43.8857 H         1 UNK         0.0600 
    179 H179        2.5619  -16.3122  -46.4610 H         1 UNK         0.3000 
    180 H180        3.4667  -19.7772  -46.7117 H         1 UNK         0.0600 
    181 H181        1.2508  -18.1926  -48.1100 H         1 UNK         0.0600 
    182 H182        0.9585  -19.6263  -47.1435 H         1 UNK         0.0600 
    183 H183        1.9260  -19.7459  -48.6036 H         1 UNK         0.0600 
    184 H184        3.5252  -17.6886  -48.6316 H         1 UNK         0.3000 
    185 H185        6.4893  -16.0515  -47.7207 H         1 UNK         0.0600 
    186 H186        7.3681  -16.7891  -49.9173 H         1 UNK         0.0600 
    187 H187        7.4704  -18.1036  -48.7578 H         1 UNK         0.0600 
    188 H188        6.1996  -18.1099  -49.9748 H         1 UNK         0.0600 
    189 H189        5.0180  -15.9217  -50.1197 H         1 UNK         0.3000 
    190 H190       -4.1237  -20.0757  -45.0285 H         1 UNK         0.3000 
    191 H191       -4.5441  -20.3182  -47.8115 H         1 UNK         0.0600 
    192 H192       -6.7442  -21.3141  -47.1186 H         1 UNK         0.0600 
    193 H193       -6.3759  -19.8494  -46.2230 H         1 UNK         0.0600 
    194 H194       -6.1690  -21.4268  -45.4604 H         1 UNK         0.0600 
    195 H195       -3.5897  -22.7392  -45.4033 H         1 UNK         0.3000 
    196 H196       -3.9002  -25.0202  -47.2107 H         1 UNK         0.0600 
    197 H197       -2.8929  -26.2823  -45.3198 H         1 UNK         0.0600 
    198 H198       -2.5912  -24.7859  -44.4470 H         1 UNK         0.0600 
    199 H199       -4.2446  -25.3049  -44.7690 H         1 UNK         0.0600 
    200 H200       -1.2394  -23.0393  -45.8498 H         1 UNK         0.3000 
    201 H201        0.9100  -24.4465  -47.0332 H         1 UNK         0.0600 
    202 H202        1.2403  -22.9962  -45.1004 H         1 UNK         0.0600 
    203 H203        0.6823  -21.5837  -45.9825 H         1 UNK         0.0600 
    204 H204        2.2049  -22.3517  -46.4214 H         1 UNK         0.0600 
    205 H205       -0.8969  -21.5649  -48.2185 H         1 UNK         0.3000 
    206 H206        0.6947  -21.3416  -50.6480 H         1 UNK         0.0600 
    207 H207       -1.9786  -20.0461  -49.9101 H         1 UNK         0.0600 
    208 H208       -0.4130  -19.3817  -49.4660 H         1 UNK         0.0600 
    209 H209       -0.8514  -19.5185  -51.1568 H         1 UNK         0.0600 
    210 H210       -1.9960  -23.2566  -49.6924 H         1 UNK         0.3000 
    211 H211       -3.5424  -24.5300  -50.6321 H         1 UNK         0.0600 
    212 H212       -1.8818  -24.4620  -53.2115 H         1 UNK         0.0600 
    213 H213       -3.1557  -25.6048  -52.8192 H         1 UNK         0.0600 
    214 H214       -1.6668  -25.6042  -51.8858 H         1 UNK         0.0600 
    215 H215       -4.5078  -22.2891  -50.2199 H         1 UNK         0.3000 
    216 H216       -5.0648  -20.4216  -52.2160 H         1 UNK         0.0600 
    217 H217       -6.8925  -19.6683  -50.5868 H         1 UNK         0.0600 
    218 H218       -5.2874  -19.8241  -49.8981 H         1 UNK         0.0600 
    219 H219       -6.5049  -21.0723  -49.6047 H         1 UNK         0.0600 
    220 H220       -6.8294  -23.3962  -51.5500 H         1 UNK         0.3000 
    221 H221       -9.1884  -22.7783  -53.0695 H         1 UNK         0.0600 
    222 H222       -7.9533  -25.4713  -52.2759 H         1 UNK         0.0600 
    223 H223       -9.1382  -24.5582  -51.3406 H         1 UNK         0.0600 
    224 H224       -9.5830  -25.2389  -52.8972 H         1 UNK         0.0600 
    225 H225       -5.9732  -23.9489  -53.9638 H         1 UNK         0.3000 
    226 H226       -6.8039  -24.6757  -56.7168 H         1 UNK         0.0600 
    227 H227       -5.2280  -26.1865  -55.5232 H         1 UNK         0.0600 
    228 H228       -4.4573  -25.4477  -56.9187 H         1 UNK         0.0600 
    229 H229       -4.0894  -24.8594  -55.3028 H         1 UNK         0.0600 
    230 H230       -4.7928  -22.3326  -54.9060 H         1 UNK         0.3000 
    231 H231       -3.9041  -20.8492  -57.1929 H         1 UNK         0.0600 
    232 H232       -3.0494  -19.2791  -55.4628 H         1 UNK         0.0600 
    233 H233       -2.6785  -20.9404  -55.0230 H         1 UNK         0.0600 
    234 H234       -3.9998  -20.0915  -54.2277 H         1 UNK         0.0600 
    235 H235       -6.8665  -20.7760  -55.4226 H         1 UNK         0.3000 
    236 H236       -8.7592  -19.6728  -55.5190 H         1 UNK         0.0600 
    237 H237       -8.5907  -19.8439  -58.0115 H         1 UNK         0.0600 
    238 H238       -9.4454  -18.3973  -57.5007 H         1 UNK         0.0600 
    239 H239       -7.7863  -18.2756  -58.0654 H         1 UNK         0.0600 
    240 H240       -6.9200  -18.8350  -53.7571 H         1 UNK         0.3000 
    241 H241       -6.7953  -15.8834  -53.7258 H         1 UNK         0.0600 
    242 H242       -8.0278  -14.5474  -52.3011 H         1 UNK         0.3800 
    243 H243       -9.3024  -15.1947  -51.3089 H         1 UNK         0.3800 
    244 H244       -5.5153  -16.1819  -51.5941 H         1 UNK         0.0800 
    245 H245       -5.7149  -17.9129  -51.7130 H         1 UNK         0.0800 
    246 H246       -3.3855  -18.7587  -51.7955 H         1 UNK         0.0800 
    247 H247       -2.0941  -18.1729  -52.8081 H         1 UNK         0.0800 
@<TRIPOS>BOND
     1    1    2 1    
     2    1  127 1    
     3    1  128 1    
     4    1  129 1    
     5    2    3 2    
     6    2    4 am   BACKBONE|DICT|INTERRES
     7    4    5 1    
     8    4  130 1    
     9    5    6 1    
    10    5   65 1    
    11    5  131 1    
    12    6    7 1    
    13    6  132 1    
    14    6  133 1    
    15    7    8 1    
    16    8    9 1    
    17    8  134 1    
    18    8  135 1    
    19    9   10 ar   
    20    9   14 ar   
    21   10   11 ar   
    22   10  136 1    
    23   11   12 ar   
    24   11  126 1    
    25   12   13 ar   
    26   12  137 1    
    27   13   14 ar   
    28   13   15 1    
    29   14  138 1    
    30   15   16 1    
    31   15  139 1    
    32   15  140 1    
    33   16   17 1    
    34   17   18 1    
    35   17  141 1    
    36   17  142 1    
    37   18   19 1    
    38   18   67 1    
    39   18  143 1    
    40   19   20 am   BACKBONE|DICT|INTERRES
    41   19  144 1    
    42   20   21 2    
    43   20   22 1    
    44   22   23 1    
    45   22   24 1    
    46   22  145 1    
    47   23  146 1    
    48   23  147 1    
    49   23  148 1    
    50   24   25 am   BACKBONE|DICT|INTERRES
    51   24  149 1    
    52   25   26 2    
    53   25   27 1    
    54   27   28 1    
    55   27   29 1    
    56   27  150 1    
    57   28  151 1    
    58   28  152 1    
    59   28  153 1    
    60   29   30 am   BACKBONE|DICT|INTERRES
    61   29  154 1    
    62   30   31 2    
    63   30   32 1    
    64   32   33 1    
    65   32   34 1    
    66   32  155 1    
    67   33  156 1    
    68   33  157 1    
    69   33  158 1    
    70   34   35 am   BACKBONE|DICT|INTERRES
    71   34  159 1    
    72   35   36 2    
    73   35   37 1    
    74   37   38 1    
    75   37   39 1    
    76   37  160 1    
    77   38  161 1    
    78   38  162 1    
    79   38  163 1    
    80   39   40 am   BACKBONE|DICT|INTERRES
    81   39  164 1    
    82   40   41 2    
    83   40   42 1    
    84   42   43 1    
    85   42   44 1    
    86   42  165 1    
    87   43  166 1    
    88   43  167 1    
    89   43  168 1    
    90   44   45 am   BACKBONE|DICT|INTERRES
    91   44  169 1    
    92   45   46 2    
    93   45   47 1    
    94   47   48 1    
    95   47   49 1    
    96   47  170 1    
    97   48  171 1    
    98   48  172 1    
    99   48  173 1    
   100   49   50 am   BACKBONE|DICT|INTERRES
   101   49  174 1    
   102   50   51 2    
   103   50   52 1    
   104   52   53 1    
   105   52   54 1    
   106   52  175 1    
   107   53  176 1    
   108   53  177 1    
   109   53  178 1    
   110   54   55 am   BACKBONE|DICT|INTERRES
   111   54  179 1    
   112   55   56 2    
   113   55   57 1    
   114   57   58 1    
   115   57   59 1    
   116   57  180 1    
   117   58  181 1    
   118   58  182 1    
   119   58  183 1    
   120   59   60 am   BACKBONE|DICT|INTERRES
   121   59  184 1    
   122   60   61 2    
   123   60   62 1    
   124   62   63 1    
   125   62   64 1    
   126   62  185 1    
   127   63  186 1    
   128   63  187 1    
   129   63  188 1    
   130   64   65 am   BACKBONE|DICT|INTERRES
   131   64  189 1    
   132   65   66 2    
   133   67   68 2    
   134   67   69 am   BACKBONE|DICT|INTERRES
   135   69   70 1    
   136   69  190 1    
   137   70   71 1    
   138   70   72 1    
   139   70  191 1    
   140   71  192 1    
   141   71  193 1    
   142   71  194 1    
   143   72   73 2    
   144   72   74 am   BACKBONE|DICT|INTERRES
   145   74   75 1    
   146   74  195 1    
   147   75   76 1    
   148   75   77 1    
   149   75  196 1    
   150   76  197 1    
   151   76  198 1    
   152   76  199 1    
   153   77   78 2    
   154   77   79 am   BACKBONE|DICT|INTERRES
   155   79   80 1    
   156   79  200 1    
   157   80   81 1    
   158   80   82 1    
   159   80  201 1    
   160   81  202 1    
   161   81  203 1    
   162   81  204 1    
   163   82   83 2    
   164   82   84 am   BACKBONE|DICT|INTERRES
   165   84   85 1    
   166   84  205 1    
   167   85   86 1    
   168   85   87 1    
   169   85  206 1    
   170   86  207 1    
   171   86  208 1    
   172   86  209 1    
   173   87   88 2    
   174   87   89 am   BACKBONE|DICT|INTERRES
   175   89   90 1    
   176   89  210 1    
   177   90   91 1    
   178   90   92 1    
   179   90  211 1    
   180   91  212 1    
   181   91  213 1    
   182   91  214 1    
   183   92   93 2    
   184   92   94 am   BACKBONE|DICT|INTERRES
   185   94   95 1    
   186   94  215 1    
   187   95   96 1    
   188   95   97 1    
   189   95  216 1    
   190   96  217 1    
   191   96  218 1    
   192   96  219 1    
   193   97   98 2    
   194   97   99 am   BACKBONE|DICT|INTERRES
   195   99  100 1    
   196   99  220 1    
   197  100  101 1    
   198  100  102 1    
   199  100  221 1    
   200  101  222 1    
   201  101  223 1    
   202  101  224 1    
   203  102  103 2    
   204  102  104 am   BACKBONE|DICT|INTERRES
   205  104  105 1    
   206  104  225 1    
   207  105  106 1    
   208  105  107 1    
   209  105  226 1    
   210  106  227 1    
   211  106  228 1    
   212  106  229 1    
   213  107  108 2    
   214  107  109 am   BACKBONE|DICT|INTERRES
   215  109  110 1    
   216  109  230 1    
   217  110  111 1    
   218  110  112 1    
   219  110  231 1    
   220  111  232 1    
   221  111  233 1    
   222  111  234 1    
   223  112  113 2    
   224  112  114 am   BACKBONE|DICT|INTERRES
   225  114  115 1    
   226  114  235 1    
   227  115  116 1    
   228  115  117 1    
   229  115  236 1    
   230  116  237 1    
   231  116  238 1    
   232  116  239 1    
   233  117  118 2    
   234  117  119 am   BACKBONE|DICT|INTERRES
   235  119  120 1    
   236  119  240 1    
   237  120  121 1    
   238  120  124 1    
   239  120  241 1    
   240  121  122 am   BACKBONE|DICT|INTERRES
   241  121  123 2    
   242  122  242 1    
   243  122  243 1    
   244  124  125 1    
   245  124  244 1    
   246  124  245 1    
   247  125  126 1    
   248  126  246 1    
   249  126  247 1    
@<TRIPOS>SUBSTRUCTURE
     1 UNK         1 GROUP             0       ****    0 ROOT    
