@<TRIPOS>MOLECULE
3R540
247   249    1
SMALL
USER_CHARGES


@<TRIPOS>ATOM
      1 CA         -2.6816  -10.5034  -47.1804 C.3       0 UNK        -0.1800 
      2 C          -1.6317  -11.5688  -47.4583 C.2       0 UNK         0.5000 
      3 O          -0.6752  -11.7052  -46.6964 O.2       0 UNK        -0.5000 
      4 N          -1.8200  -12.3279  -48.5457 N.am      1 UNK        -0.5000 
      5 CA         -0.9128  -13.3662  -49.0560 C.3       1 UNK         0.1400 
      6 C6         -1.4563  -13.9338  -50.3944 C.3       23 UNK        -0.0398 
      7 S7         -0.3193  -15.0694  -51.2626 S.3       23 UNK        -0.2404 
      8 C8         -1.1450  -16.6550  -50.9300 C.3       23 UNK        -0.0205 
      9 C9         -0.1793  -17.8219  -51.0301 C.ar      23 UNK        -0.0193 
     10 C10        -0.1359  -18.6185  -52.1781 C.ar      23 UNK        -0.1150 
     11 C11         0.7307  -19.7142  -52.2448 C.ar      23 UNK        -0.0193 
     12 C12         1.5592  -20.0039  -51.1584 C.ar      23 UNK        -0.1150 
     13 C13         1.5048  -19.2290  -49.9972 C.ar      23 UNK        -0.0193 
     14 C14         0.6411  -18.1327  -49.9428 C.ar      23 UNK        -0.1150 
     15 C15         2.3229  -19.6193  -48.7745 C.3       23 UNK        -0.0205 
     16 S16         1.8435  -21.2577  -48.1308 S.3       23 UNK        -0.2404 
     17 C17         0.0229  -21.1142  -48.1231 C.3       23 UNK        -0.0398 
     18 CA         -0.6609  -22.1594  -47.2195 C.3       11 UNK         0.1400 
     19 N          -0.2020  -22.0891  -45.8318 N.am      11 UNK        -0.5000 
     20 C          -0.3590  -23.0692  -44.9316 C.2       10 UNK         0.5000 
     21 O          -0.8973  -24.1438  -45.1912 O.2       10 UNK        -0.5000 
     22 CA          0.1069  -22.7855  -43.4895 C.3       10 UNK         0.1400 
     23 CB          1.5497  -23.2688  -43.2887 C.3       10 UNK        -0.1800 
     24 N           0.0115  -21.3694  -43.1292 N.am      10 UNK        -0.5000 
     25 C          -1.1359  -20.6738  -43.0988 C.2       9 UNK         0.5000 
     26 O          -2.2391  -21.1918  -43.2768 O.2       9 UNK        -0.5000 
     27 CA         -1.0400  -19.1444  -42.9160 C.3       9 UNK         0.1400 
     28 CB         -1.3413  -18.7535  -41.4629 C.3       9 UNK        -0.1800 
     29 N           0.2528  -18.5757  -43.3113 N.am      9 UNK        -0.5000 
     30 C           0.7991  -18.6600  -44.5336 C.2       8 UNK         0.5000 
     31 O           0.2243  -19.1619  -45.4973 O.2       8 UNK        -0.5000 
     32 CA          2.2487  -18.1663  -44.6940 C.3       8 UNK         0.1400 
     33 CB          2.2872  -16.7871  -45.3661 C.3       8 UNK        -0.1800 
     34 N           2.9706  -18.1044  -43.4221 N.am      8 UNK        -0.5000 
     35 C           3.3633  -19.1665  -42.7055 C.2       7 UNK         0.5000 
     36 O           3.1508  -20.3285  -43.0543 O.2       7 UNK        -0.5000 
     37 CA          4.0689  -18.8732  -41.3631 C.3       7 UNK         0.1400 
     38 CB          4.8985  -20.0676  -40.8479 C.3       7 UNK        -0.1800 
     39 N           4.8736  -17.6457  -41.3843 N.am      7 UNK        -0.5000 
     40 C           5.9303  -17.3710  -42.1631 C.2       6 UNK         0.5000 
     41 O           6.4063  -18.1623  -42.9790 O.2       6 UNK        -0.5000 
     42 CA          6.5244  -15.9522  -42.0192 C.3       6 UNK         0.1400 
     43 CB          7.7099  -15.7026  -42.9693 C.3       6 UNK        -0.1800 
     44 N           5.5107  -14.9216  -42.2561 N.am      6 UNK        -0.5000 
     45 C           4.5927  -14.5128  -41.3713 C.2       5 UNK         0.5000 
     46 O           4.5403  -14.9383  -40.2144 O.2       5 UNK        -0.5000 
     47 CA          3.5477  -13.4807  -41.8524 C.3       5 UNK         0.1400 
     48 CB          3.4692  -13.3371  -43.3895 C.3       5 UNK        -0.1800 
     49 N           2.2130  -13.7457  -41.3061 N.am      5 UNK        -0.5000 
     50 C           1.4934  -14.8697  -41.4341 C.2       4 UNK         0.5000 
     51 O           1.8753  -15.8700  -42.0424 O.2       4 UNK        -0.5000 
     52 CA          0.0968  -14.8874  -40.7883 C.3       4 UNK         0.1400 
     53 CB         -0.0059  -14.0537  -39.4918 C.3       4 UNK        -0.1800 
     54 N          -0.9400  -14.5176  -41.7560 N.am      4 UNK        -0.5000 
     55 C          -1.1090  -13.3369  -42.3674 C.2       3 UNK         0.5000 
     56 O          -0.4072  -12.3444  -42.1651 O.2       3 UNK        -0.5000 
     57 CA         -2.2531  -13.2758  -43.3977 C.3       3 UNK         0.1400 
     58 CB         -2.6643  -11.8333  -43.7389 C.3       3 UNK        -0.1800 
     59 N          -1.8877  -13.9762  -44.6299 N.am      3 UNK        -0.5000 
     60 C          -1.9293  -15.3064  -44.7934 C.2       2 UNK         0.5000 
     61 O          -2.2934  -16.0770  -43.9040 O.2       2 UNK        -0.5000 
     62 CA         -1.4985  -15.8661  -46.1633 C.3       2 UNK         0.1400 
     63 CB         -2.3007  -17.1120  -46.5761 C.3       2 UNK        -0.1800 
     64 N          -1.6059  -14.8571  -47.2202 N.am      2 UNK        -0.5000 
     65 C          -0.6017  -14.4760  -48.0206 C.2       1 UNK         0.5000 
     66 O           0.5374  -14.9383  -47.9526 O.2       1 UNK        -0.5000 
     67 C          -2.1923  -22.0254  -47.3263 C.2       11 UNK         0.5000 
     68 O          -2.7717  -22.5472  -48.2788 O.2       11 UNK        -0.5000 
     69 N          -2.8288  -21.3449  -46.3614 N.am      12 UNK        -0.5000 
     70 CA         -4.2855  -21.2765  -46.2416 C.3       12 UNK         0.1400 
     71 CB         -4.6975  -20.0491  -45.4162 C.3       12 UNK        -0.1800 
     72 C          -4.8545  -22.5738  -45.6470 C.2       12 UNK         0.5000 
     73 O          -5.8848  -23.0487  -46.1226 O.2       12 UNK        -0.5000 
     74 N          -4.1453  -23.1596  -44.6702 N.am      13 UNK        -0.5000 
     75 CA         -4.4601  -24.4678  -44.0874 C.3       13 UNK         0.1400 
     76 CB         -3.5663  -24.7153  -42.8630 C.3       13 UNK        -0.1800 
     77 C          -4.3336  -25.6181  -45.1077 C.2       13 UNK         0.5000 
     78 O          -5.1833  -26.5087  -45.1309 O.2       13 UNK        -0.5000 
     79 N          -3.3037  -25.5498  -45.9635 N.am      14 UNK        -0.5000 
     80 CA         -3.0812  -26.4555  -47.0950 C.3       14 UNK         0.1400 
     81 CB         -1.6133  -26.3398  -47.5357 C.3       14 UNK        -0.1800 
     82 C          -4.0163  -26.1903  -48.2949 C.2       14 UNK         0.5000 
     83 O          -4.0512  -27.0038  -49.2181 O.2       14 UNK        -0.5000 
     84 N          -4.7301  -25.0552  -48.2717 N.am      15 UNK        -0.5000 
     85 CA         -5.6698  -24.5428  -49.2749 C.3       15 UNK         0.1400 
     86 CB         -6.8380  -25.5220  -49.5074 C.3       15 UNK        -0.1800 
     87 C          -5.0191  -24.0823  -50.5961 C.2       15 UNK         0.5000 
     88 O          -5.7413  -23.7513  -51.5358 O.2       15 UNK        -0.5000 
     89 N          -3.6835  -23.9958  -50.6419 N.am      16 UNK        -0.5000 
     90 CA         -2.9150  -23.4719  -51.7731 C.3       16 UNK         0.1400 
     91 CB         -1.4228  -23.7602  -51.5517 C.3       16 UNK        -0.1800 
     92 C          -3.1475  -21.9658  -51.9816 C.2       16 UNK         0.5000 
     93 O          -3.2744  -21.5169  -53.1223 O.2       16 UNK        -0.5000 
     94 N          -3.2436  -21.2238  -50.8694 N.am      17 UNK        -0.5000 
     95 CA         -3.5787  -19.8005  -50.8607 C.3       17 UNK         0.1400 
     96 CB         -3.2023  -19.1913  -49.5038 C.3       17 UNK        -0.1800 
     97 C          -5.0654  -19.5505  -51.1666 C.2       17 UNK         0.5000 
     98 O          -5.3885  -18.5539  -51.8109 O.2       17 UNK        -0.5000 
     99 N          -5.9363  -20.4688  -50.7218 N.am      18 UNK        -0.5000 
    100 CA        -7.3823  -20.4271  -50.9533 C.3       18 UNK         0.1400 
    101 CB        -8.0832  -21.4265  -50.0200 C.3       18 UNK        -0.1800 
    102 C         -7.7411  -20.7004  -52.4251 C.2       18 UNK         0.5000 
    103 O         -8.5953  -20.0116  -52.9835 O.2       18 UNK        -0.5000 
    104 N         -7.0497  -21.6728  -53.0358 N.am      19 UNK        -0.5000 
    105 CA        -7.1272  -21.9874  -54.4635 C.3       19 UNK         0.1400 
    106 CB        -6.5045  -23.3732  -54.6962 C.3       19 UNK        -0.1800 
    107 C         -6.4286  -20.9402  -55.3541 C.2       19 UNK         0.5000 
    108 O         -6.6901  -20.9073  -56.5570 O.2       19 UNK        -0.5000 
    109 N         -5.5459  -20.1282  -54.7514 N.am      20 UNK        -0.5000 
    110 CA        -4.6693  -19.1322  -55.3733 C.3       20 UNK         0.1400 
    111 CB        -5.4867  -17.9732  -55.9792 C.3       20 UNK        -0.1800 
    112 C         -3.6889  -19.7796  -56.3717 C.2       20 UNK         0.5000 
    113 O         -3.4770  -19.2613  -57.4701 O.2       20 UNK        -0.5000 
    114 N         -3.1020  -20.9127  -55.9586 N.am      21 UNK        -0.5000 
    115 CA        -2.2256  -21.7709  -56.7637 C.3       21 UNK         0.1400 
    116 CB        -1.8931  -23.0297  -55.9468 C.3       21 UNK        -0.1800 
    117 C         -0.9319  -21.0846  -57.2471 C.2       21 UNK         0.5000 
    118 O         -0.3550  -21.5059  -58.2503 O.2       21 UNK        -0.5000 
    119 N         -0.5167  -20.0389  -56.5268 N.am      22 UNK        -0.5000 
    120 CA         0.6401  -19.1857  -56.8277 C.3       22 UNK         0.1400 
    121 C          0.2818  -17.9470  -57.7023 C.2       22 UNK         0.5000 
    122 N         -0.9675  -17.7426  -58.1073 N.am      22 UNK        -0.7600 
    123 O          1.1608  -17.1571  -58.0363 O.2       22 UNK        -0.5000 
    124 C124        1.3768  -18.7731  -55.5260 C.3       23 UNK        -0.0398 
    125 S125        2.0674  -20.2104  -54.6338 S.3       23 UNK        -0.2404 
    126 C126        0.7388  -20.6272  -53.4590 C.3       23 UNK        -0.0205 
    127 H127       -2.2618   -9.7005  -46.5740 H         1 UNK         0.0600 
    128 H128       -3.5255  -10.9342  -46.6427 H         1 UNK         0.0600 
    129 H129       -3.0522  -10.0662  -48.1079 H         1 UNK         0.0600 
    130 H130       -2.6393  -12.1552  -49.1112 H         1 UNK         0.3000 
    131 H131        0.0347  -12.8670  -49.2698 H         1 UNK         0.0600 
    132 H132       -2.4214  -14.4196  -50.2407 H         1 UNK         0.0800 
    133 H133       -1.6528  -13.1088  -51.0806 H         1 UNK         0.0800 
    134 H134       -1.9803  -16.7812  -51.6206 H         1 UNK         0.0800 
    135 H135       -1.5728  -16.6424  -49.9271 H         1 UNK         0.0800 
    136 H136       -0.7895  -18.3960  -53.0093 H         1 UNK         0.1150 
    137 H137        2.2165  -20.8613  -51.1979 H         1 UNK         0.1150 
    138 H138        0.5876  -17.5316  -49.0452 H         1 UNK         0.1150 
    139 H139        2.2033  -18.8826  -47.9786 H         1 UNK         0.0800 
    140 H140        3.3823  -19.6292  -49.0335 H         1 UNK         0.0800 
    141 H141       -0.3217  -21.2276  -49.1529 H         1 UNK         0.0800 
    142 H142       -0.2533  -20.1035  -47.8199 H         1 UNK         0.0800 
    143 H143       -0.4008  -23.1462  -47.6073 H         1 UNK         0.0600 
    144 H144        0.2145  -21.2082  -45.5506 H         1 UNK         0.3000 
    145 H145       -0.5399  -23.3467  -42.8126 H         1 UNK         0.0600 
    146 H146        1.6335  -24.3380  -43.4871 H         1 UNK         0.0600 
    147 H147        1.8859  -23.0997  -42.2655 H         1 UNK         0.0600 
    148 H148        2.2416  -22.7562  -43.9582 H         1 UNK         0.0600 
    149 H149        0.8868  -20.8791  -42.9969 H         1 UNK         0.3000 
    150 H150       -1.8071  -18.7026  -43.5537 H         1 UNK         0.0600 
    151 H151       -0.5565  -19.0872  -40.7830 H         1 UNK         0.0600 
    152 H152       -2.2803  -19.1941  -41.1249 H         1 UNK         0.0600 
    153 H153       -1.4423  -17.6735  -41.3638 H         1 UNK         0.0600 
    154 H154        0.7895  -18.1144  -42.5905 H         1 UNK         0.3000 
    155 H155        2.7664  -18.8763  -45.3424 H         1 UNK         0.0600 
    156 H156        3.3111  -16.4315  -45.4816 H         1 UNK         0.0600 
    157 H157        1.7343  -16.0421  -44.7929 H         1 UNK         0.0600 
    158 H158        1.8471  -16.8300  -46.3630 H         1 UNK         0.0600 
    159 H159        3.0659  -17.1835  -43.0078 H         1 UNK         0.3000 
    160 H160        3.2703  -18.6950  -40.6416 H         1 UNK         0.0600 
    161 H161        5.6812  -20.3515  -41.5519 H         1 UNK         0.0600 
    162 H162        4.2680  -20.9437  -40.6914 H         1 UNK         0.0600 
    163 H163        5.3723  -19.8365  -39.8939 H         1 UNK         0.0600 
    164 H164        4.5551  -16.8996  -40.7738 H         1 UNK         0.3000 
    165 H165        6.8960  -15.8600  -40.9964 H         1 UNK         0.0600 
    166 H166        8.5076  -16.4267  -42.7988 H         1 UNK         0.0600 
    167 H167        7.4121  -15.7802  -44.0157 H         1 UNK         0.0600 
    168 H168        8.1364  -14.7113  -42.8147 H         1 UNK         0.0600 
    169 H169        5.4694  -14.5485  -43.1933 H         1 UNK         0.3000 
    170 H170        3.8602  -12.5190  -41.4437 H         1 UNK         0.0600 
    171 H171        2.6880  -12.6318  -43.6746 H         1 UNK         0.0600 
    172 H172        3.2465  -14.2864  -43.8770 H         1 UNK         0.0600 
    173 H173        4.4038  -12.9577  -43.8036 H         1 UNK         0.0600 
    174 H174        1.7906  -12.9811  -40.7990 H         1 UNK         0.3000 
    175 H175       -0.0946  -15.9247  -40.5124 H         1 UNK         0.0600 
    176 H176        0.7585  -14.3564  -38.7749 H         1 UNK         0.0600 
    177 H177        0.1127  -12.9841  -39.6641 H         1 UNK         0.0600 
    178 H178       -0.9732  -14.2025  -39.0121 H         1 UNK         0.0600 
    179 H179       -1.5238  -15.2803  -42.0813 H         1 UNK         0.3000 
    180 H180       -3.1240  -13.7632  -42.9536 H         1 UNK         0.0600 
    181 H181       -1.8563  -11.2840  -44.2231 H         1 UNK         0.0600 
    182 H182       -2.9400  -11.2834  -42.8382 H         1 UNK         0.0600 
    183 H183       -3.5290  -11.8194  -44.4016 H         1 UNK         0.0600 
    184 H184       -1.5039  -13.4060  -45.3729 H         1 UNK         0.3000 
    185 H185       -0.4612  -16.1747  -46.0350 H         1 UNK         0.0600 
    186 H186       -1.9065  -17.5345  -47.4994 H         1 UNK         0.0600 
    187 H187       -3.3553  -16.8821  -46.7295 H         1 UNK         0.0600 
    188 H188       -2.2365  -17.8943  -45.8200 H         1 UNK         0.0600 
    189 H189       -2.5043  -14.4053  -47.3191 H         1 UNK         0.3000 
    190 H190       -2.2903  -20.9620  -45.5969 H         1 UNK         0.3000 
    191 H191       -4.7187  -21.1636  -47.2372 H         1 UNK         0.0600 
    192 H192       -4.3578  -19.1280  -45.8878 H         1 UNK         0.0600 
    193 H193       -5.7831  -19.9859  -45.3321 H         1 UNK         0.0600 
    194 H194       -4.2945  -20.0782  -44.4045 H         1 UNK         0.0600 
    195 H195       -3.3367  -22.6736  -44.2997 H         1 UNK         0.3000 
    196 H196       -5.4975  -24.4379  -43.7476 H         1 UNK         0.0600 
    197 H197       -3.8406  -25.6457  -42.3644 H         1 UNK         0.0600 
    198 H198       -3.6650  -23.9123  -42.1323 H         1 UNK         0.0600 
    199 H199       -2.5147  -24.7913  -43.1377 H         1 UNK         0.0600 
    200 H200       -2.5912  -24.8424  -45.8073 H         1 UNK         0.3000 
    201 H201       -3.2591  -27.4794  -46.7600 H         1 UNK         0.0600 
    202 H202       -1.3877  -27.0401  -48.3409 H         1 UNK         0.0600 
    203 H203       -0.9347  -26.5638  -46.7125 H         1 UNK         0.0600 
    204 H204       -1.3821  -25.3380  -47.8981 H         1 UNK         0.0600 
    205 H205       -4.6198  -24.4631  -47.4598 H         1 UNK         0.3000 
    206 H206       -6.0926  -23.6401  -48.8330 H         1 UNK         0.0600 
    207 H207       -7.2995  -25.8150  -48.5643 H         1 UNK         0.0600 
    208 H208       -7.6166  -25.0650  -50.1192 H         1 UNK         0.0600 
    209 H209       -6.5145  -26.4277  -50.0205 H         1 UNK         0.0600 
    210 H210       -3.1712  -24.1906  -49.7928 H         1 UNK         0.3000 
    211 H211       -3.2385  -23.9902  -52.6783 H         1 UNK         0.0600 
    212 H212       -1.2389  -24.8305  -51.4570 H         1 UNK         0.0600 
    213 H213       -0.8278  -23.4018  -52.3925 H         1 UNK         0.0600 
    214 H214       -1.0457  -23.2747  -50.6505 H         1 UNK         0.0600 
    215 H215       -3.1231  -21.6821  -49.9709 H         1 UNK         0.3000 
    216 H216       -2.9906  -19.3016  -51.6336 H         1 UNK         0.0600 
    217 H217       -3.7518  -19.6531  -48.6858 H         1 UNK         0.0600 
    218 H218       -3.4288  -18.1251  -49.4805 H         1 UNK         0.0600 
    219 H219       -2.1381  -19.3056  -49.3022 H         1 UNK         0.0600 
    220 H220       -5.5765  -21.2685  -50.2255 H         1 UNK         0.3000 
    221 H221       -7.7362  -19.4248  -50.7024 H         1 UNK         0.0600 
    222 H222       -7.8101  -22.4564  -50.2488 H         1 UNK         0.0600 
    223 H223       -7.8357  -21.2357  -48.9755 H         1 UNK         0.0600 
    224 H224       -9.1669  -21.3500  -50.1162 H         1 UNK         0.0600 
    225 H225       -6.4252  -22.2552  -52.4837 H         1 UNK         0.3000 
    226 H226       -8.1785  -22.0264  -54.7558 H         1 UNK         0.0600 
    227 H227       -7.0185  -24.1392  -54.1152 H         1 UNK         0.0600 
    228 H228       -6.5696  -23.6625  -55.7458 H         1 UNK         0.0600 
    229 H229       -5.4505  -23.3909  -54.4145 H         1 UNK         0.0600 
    230 H230       -5.4011  -20.2685  -53.7616 H         1 UNK         0.3000 
    231 H231       -4.0588  -18.7191  -54.5690 H         1 UNK         0.0600 
    232 H232       -6.0853  -18.2975  -56.8308 H         1 UNK         0.0600 
    233 H233       -4.8306  -17.1745  -56.3271 H         1 UNK         0.0600 
    234 H234       -6.1608  -17.5404  -55.2399 H         1 UNK         0.0600 
    235 H235       -3.2957  -21.2315  -55.0122 H         1 UNK         0.3000 
    236 H236       -2.7851  -22.0730  -57.6511 H         1 UNK         0.0600 
    237 H237       -1.3519  -22.7831  -55.0325 H         1 UNK         0.0600 
    238 H238       -2.7984  -23.5675  -55.6643 H         1 UNK         0.0600 
    239 H239       -1.2719  -23.7178  -56.5216 H         1 UNK         0.0600 
    240 H240       -1.0823  -19.7592  -55.7410 H         1 UNK         0.3000 
    241 H241        1.3467  -19.7617  -57.4282 H         1 UNK         0.0600 
    242 H242       -1.7164  -18.3846  -57.8702 H         1 UNK         0.3800 
    243 H243       -1.1714  -16.9381  -58.6787 H         1 UNK         0.3800 
    244 H244        2.2154  -18.1140  -55.7566 H         1 UNK         0.0800 
    245 H245        0.7201  -18.2013  -54.8705 H         1 UNK         0.0800 
    246 H246       -0.2340  -20.6139  -53.9487 H         1 UNK         0.0800 
    247 H247        0.8859  -21.6571  -53.1307 H         1 UNK         0.0800 
@<TRIPOS>BOND
     1    1    2 1    
     2    1  127 1    
     3    1  128 1    
     4    1  129 1    
     5    2    3 2    
     6    2    4 am   BACKBONE|DICT|INTERRES
     7    4    5 1    
     8    4  130 1    
     9    5    6 1    
    10    5   65 1    
    11    5  131 1    
    12    6    7 1    
    13    6  132 1    
    14    6  133 1    
    15    7    8 1    
    16    8    9 1    
    17    8  134 1    
    18    8  135 1    
    19    9   10 ar   
    20    9   14 ar   
    21   10   11 ar   
    22   10  136 1    
    23   11   12 ar   
    24   11  126 1    
    25   12   13 ar   
    26   12  137 1    
    27   13   14 ar   
    28   13   15 1    
    29   14  138 1    
    30   15   16 1    
    31   15  139 1    
    32   15  140 1    
    33   16   17 1    
    34   17   18 1    
    35   17  141 1    
    36   17  142 1    
    37   18   19 1    
    38   18   67 1    
    39   18  143 1    
    40   19   20 am   BACKBONE|DICT|INTERRES
    41   19  144 1    
    42   20   21 2    
    43   20   22 1    
    44   22   23 1    
    45   22   24 1    
    46   22  145 1    
    47   23  146 1    
    48   23  147 1    
    49   23  148 1    
    50   24   25 am   BACKBONE|DICT|INTERRES
    51   24  149 1    
    52   25   26 2    
    53   25   27 1    
    54   27   28 1    
    55   27   29 1    
    56   27  150 1    
    57   28  151 1    
    58   28  152 1    
    59   28  153 1    
    60   29   30 am   BACKBONE|DICT|INTERRES
    61   29  154 1    
    62   30   31 2    
    63   30   32 1    
    64   32   33 1    
    65   32   34 1    
    66   32  155 1    
    67   33  156 1    
    68   33  157 1    
    69   33  158 1    
    70   34   35 am   BACKBONE|DICT|INTERRES
    71   34  159 1    
    72   35   36 2    
    73   35   37 1    
    74   37   38 1    
    75   37   39 1    
    76   37  160 1    
    77   38  161 1    
    78   38  162 1    
    79   38  163 1    
    80   39   40 am   BACKBONE|DICT|INTERRES
    81   39  164 1    
    82   40   41 2    
    83   40   42 1    
    84   42   43 1    
    85   42   44 1    
    86   42  165 1    
    87   43  166 1    
    88   43  167 1    
    89   43  168 1    
    90   44   45 am   BACKBONE|DICT|INTERRES
    91   44  169 1    
    92   45   46 2    
    93   45   47 1    
    94   47   48 1    
    95   47   49 1    
    96   47  170 1    
    97   48  171 1    
    98   48  172 1    
    99   48  173 1    
   100   49   50 am   BACKBONE|DICT|INTERRES
   101   49  174 1    
   102   50   51 2    
   103   50   52 1    
   104   52   53 1    
   105   52   54 1    
   106   52  175 1    
   107   53  176 1    
   108   53  177 1    
   109   53  178 1    
   110   54   55 am   BACKBONE|DICT|INTERRES
   111   54  179 1    
   112   55   56 2    
   113   55   57 1    
   114   57   58 1    
   115   57   59 1    
   116   57  180 1    
   117   58  181 1    
   118   58  182 1    
   119   58  183 1    
   120   59   60 am   BACKBONE|DICT|INTERRES
   121   59  184 1    
   122   60   61 2    
   123   60   62 1    
   124   62   63 1    
   125   62   64 1    
   126   62  185 1    
   127   63  186 1    
   128   63  187 1    
   129   63  188 1    
   130   64   65 am   BACKBONE|DICT|INTERRES
   131   64  189 1    
   132   65   66 2    
   133   67   68 2    
   134   67   69 am   BACKBONE|DICT|INTERRES
   135   69   70 1    
   136   69  190 1    
   137   70   71 1    
   138   70   72 1    
   139   70  191 1    
   140   71  192 1    
   141   71  193 1    
   142   71  194 1    
   143   72   73 2    
   144   72   74 am   BACKBONE|DICT|INTERRES
   145   74   75 1    
   146   74  195 1    
   147   75   76 1    
   148   75   77 1    
   149   75  196 1    
   150   76  197 1    
   151   76  198 1    
   152   76  199 1    
   153   77   78 2    
   154   77   79 am   BACKBONE|DICT|INTERRES
   155   79   80 1    
   156   79  200 1    
   157   80   81 1    
   158   80   82 1    
   159   80  201 1    
   160   81  202 1    
   161   81  203 1    
   162   81  204 1    
   163   82   83 2    
   164   82   84 am   BACKBONE|DICT|INTERRES
   165   84   85 1    
   166   84  205 1    
   167   85   86 1    
   168   85   87 1    
   169   85  206 1    
   170   86  207 1    
   171   86  208 1    
   172   86  209 1    
   173   87   88 2    
   174   87   89 am   BACKBONE|DICT|INTERRES
   175   89   90 1    
   176   89  210 1    
   177   90   91 1    
   178   90   92 1    
   179   90  211 1    
   180   91  212 1    
   181   91  213 1    
   182   91  214 1    
   183   92   93 2    
   184   92   94 am   BACKBONE|DICT|INTERRES
   185   94   95 1    
   186   94  215 1    
   187   95   96 1    
   188   95   97 1    
   189   95  216 1    
   190   96  217 1    
   191   96  218 1    
   192   96  219 1    
   193   97   98 2    
   194   97   99 am   BACKBONE|DICT|INTERRES
   195   99  100 1    
   196   99  220 1    
   197  100  101 1    
   198  100  102 1    
   199  100  221 1    
   200  101  222 1    
   201  101  223 1    
   202  101  224 1    
   203  102  103 2    
   204  102  104 am   BACKBONE|DICT|INTERRES
   205  104  105 1    
   206  104  225 1    
   207  105  106 1    
   208  105  107 1    
   209  105  226 1    
   210  106  227 1    
   211  106  228 1    
   212  106  229 1    
   213  107  108 2    
   214  107  109 am   BACKBONE|DICT|INTERRES
   215  109  110 1    
   216  109  230 1    
   217  110  111 1    
   218  110  112 1    
   219  110  231 1    
   220  111  232 1    
   221  111  233 1    
   222  111  234 1    
   223  112  113 2    
   224  112  114 am   BACKBONE|DICT|INTERRES
   225  114  115 1    
   226  114  235 1    
   227  115  116 1    
   228  115  117 1    
   229  115  236 1    
   230  116  237 1    
   231  116  238 1    
   232  116  239 1    
   233  117  118 2    
   234  117  119 am   BACKBONE|DICT|INTERRES
   235  119  120 1    
   236  119  240 1    
   237  120  121 1    
   238  120  124 1    
   239  120  241 1    
   240  121  122 am   BACKBONE|DICT|INTERRES
   241  121  123 2    
   242  122  242 1    
   243  122  243 1    
   244  124  125 1    
   245  124  244 1    
   246  124  245 1    
   247  125  126 1    
   248  126  246 1    
   249  126  247 1    
@<TRIPOS>SUBSTRUCTURE
     1 UNK         1 GROUP             0       ****    0 ROOT    
