@<TRIPOS>MOLECULE
3R540
247   249    1
SMALL
USER_CHARGES


@<TRIPOS>ATOM
      1 CA          1.9818  -17.3967  -48.0383 C.3       0 UNK        -0.1800 
      2 C           2.9880  -16.9420  -49.0948 C.2       0 UNK         0.5000 
      3 O           4.1853  -17.1569  -48.9182 O.2       0 UNK        -0.5000 
      4 N           2.5645  -16.3265  -50.2073 N.am      1 UNK        -0.5000 
      5 CA          1.1938  -15.9153  -50.5230 C.3       1 UNK         0.1400 
      6 C6          1.0107  -15.5860  -52.0243 C.3       23 UNK        -0.0398 
      7 S7          1.3866  -16.9814  -53.1320 S.3       23 UNK        -0.2404 
      8 C8         -0.2300  -17.8146  -53.2333 C.3       23 UNK        -0.0205 
      9 C9         -0.5111  -18.6818  -52.0131 C.ar      23 UNK        -0.0193 
     10 C10        -1.6318  -18.4461  -51.2099 C.ar      23 UNK        -0.1150 
     11 C11        -1.9151  -19.2837  -50.1262 C.ar      23 UNK        -0.0193 
     12 C12        -1.0677  -20.3558  -49.8432 C.ar      23 UNK        -0.1150 
     13 C13         0.0660  -20.5878  -50.6244 C.ar      23 UNK        -0.0193 
     14 C14         0.3350  -19.7526  -51.7101 C.ar      23 UNK        -0.1150 
     15 C15         0.9831  -21.7583  -50.3189 C.3       23 UNK        -0.0205 
     16 S16         2.3784  -21.2987  -49.2399 S.3       23 UNK        -0.2404 
     17 C17         1.5817  -21.0390  -47.6171 C.3       23 UNK        -0.0398 
     18 CA          1.5142  -22.3185  -46.7495 C.3       11 UNK         0.1400 
     19 N           1.4166  -22.0028  -45.3246 N.am      11 UNK        -0.5000 
     20 C           1.5609  -22.8996  -44.3394 C.2       10 UNK         0.5000 
     21 O           1.8756  -24.0760  -44.5225 O.2       10 UNK        -0.5000 
     22 CA          1.2542  -22.4088  -42.9140 C.3       10 UNK         0.1400 
     23 CB          2.4675  -21.6797  -42.3180 C.3       10 UNK        -0.1800 
     24 N           0.0747  -21.5415  -42.8582 N.am      10 UNK        -0.5000 
     25 C          -1.1672  -21.9354  -43.1761 C.2       9 UNK         0.5000 
     26 O          -1.4501  -23.0824  -43.5182 O.2       9 UNK        -0.5000 
     27 CA         -2.2776  -20.8717  -43.1409 C.3       9 UNK         0.1400 
     28 CB         -2.7607  -20.6446  -41.7011 C.3       9 UNK        -0.1800 
     29 N          -1.8785  -19.5990  -43.7436 N.am      9 UNK        -0.5000 
     30 C          -1.5442  -19.4359  -45.0329 C.2       8 UNK         0.5000 
     31 O          -1.5411  -20.3441  -45.8624 O.2       8 UNK        -0.5000 
     32 CA         -1.0748  -18.0342  -45.4597 C.3       8 UNK         0.1400 
     33 CB         -2.2617  -17.0703  -45.6052 C.3       8 UNK        -0.1800 
     34 N          -0.0986  -17.4726  -44.5299 N.am      8 UNK        -0.5000 
     35 C           1.0909  -18.0224  -44.2482 C.2       7 UNK         0.5000 
     36 O           1.5243  -19.0435  -44.7848 O.2       7 UNK        -0.5000 
     37 CA          1.9017  -17.3486  -43.1299 C.3       7 UNK         0.1400 
     38 CB          2.5936  -16.0740  -43.6380 C.3       7 UNK        -0.1800 
     39 N           1.0679  -17.0358  -41.9672 N.am      7 UNK        -0.5000 
     40 C           0.5212  -17.9568  -41.1598 C.2       6 UNK         0.5000 
     41 O           0.6795  -19.1682  -41.2997 O.2       6 UNK        -0.5000 
     42 CA         -0.3778  -17.4429  -40.0209 C.3       6 UNK         0.1400 
     43 CB          0.4693  -17.0245  -38.8099 C.3       6 UNK        -0.1800 
     44 N          -1.2249  -16.3235  -40.4296 N.am      6 UNK        -0.5000 
     45 C          -2.2220  -16.4099  -41.3216 C.2       5 UNK         0.5000 
     46 O          -2.5554  -17.4531  -41.8811 O.2       5 UNK        -0.5000 
     47 CA         -2.9212  -15.0898  -41.6948 C.3       5 UNK         0.1400 
     48 CB         -4.0144  -14.7443  -40.6727 C.3       5 UNK        -0.1800 
     49 N          -1.9856  -13.9669  -41.8127 N.am      5 UNK        -0.5000 
     50 C          -0.9774  -13.9256  -42.6922 C.2       4 UNK         0.5000 
     51 O          -0.7336  -14.8325  -43.4920 O.2       4 UNK        -0.5000 
     52 CA         -0.0623  -12.6984  -42.6387 C.3       4 UNK         0.1400 
     53 CB          1.0369  -12.8802  -41.5770 C.3       4 UNK        -0.1800 
     54 N           0.5365  -12.5315  -43.9547 N.am      4 UNK        -0.5000 
     55 C           1.0224  -11.4005  -44.4683 C.2       3 UNK         0.5000 
     56 O           1.0852  -10.3402  -43.8446 O.2       3 UNK        -0.5000 
     57 CA          1.4855  -11.4430  -45.9371 C.3       3 UNK         0.1400 
     58 CB          2.9006  -12.0413  -46.0637 C.3       3 UNK        -0.1800 
     59 N           0.5312  -12.0939  -46.8479 N.am      3 UNK        -0.5000 
     60 C           0.2047  -13.3912  -46.9453 C.2       2 UNK         0.5000 
     61 O           0.6816  -14.2743  -46.2329 O.2       2 UNK        -0.5000 
     62 CA         -0.8377  -13.7866  -48.0151 C.3       2 UNK         0.1400 
     63 CB         -1.4425  -12.5975  -48.7951 C.3       2 UNK        -0.1800 
     64 N          -0.3090  -14.7947  -48.9407 N.am      2 UNK        -0.5000 
     65 C           0.8067  -14.6880  -49.6787 C.2       1 UNK         0.5000 
     66 O           1.5166  -13.6810  -49.7277 O.2       1 UNK        -0.5000 
     67 C           0.3715  -23.2580  -47.1868 C.2       11 UNK         0.5000 
     68 O           0.6346  -24.2747  -47.8289 O.2       11 UNK        -0.5000 
     69 N          -0.8708  -22.9271  -46.8054 N.am      12 UNK        -0.5000 
     70 CA         -2.0717  -23.6987  -47.1269 C.3       12 UNK         0.1400 
     71 CB         -3.3236  -22.9313  -46.6802 C.3       12 UNK        -0.1800 
     72 C          -2.0654  -25.1280  -46.5581 C.2       12 UNK         0.5000 
     73 O          -2.5225  -26.0499  -47.2347 O.2       12 UNK        -0.5000 
     74 N          -1.5156  -25.2894  -45.3474 N.am      13 UNK        -0.5000 
     75 CA         -1.3036  -26.5777  -44.6889 C.3       13 UNK         0.1400 
     76 CB         -0.8730  -26.3378  -43.2339 C.3       13 UNK        -0.1800 
     77 C          -0.2799  -27.4717  -45.4151 C.2       13 UNK         0.5000 
     78 O          -0.4079  -28.6955  -45.3580 O.2       13 UNK        -0.5000 
     79 N           0.7051  -26.8573  -46.0859 N.am      14 UNK        -0.5000 
     80 CA          1.6798  -27.5491  -46.9254 C.3       14 UNK         0.1400 
     81 CB          2.9506  -26.6952  -47.0733 C.3       14 UNK        -0.1800 
     82 C           1.0679  -27.9118  -48.2897 C.2       14 UNK         0.5000 
     83 O           1.0216  -29.0937  -48.6337 O.2       14 UNK        -0.5000 
     84 N           0.5870  -26.8988  -49.0221 N.am      15 UNK        -0.5000 
     85 CA         -0.0561  -27.0170  -50.3292 C.3       15 UNK         0.1400 
     86 CB          0.9260  -27.5545  -51.3938 C.3       15 UNK        -0.1800 
     87 C          -0.5966  -25.6385  -50.7328 C.2       15 UNK         0.5000 
     88 O           0.1763  -24.7977  -51.1942 O.2       15 UNK        -0.5000 
     89 N          -1.9030  -25.4204  -50.5380 N.am      16 UNK        -0.5000 
     90 CA         -2.6047  -24.1868  -50.9019 C.3       16 UNK         0.1400 
     91 CB         -4.0450  -24.2528  -50.3666 C.3       16 UNK        -0.1800 
     92 C          -2.6237  -23.9307  -52.4196 C.2       16 UNK         0.5000 
     93 O          -2.7290  -24.8765  -53.2053 O.2       16 UNK        -0.5000 
     94 N          -2.5659  -22.6475  -52.7888 N.am      17 UNK        -0.5000 
     95 CA         -2.7456  -22.1619  -54.1548 C.3       17 UNK         0.1400 
     96 CB         -1.8601  -20.9170  -54.3430 C.3       17 UNK        -0.1800 
     97 C          -4.2312  -21.8483  -54.4298 C.2       17 UNK         0.5000 
     98 O          -5.1066  -22.2220  -53.6464 O.2       17 UNK        -0.5000 
     99 N          -4.4826  -21.1400  -55.5340 N.am      18 UNK        -0.5000 
    100 CA        -5.7811  -20.5819  -55.9085 C.3       18 UNK         0.1400 
    101 CB        -6.3821  -21.4138  -57.0566 C.3       18 UNK        -0.1800 
    102 C         -5.6019  -19.0941  -56.2654 C.2       18 UNK         0.5000 
    103 O         -6.1535  -18.6221  -57.2612 O.2       18 UNK        -0.5000 
    104 N         -4.7920  -18.3899  -55.4660 N.am      19 UNK        -0.5000 
    105 CA        -4.4241  -16.9907  -55.6449 C.3       19 UNK         0.1400 
    106 CB        -3.1507  -16.9085  -56.5046 C.3       19 UNK        -0.1800 
    107 C         -4.1970  -16.3452  -54.2721 C.2       19 UNK         0.5000 
    108 O         -3.9724  -17.0562  -53.2875 O.2       19 UNK        -0.5000 
    109 N         -4.2434  -15.0060  -54.2415 N.am      20 UNK        -0.5000 
    110 CA        -4.0749  -14.1465  -53.0654 C.3       20 UNK         0.1400 
    111 CB        -2.6090  -14.1939  -52.5785 C.3       20 UNK        -0.1800 
    112 C         -5.1154  -14.4781  -51.9739 C.2       20 UNK         0.5000 
    113 O         -6.3054  -14.5669  -52.2851 O.2       20 UNK        -0.5000 
    114 N         -4.6590  -14.7021  -50.7339 N.am      21 UNK        -0.5000 
    115 CA        -5.4766  -15.1089  -49.5858 C.3       21 UNK         0.1400 
    116 CB        -4.5950  -15.0998  -48.3255 C.3       21 UNK        -0.1800 
    117 C         -6.1709  -16.4785  -49.7556 C.2       21 UNK         0.5000 
    118 O         -7.1506  -16.7461  -49.0592 O.2       21 UNK        -0.5000 
    119 N         -5.6625  -17.3040  -50.6783 N.am      22 UNK        -0.5000 
    120 CA        -6.2303  -18.5979  -51.0775 C.3       22 UNK         0.1400 
    121 C         -7.1004  -18.5018  -52.3680 C.2       22 UNK         0.5000 
    122 N         -7.3461  -17.3253  -52.9354 N.am      22 UNK        -0.7600 
    123 O         -7.5928  -19.5144  -52.8557 O.2       22 UNK        -0.5000 
    124 C124       -5.1190  -19.6754  -51.1932 C.3       23 UNK        -0.0398 
    125 S125       -4.4804  -20.2016  -49.5644 S.3       23 UNK        -0.2404 
    126 C126       -3.1232  -19.0308  -49.2417 C.3       23 UNK        -0.0205 
    127 H127        1.2151  -18.0379  -48.4734 H         1 UNK         0.0600 
    128 H128        1.5045  -16.5458  -47.5544 H         1 UNK         0.0600 
    129 H129        2.4870  -17.9667  -47.2593 H         1 UNK         0.0600 
    130 H130        3.2545  -16.0424  -50.8870 H         1 UNK         0.3000 
    131 H131        0.5224  -16.7380  -50.2766 H         1 UNK         0.0600 
    132 H132       -0.0050  -15.2482  -52.2247 H         1 UNK         0.0800 
    133 H133        1.6598  -14.7572  -52.3137 H         1 UNK         0.0800 
    134 H134       -1.0220  -17.0806  -53.3895 H         1 UNK         0.0800 
    135 H135       -0.2315  -18.4514  -54.1184 H         1 UNK         0.0800 
    136 H136       -2.2907  -17.6208  -51.4355 H         1 UNK         0.1150 
    137 H137       -1.2944  -21.0060  -49.0098 H         1 UNK         0.1150 
    138 H138        1.2024  -19.9397  -52.3275 H         1 UNK         0.1150 
    139 H139        0.4119  -22.5700  -49.8741 H         1 UNK         0.0800 
    140 H140        1.3830  -22.1595  -51.2514 H         1 UNK         0.0800 
    141 H141        2.2034  -20.3039  -47.1064 H         1 UNK         0.0800 
    142 H142        0.6079  -20.5624  -47.7212 H         1 UNK         0.0800 
    143 H143        2.4514  -22.8638  -46.8824 H         1 UNK         0.0600 
    144 H144        1.1919  -21.0428  -45.0823 H         1 UNK         0.3000 
    145 H145        1.0505  -23.2878  -42.2990 H         1 UNK         0.0600 
    146 H146        2.2976  -21.4243  -41.2720 H         1 UNK         0.0600 
    147 H147        3.3596  -22.3059  -42.3583 H         1 UNK         0.0600 
    148 H148        2.6873  -20.7571  -42.8563 H         1 UNK         0.0600 
    149 H149        0.2258  -20.5908  -42.5326 H         1 UNK         0.3000 
    150 H150       -3.1202  -21.2564  -43.7181 H         1 UNK         0.0600 
    151 H151       -3.0619  -21.5843  -41.2363 H         1 UNK         0.0600 
    152 H152       -3.6242  -19.9800  -41.6760 H         1 UNK         0.0600 
    153 H153       -1.9804  -20.2052  -41.0793 H         1 UNK         0.0600 
    154 H154       -1.8883  -18.7889  -43.1304 H         1 UNK         0.3000 
    155 H155       -0.5897  -18.1271  -46.4334 H         1 UNK         0.0600 
    156 H156       -1.9305  -16.0933  -45.9554 H         1 UNK         0.0600 
    157 H157       -2.7792  -16.9227  -44.6569 H         1 UNK         0.0600 
    158 H158       -2.9903  -17.4477  -46.3233 H         1 UNK         0.0600 
    159 H159       -0.3560  -16.6032  -44.0688 H         1 UNK         0.3000 
    160 H160        2.6766  -18.0498  -42.8128 H         1 UNK         0.0600 
    161 H161        1.8744  -15.3172  -43.9506 H         1 UNK         0.0600 
    162 H162        3.2278  -16.2924  -44.4981 H         1 UNK         0.0600 
    163 H163        3.2285  -15.6355  -42.8682 H         1 UNK         0.0600 
    164 H164        0.8395  -16.0650  -41.8194 H         1 UNK         0.3000 
    165 H165       -1.0280  -18.2647  -39.7138 H         1 UNK         0.0600 
    166 H166        1.1235  -16.1839  -39.0448 H         1 UNK         0.0600 
    167 H167       -0.1612  -16.7350  -37.9690 H         1 UNK         0.0600 
    168 H168        1.1006  -17.8478  -38.4729 H         1 UNK         0.0600 
    169 H169       -1.0193  -15.4225  -40.0243 H         1 UNK         0.3000 
    170 H170       -3.3962  -15.2326  -42.6678 H         1 UNK         0.0600 
    171 H171       -4.7319  -15.5606  -40.5787 H         1 UNK         0.0600 
    172 H172       -3.5977  -14.5575  -39.6822 H         1 UNK         0.0600 
    173 H173       -4.5713  -13.8575  -40.9758 H         1 UNK         0.0600 
    174 H174       -2.1246  -13.1917  -41.1805 H         1 UNK         0.3000 
    175 H175       -0.6675  -11.8210  -42.4016 H         1 UNK         0.0600 
    176 H176        1.6786  -12.0010  -41.5185 H         1 UNK         0.0600 
    177 H177        0.6067  -13.0317  -40.5864 H         1 UNK         0.0600 
    178 H178        1.6707  -13.7398  -41.7971 H         1 UNK         0.0600 
    179 H179        0.4965  -13.3584  -44.5494 H         1 UNK         0.3000 
    180 H180        1.5446  -10.4069  -46.2742 H         1 UNK         0.0600 
    181 H181        3.2358  -12.0439  -47.1010 H         1 UNK         0.0600 
    182 H182        3.6201  -11.4567  -45.4894 H         1 UNK         0.0600 
    183 H183        2.9490  -13.0657  -45.6934 H         1 UNK         0.0600 
    184 H184        0.0641  -11.4614  -47.4821 H         1 UNK         0.3000 
    185 H185       -1.6531  -14.2631  -47.4704 H         1 UNK         0.0600 
    186 H186       -2.2265  -12.9372  -49.4704 H         1 UNK         0.0600 
    187 H187       -1.9030  -11.8741  -48.1210 H         1 UNK         0.0600 
    188 H188       -0.6970  -12.0730  -49.3938 H         1 UNK         0.0600 
    189 H189       -0.8013  -15.6756  -48.9395 H         1 UNK         0.3000 
    190 H190       -1.0210  -22.0569  -46.2986 H         1 UNK         0.3000 
    191 H191       -2.0999  -23.7869  -48.2093 H         1 UNK         0.0600 
    192 H192       -4.2317  -23.4779  -46.9366 H         1 UNK         0.0600 
    193 H193       -3.3833  -21.9577  -47.1667 H         1 UNK         0.0600 
    194 H194       -3.3309  -22.7699  -45.6027 H         1 UNK         0.0600 
    195 H195       -1.2419  -24.4617  -44.8241 H         1 UNK         0.3000 
    196 H196       -2.2572  -27.1094  -44.6792 H         1 UNK         0.0600 
    197 H197       -0.7171  -27.2818  -42.7101 H         1 UNK         0.0600 
    198 H198       -1.6336  -25.7832  -42.6842 H         1 UNK         0.0600 
    199 H199        0.0581  -25.7726  -43.1790 H         1 UNK         0.0600 
    200 H200        0.7288  -25.8459  -46.0998 H         1 UNK         0.3000 
    201 H201        1.9700  -28.4787  -46.4306 H         1 UNK         0.0600 
    202 H202        3.3925  -26.4793  -46.1004 H         1 UNK         0.0600 
    203 H203        2.7565  -25.7435  -47.5665 H         1 UNK         0.0600 
    204 H204        3.7025  -27.2201  -47.6635 H         1 UNK         0.0600 
    205 H205        0.6422  -25.9516  -48.6485 H         1 UNK         0.3000 
    206 H206       -0.8942  -27.7116  -50.2444 H         1 UNK         0.0600 
    207 H207        1.1972  -28.5932  -51.2084 H         1 UNK         0.0600 
    208 H208        0.4803  -27.5164  -52.3886 H         1 UNK         0.0600 
    209 H209        1.8457  -26.9690  -51.4237 H         1 UNK         0.0600 
    210 H210       -2.4693  -26.1591  -50.1466 H         1 UNK         0.3000 
    211 H211       -2.0879  -23.3526  -50.4235 H         1 UNK         0.0600 
    212 H212       -4.6157  -25.0449  -50.8531 H         1 UNK         0.0600 
    213 H213       -4.5706  -23.3141  -50.5481 H         1 UNK         0.0600 
    214 H214       -4.0730  -24.4378  -49.2938 H         1 UNK         0.0600 
    215 H215       -2.5218  -21.9362  -52.0737 H         1 UNK         0.3000 
    216 H216       -2.4241  -22.9258  -54.8657 H         1 UNK         0.0600 
    217 H217       -1.8189  -20.6045  -55.3867 H         1 UNK         0.0600 
    218 H218       -0.8337  -21.1147  -54.0335 H         1 UNK         0.0600 
    219 H219       -2.2320  -20.0739  -53.7602 H         1 UNK         0.0600 
    220 H220       -3.7080  -20.8615  -56.1205 H         1 UNK         0.3000 
    221 H221       -6.4711  -20.6162  -55.0636 H         1 UNK         0.0600 
    222 H222       -5.7528  -21.3839  -57.9468 H         1 UNK         0.0600 
    223 H223       -6.5000  -22.4574  -56.7644 H         1 UNK         0.0600 
    224 H224       -7.3690  -21.0427  -57.3354 H         1 UNK         0.0600 
    225 H225       -4.4277  -18.8105  -54.6218 H         1 UNK         0.3000 
    226 H226       -5.2376  -16.4556  -56.1393 H         1 UNK         0.0600 
    227 H227       -3.3098  -17.3497  -57.4886 H         1 UNK         0.0600 
    228 H228       -2.8449  -15.8733  -56.6601 H         1 UNK         0.0600 
    229 H229       -2.3163  -17.4310  -56.0346 H         1 UNK         0.0600 
    230 H230       -4.4616  -14.5183  -55.0988 H         1 UNK         0.3000 
    231 H231       -4.2861  -13.1271  -53.3910 H         1 UNK         0.0600 
    232 H232       -2.4209  -13.4419  -51.8122 H         1 UNK         0.0600 
    233 H233       -1.9215  -13.9868  -53.3987 H         1 UNK         0.0600 
    234 H234       -2.3471  -15.1692  -52.1681 H         1 UNK         0.0600 
    235 H235       -3.6676  -14.6184  -50.5707 H         1 UNK         0.3000 
    236 H236       -6.2646  -14.3641  -49.4576 H         1 UNK         0.0600 
    237 H237       -3.7446  -15.7751  -48.4206 H         1 UNK         0.0600 
    238 H238       -4.2101  -14.1005  -48.1226 H         1 UNK         0.0600 
    239 H239       -5.1623  -15.4096  -47.4467 H         1 UNK         0.0600 
    240 H240       -4.8939  -16.9818  -51.2524 H         1 UNK         0.3000 
    241 H241       -6.9258  -18.9346  -50.3067 H         1 UNK         0.0600 
    242 H242       -6.9737  -16.4642  -52.5518 H         1 UNK         0.3800 
    243 H243       -7.9339  -17.2900  -53.7521 H         1 UNK         0.3800 
    244 H244       -5.5137  -20.5776  -51.6606 H         1 UNK         0.0800 
    245 H245       -4.3034  -19.3384  -51.8333 H         1 UNK         0.0800 
    246 H246       -3.4731  -18.0060  -49.3490 H         1 UNK         0.0800 
    247 H247       -2.8237  -19.1370  -48.1982 H         1 UNK         0.0800 
@<TRIPOS>BOND
     1    1    2 1    
     2    1  127 1    
     3    1  128 1    
     4    1  129 1    
     5    2    3 2    
     6    2    4 am   BACKBONE|DICT|INTERRES
     7    4    5 1    
     8    4  130 1    
     9    5    6 1    
    10    5   65 1    
    11    5  131 1    
    12    6    7 1    
    13    6  132 1    
    14    6  133 1    
    15    7    8 1    
    16    8    9 1    
    17    8  134 1    
    18    8  135 1    
    19    9   10 ar   
    20    9   14 ar   
    21   10   11 ar   
    22   10  136 1    
    23   11   12 ar   
    24   11  126 1    
    25   12   13 ar   
    26   12  137 1    
    27   13   14 ar   
    28   13   15 1    
    29   14  138 1    
    30   15   16 1    
    31   15  139 1    
    32   15  140 1    
    33   16   17 1    
    34   17   18 1    
    35   17  141 1    
    36   17  142 1    
    37   18   19 1    
    38   18   67 1    
    39   18  143 1    
    40   19   20 am   BACKBONE|DICT|INTERRES
    41   19  144 1    
    42   20   21 2    
    43   20   22 1    
    44   22   23 1    
    45   22   24 1    
    46   22  145 1    
    47   23  146 1    
    48   23  147 1    
    49   23  148 1    
    50   24   25 am   BACKBONE|DICT|INTERRES
    51   24  149 1    
    52   25   26 2    
    53   25   27 1    
    54   27   28 1    
    55   27   29 1    
    56   27  150 1    
    57   28  151 1    
    58   28  152 1    
    59   28  153 1    
    60   29   30 am   BACKBONE|DICT|INTERRES
    61   29  154 1    
    62   30   31 2    
    63   30   32 1    
    64   32   33 1    
    65   32   34 1    
    66   32  155 1    
    67   33  156 1    
    68   33  157 1    
    69   33  158 1    
    70   34   35 am   BACKBONE|DICT|INTERRES
    71   34  159 1    
    72   35   36 2    
    73   35   37 1    
    74   37   38 1    
    75   37   39 1    
    76   37  160 1    
    77   38  161 1    
    78   38  162 1    
    79   38  163 1    
    80   39   40 am   BACKBONE|DICT|INTERRES
    81   39  164 1    
    82   40   41 2    
    83   40   42 1    
    84   42   43 1    
    85   42   44 1    
    86   42  165 1    
    87   43  166 1    
    88   43  167 1    
    89   43  168 1    
    90   44   45 am   BACKBONE|DICT|INTERRES
    91   44  169 1    
    92   45   46 2    
    93   45   47 1    
    94   47   48 1    
    95   47   49 1    
    96   47  170 1    
    97   48  171 1    
    98   48  172 1    
    99   48  173 1    
   100   49   50 am   BACKBONE|DICT|INTERRES
   101   49  174 1    
   102   50   51 2    
   103   50   52 1    
   104   52   53 1    
   105   52   54 1    
   106   52  175 1    
   107   53  176 1    
   108   53  177 1    
   109   53  178 1    
   110   54   55 am   BACKBONE|DICT|INTERRES
   111   54  179 1    
   112   55   56 2    
   113   55   57 1    
   114   57   58 1    
   115   57   59 1    
   116   57  180 1    
   117   58  181 1    
   118   58  182 1    
   119   58  183 1    
   120   59   60 am   BACKBONE|DICT|INTERRES
   121   59  184 1    
   122   60   61 2    
   123   60   62 1    
   124   62   63 1    
   125   62   64 1    
   126   62  185 1    
   127   63  186 1    
   128   63  187 1    
   129   63  188 1    
   130   64   65 am   BACKBONE|DICT|INTERRES
   131   64  189 1    
   132   65   66 2    
   133   67   68 2    
   134   67   69 am   BACKBONE|DICT|INTERRES
   135   69   70 1    
   136   69  190 1    
   137   70   71 1    
   138   70   72 1    
   139   70  191 1    
   140   71  192 1    
   141   71  193 1    
   142   71  194 1    
   143   72   73 2    
   144   72   74 am   BACKBONE|DICT|INTERRES
   145   74   75 1    
   146   74  195 1    
   147   75   76 1    
   148   75   77 1    
   149   75  196 1    
   150   76  197 1    
   151   76  198 1    
   152   76  199 1    
   153   77   78 2    
   154   77   79 am   BACKBONE|DICT|INTERRES
   155   79   80 1    
   156   79  200 1    
   157   80   81 1    
   158   80   82 1    
   159   80  201 1    
   160   81  202 1    
   161   81  203 1    
   162   81  204 1    
   163   82   83 2    
   164   82   84 am   BACKBONE|DICT|INTERRES
   165   84   85 1    
   166   84  205 1    
   167   85   86 1    
   168   85   87 1    
   169   85  206 1    
   170   86  207 1    
   171   86  208 1    
   172   86  209 1    
   173   87   88 2    
   174   87   89 am   BACKBONE|DICT|INTERRES
   175   89   90 1    
   176   89  210 1    
   177   90   91 1    
   178   90   92 1    
   179   90  211 1    
   180   91  212 1    
   181   91  213 1    
   182   91  214 1    
   183   92   93 2    
   184   92   94 am   BACKBONE|DICT|INTERRES
   185   94   95 1    
   186   94  215 1    
   187   95   96 1    
   188   95   97 1    
   189   95  216 1    
   190   96  217 1    
   191   96  218 1    
   192   96  219 1    
   193   97   98 2    
   194   97   99 am   BACKBONE|DICT|INTERRES
   195   99  100 1    
   196   99  220 1    
   197  100  101 1    
   198  100  102 1    
   199  100  221 1    
   200  101  222 1    
   201  101  223 1    
   202  101  224 1    
   203  102  103 2    
   204  102  104 am   BACKBONE|DICT|INTERRES
   205  104  105 1    
   206  104  225 1    
   207  105  106 1    
   208  105  107 1    
   209  105  226 1    
   210  106  227 1    
   211  106  228 1    
   212  106  229 1    
   213  107  108 2    
   214  107  109 am   BACKBONE|DICT|INTERRES
   215  109  110 1    
   216  109  230 1    
   217  110  111 1    
   218  110  112 1    
   219  110  231 1    
   220  111  232 1    
   221  111  233 1    
   222  111  234 1    
   223  112  113 2    
   224  112  114 am   BACKBONE|DICT|INTERRES
   225  114  115 1    
   226  114  235 1    
   227  115  116 1    
   228  115  117 1    
   229  115  236 1    
   230  116  237 1    
   231  116  238 1    
   232  116  239 1    
   233  117  118 2    
   234  117  119 am   BACKBONE|DICT|INTERRES
   235  119  120 1    
   236  119  240 1    
   237  120  121 1    
   238  120  124 1    
   239  120  241 1    
   240  121  122 am   BACKBONE|DICT|INTERRES
   241  121  123 2    
   242  122  242 1    
   243  122  243 1    
   244  124  125 1    
   245  124  244 1    
   246  124  245 1    
   247  125  126 1    
   248  126  246 1    
   249  126  247 1    
@<TRIPOS>SUBSTRUCTURE
     1 UNK         1 GROUP             0       ****    0 ROOT    
