@<TRIPOS>MOLECULE
3R540
247   249    1
SMALL
USER_CHARGES


@<TRIPOS>ATOM
      1 CA         -4.7250   -9.8728  -48.2141 C.3       0 UNK        -0.1800 
      2 C          -3.7486  -10.8640  -48.8322 C.2       0 UNK         0.5000 
      3 O          -3.4475  -10.7649  -50.0220 O.2       0 UNK        -0.5000 
      4 N          -3.2610  -11.8200  -48.0316 N.am      1 UNK        -0.5000 
      5 CA         -2.2604  -12.8179  -48.4244 C.3       1 UNK         0.1400 
      6 C6         -2.2075  -13.9843  -47.4023 C.3       23 UNK        -0.0398 
      7 S7         -1.9024  -15.5807  -48.2187 S.3       23 UNK        -0.2404 
      8 C8         -0.1447  -15.8487  -47.8548 C.3       23 UNK        -0.0205 
      9 C9          0.4830  -16.7844  -48.8717 C.ar      23 UNK        -0.0193 
     10 C10         1.2933  -16.2712  -49.8888 C.ar      23 UNK        -0.1150 
     11 C11         1.8263  -17.1164  -50.8653 C.ar      23 UNK        -0.0193 
     12 C12         1.5778  -18.4895  -50.7910 C.ar      23 UNK        -0.1150 
     13 C13         0.7776  -19.0157  -49.7747 C.ar      23 UNK        -0.0193 
     14 C14         0.2296  -18.1582  -48.8164 C.ar      23 UNK        -0.1150 
     15 C15         0.4880  -20.5064  -49.7435 C.3       23 UNK        -0.0205 
     16 S16         1.7842  -21.4265  -48.8550 S.3       23 UNK        -0.2404 
     17 C17         1.2477  -21.2444  -47.1197 C.3       23 UNK        -0.0398 
     18 CA          0.4791  -22.4850  -46.6060 C.3       11 UNK         0.1400 
     19 N           0.4031  -22.5190  -45.1474 N.am      11 UNK        -0.5000 
     20 C          -0.0575  -23.5516  -44.4278 C.2       10 UNK         0.5000 
     21 O          -0.4316  -24.6195  -44.9144 O.2       10 UNK        -0.5000 
     22 CA         -0.1665  -23.3269  -42.9109 C.3       10 UNK         0.1400 
     23 CB          1.2081  -23.4480  -42.2351 C.3       10 UNK        -0.1800 
     24 N          -0.7561  -22.0264  -42.5928 N.am      10 UNK        -0.5000 
     25 C          -2.0212  -21.6789  -42.8678 C.2       9 UNK         0.5000 
     26 O          -2.8398  -22.4277  -43.4011 O.2       9 UNK        -0.5000 
     27 CA         -2.4248  -20.2355  -42.5212 C.3       9 UNK         0.1400 
     28 CB         -2.7679  -20.1087  -41.0295 C.3       9 UNK        -0.1800 
     29 N          -1.3883  -19.2617  -42.8666 N.am      9 UNK        -0.5000 
     30 C          -1.0036  -18.9825  -44.1194 C.2       8 UNK         0.5000 
     31 O          -1.4612  -19.5308  -45.1203 O.2       8 UNK        -0.5000 
     32 CA          0.1146  -17.9421  -44.2787 C.3       8 UNK         0.1400 
     33 CB         -0.4531  -16.5258  -44.0909 C.3       8 UNK        -0.1800 
     34 N           1.2492  -18.1541  -43.3745 N.am      8 UNK        -0.5000 
     35 C           1.9826  -19.2792  -43.3179 C.2       7 UNK         0.5000 
     36 O           1.7326  -20.2825  -43.9855 O.2       7 UNK        -0.5000 
     37 CA          3.2000  -19.3152  -42.3749 C.3       7 UNK         0.1400 
     38 CB          4.5043  -19.3929  -43.1834 C.3       7 UNK        -0.1800 
     39 N           3.2643  -18.1716  -41.4658 N.am      7 UNK        -0.5000 
     40 C           2.5590  -18.0713  -40.3301 C.2       6 UNK         0.5000 
     41 O           1.7960  -18.9492  -39.9253 O.2       6 UNK        -0.5000 
     42 CA          2.7103  -16.7694  -39.5161 C.3       6 UNK         0.1400 
     43 CB          3.7060  -16.9707  -38.3636 C.3       6 UNK        -0.1800 
     44 N           3.1292  -15.6091  -40.3082 N.am      6 UNK        -0.5000 
     45 C           2.4278  -15.0718  -41.3150 C.2       5 UNK         0.5000 
     46 O           1.3449  -15.5182  -41.6941 O.2       5 UNK        -0.5000 
     47 CA          3.0303  -13.8535  -42.0449 C.3       5 UNK         0.1400 
     48 CB          4.3809  -13.3684  -41.4705 C.3       5 UNK        -0.1800 
     49 N           3.1449  -14.0915  -43.4871 N.am      5 UNK        -0.5000 
     50 C           3.8359  -15.0684  -44.0966 C.2       4 UNK         0.5000 
     51 O           4.4666  -15.9360  -43.4912 O.2       4 UNK        -0.5000 
     52 CA          3.8243  -15.0846  -45.6414 C.3       4 UNK         0.1400 
     53 CB          3.0092  -16.2741  -46.1655 C.3       4 UNK        -0.1800 
     54 N           3.3086  -13.8415  -46.2317 N.am      4 UNK        -0.5000 
     55 C           4.0230  -12.7116  -46.3271 C.2       3 UNK         0.5000 
     56 O           5.2022  -12.6319  -45.9769 O.2       3 UNK        -0.5000 
     57 CA          3.2936  -11.4550  -46.8521 C.3       3 UNK         0.1400 
     58 CB          4.2707  -10.3849  -47.3844 C.3       3 UNK        -0.1800 
     59 N           2.2319  -11.6967  -47.8377 N.am      3 UNK        -0.5000 
     60 C           2.3501  -12.2439  -49.0544 C.2       2 UNK         0.5000 
     61 O           3.3441  -12.8654  -49.4328 O.2       2 UNK        -0.5000 
     62 CA          1.1670  -12.0022  -50.0217 C.3       2 UNK         0.1400 
     63 CB          1.4802  -12.4485  -51.4589 C.3       2 UNK        -0.1800 
     64 N          -0.1021  -12.6055  -49.6009 N.am      2 UNK        -0.5000 
     65 C          -0.8789  -12.1516  -48.6080 C.2       1 UNK         0.5000 
     66 O          -0.5436  -11.2386  -47.8472 O.2       1 UNK        -0.5000 
     67 C          -0.9187  -22.6019  -47.2430 C.2       11 UNK         0.5000 
     68 O          -1.1002  -23.4256  -48.1371 O.2       11 UNK        -0.5000 
     69 N          -1.8875  -21.8105  -46.7579 N.am      12 UNK        -0.5000 
     70 CA         -3.2741  -21.8308  -47.2233 C.3       12 UNK         0.1400 
     71 CB         -4.0821  -20.7186  -46.5409 C.3       12 UNK        -0.1800 
     72 C          -3.9507  -23.1958  -47.0246 C.2       12 UNK         0.5000 
     73 O          -4.6234  -23.6632  -47.9421 O.2       12 UNK        -0.5000 
     74 N          -3.7280  -23.8273  -45.8631 N.am      13 UNK        -0.5000 
     75 CA         -4.2022  -25.1761  -45.5517 C.3       13 UNK         0.1400 
     76 CB         -3.9099  -25.5040  -44.0799 C.3       13 UNK        -0.1800 
     77 C          -3.6035  -26.2445  -46.4846 C.2       13 UNK         0.5000 
     78 O          -4.3495  -27.0667  -47.0187 O.2       13 UNK        -0.5000 
     79 N          -2.2813  -26.1850  -46.7040 N.am      14 UNK        -0.5000 
     80 CA         -1.5519  -27.0588  -47.6285 C.3       14 UNK         0.1400 
     81 CB         -0.0424  -26.8188  -47.4749 C.3       14 UNK        -0.1800 
     82 C          -1.9875  -26.8796  -49.0966 C.2       14 UNK         0.5000 
     83 O          -2.0720  -27.8616  -49.8342 O.2       14 UNK        -0.5000 
     84 N          -2.2998  -25.6349  -49.4751 N.am      15 UNK        -0.5000 
     85 CA         -2.8147  -25.2315  -50.7825 C.3       15 UNK         0.1400 
     86 CB         -2.3622  -23.7875  -51.0607 C.3       15 UNK        -0.1800 
     87 C          -4.3455  -25.3891  -50.9226 C.2       15 UNK         0.5000 
     88 O          -4.9169  -24.8132  -51.8478 O.2       15 UNK        -0.5000 
     89 N          -4.9878  -26.1512  -50.0231 N.am      16 UNK        -0.5000 
     90 CA         -6.4078  -26.5243  -50.0305 C.3       16 UNK         0.1400 
     91 CB         -6.7073  -27.4701  -51.2126 C.3       16 UNK        -0.1800 
     92 C          -7.3512  -25.3045  -49.9816 C.2       16 UNK         0.5000 
     93 O          -8.2173  -25.1488  -50.8440 O.2       16 UNK        -0.5000 
     94 N          -7.1352  -24.4562  -48.9681 N.am      17 UNK        -0.5000 
     95 CA         -7.7734  -23.1572  -48.7335 C.3       17 UNK         0.1400 
     96 CB         -9.3058  -23.2791  -48.5913 C.3       17 UNK        -0.1800 
     97 C          -7.3229  -22.1057  -49.7672 C.2       17 UNK         0.5000 
     98 O          -8.1406  -21.3235  -50.2549 O.2       17 UNK        -0.5000 
     99 N          -6.0125  -22.1110  -50.0594 N.am      18 UNK        -0.5000 
    100 CA        -5.2957  -21.2044  -50.9635 C.3       18 UNK         0.1400 
    101 CB        -5.2344  -19.7854  -50.3577 C.3       18 UNK        -0.1800 
    102 C         -5.8368  -21.2241  -52.4097 C.2       18 UNK         0.5000 
    103 O         -5.9830  -20.1674  -53.0276 O.2       18 UNK        -0.5000 
    104 N         -6.1268  -22.4273  -52.9246 N.am      19 UNK        -0.5000 
    105 CA        -6.6900  -22.6728  -54.2519 C.3       19 UNK         0.1400 
    106 CB        -7.0658  -24.1591  -54.3734 C.3       19 UNK        -0.1800 
    107 C         -5.7240  -22.2347  -55.3691 C.2       19 UNK         0.5000 
    108 O         -4.7639  -22.9483  -55.6657 O.2       19 UNK        -0.5000 
    109 N         -5.9845  -21.0442  -55.9293 N.am      20 UNK        -0.5000 
    110 CA        -5.1868  -20.3357  -56.9389 C.3       20 UNK         0.1400 
    111 CB        -5.1781  -21.1098  -58.2742 C.3       20 UNK        -0.1800 
    112 C         -3.7672  -19.9538  -56.4584 C.2       20 UNK         0.5000 
    113 O         -2.8712  -19.7687  -57.2846 O.2       20 UNK        -0.5000 
    114 N         -3.5849  -19.8341  -55.1371 N.am      21 UNK        -0.5000 
    115 CA        -2.3284  -19.4423  -54.5023 C.3       21 UNK         0.1400 
    116 CB        -2.1991  -20.1917  -53.1649 C.3       21 UNK        -0.1800 
    117 C         -2.2758  -17.9212  -54.2761 C.2       21 UNK         0.5000 
    118 O         -3.3060  -17.2445  -54.3220 O.2       21 UNK        -0.5000 
    119 N         -1.0691  -17.4228  -53.9897 N.am      22 UNK        -0.5000 
    120 CA        -0.7825  -16.0391  -53.5705 C.3       22 UNK         0.1400 
    121 C         -1.2190  -15.6828  -52.1160 C.2       22 UNK         0.5000 
    122 N         -1.7901  -16.6016  -51.3494 N.am      22 UNK        -0.7600 
    123 O         -1.0498  -14.5482  -51.6748 O.2       22 UNK        -0.5000 
    124 C124        0.6893  -15.6297  -53.8784 C.3       23 UNK        -0.0398 
    125 S125        1.9580  -16.9304  -53.6388 S.3       23 UNK        -0.2404 
    126 C126        2.6701  -16.5566  -52.0013 C.3       23 UNK        -0.0205 
    127 H127       -4.3302   -8.8598  -48.2918 H         1 UNK         0.0600 
    128 H128       -4.9080  -10.0863  -47.1606 H         1 UNK         0.0600 
    129 H129       -5.6796   -9.9092  -48.7389 H         1 UNK         0.0600 
    130 H130       -3.5223  -11.8214  -47.0562 H         1 UNK         0.3000 
    131 H131       -2.5774  -13.2090  -49.3945 H         1 UNK         0.0600 
    132 H132       -3.1710  -14.0908  -46.9015 H         1 UNK         0.0800 
    133 H133       -1.4849  -13.8091  -46.6026 H         1 UNK         0.0800 
    134 H134       -0.0588  -16.2775  -46.8599 H         1 UNK         0.0800 
    135 H135        0.3893  -14.8982  -47.8374 H         1 UNK         0.0800 
    136 H136        1.4827  -15.2094  -49.9362 H         1 UNK         0.1150 
    137 H137        1.9957  -19.1489  -51.5387 H         1 UNK         0.1150 
    138 H138       -0.4114  -18.5513  -48.0398 H         1 UNK         0.1150 
    139 H139       -0.4919  -20.6934  -49.3041 H         1 UNK         0.0800 
    140 H140        0.4317  -20.8878  -50.7642 H         1 UNK         0.0800 
    141 H141        0.6694  -20.3308  -46.9811 H         1 UNK         0.0800 
    142 H142        2.1552  -21.1087  -46.5300 H         1 UNK         0.0800 
    143 H143        1.0435  -23.3722  -46.9019 H         1 UNK         0.0600 
    144 H144        0.7222  -21.6842  -44.6605 H         1 UNK         0.3000 
    145 H145       -0.8175  -24.1034  -42.5037 H         1 UNK         0.0600 
    146 H146        1.1244  -23.3536  -41.1524 H         1 UNK         0.0600 
    147 H147        1.6589  -24.4193  -42.4425 H         1 UNK         0.0600 
    148 H148        1.9020  -22.6832  -42.5856 H         1 UNK         0.0600 
    149 H149       -0.1428  -21.3337  -42.1903 H         1 UNK         0.3000 
    150 H150       -3.3201  -19.9943  -43.0981 H         1 UNK         0.0600 
    151 H151       -3.5471  -20.8179  -40.7469 H         1 UNK         0.0600 
    152 H152       -3.1377  -19.1106  -40.7939 H         1 UNK         0.0600 
    153 H153       -1.9009  -20.3034  -40.3969 H         1 UNK         0.0600 
    154 H154       -0.9402  -18.7759  -42.1033 H         1 UNK         0.3000 
    155 H155        0.4938  -18.0316  -45.2982 H         1 UNK         0.0600 
    156 H156        0.3013  -15.7616  -44.2748 H         1 UNK         0.0600 
    157 H157       -0.8333  -16.3769  -43.0797 H         1 UNK         0.0600 
    158 H158       -1.2805  -16.3400  -44.7771 H         1 UNK         0.0600 
    159 H159        1.4958  -17.3773  -42.7723 H         1 UNK         0.3000 
    160 H160        3.1219  -20.2302  -41.7838 H         1 UNK         0.0600 
    161 H161        5.3746  -19.4333  -42.5283 H         1 UNK         0.0600 
    162 H162        4.5248  -20.2895  -43.8044 H         1 UNK         0.0600 
    163 H163        4.6217  -18.5365  -43.8470 H         1 UNK         0.0600 
    164 H164        3.8409  -17.3925  -41.7589 H         1 UNK         0.3000 
    165 H165        1.7325  -16.5416  -39.0868 H         1 UNK         0.0600 
    166 H166        3.7548  -16.0887  -37.7247 H         1 UNK         0.0600 
    167 H167        3.4103  -17.8104  -37.7331 H         1 UNK         0.0600 
    168 H168        4.7118  -17.1757  -38.7327 H         1 UNK         0.0600 
    169 H169        4.0209  -15.1991  -40.0713 H         1 UNK         0.3000 
    170 H170        2.3104  -13.0434  -41.9215 H         1 UNK         0.0600 
    171 H171        5.1599  -14.1278  -41.5464 H         1 UNK         0.0600 
    172 H172        4.7330  -12.4856  -42.0045 H         1 UNK         0.0600 
    173 H173        4.2867  -13.0870  -40.4209 H         1 UNK         0.0600 
    174 H174        2.6277  -13.4547  -44.0741 H         1 UNK         0.3000 
    175 H175        4.8570  -15.2245  -45.9680 H         1 UNK         0.0600 
    176 H176        1.9715  -16.2049  -45.8521 H         1 UNK         0.0600 
    177 H177        3.0345  -16.3245  -47.2543 H         1 UNK         0.0600 
    178 H178        3.4018  -17.2189  -45.7874 H         1 UNK         0.0600 
    179 H179        2.3534  -13.8394  -46.5557 H         1 UNK         0.3000 
    180 H180        2.7934  -11.0272  -45.9821 H         1 UNK         0.0600 
    181 H181        4.8509  -10.7549  -48.2305 H         1 UNK         0.0600 
    182 H182        4.9768  -10.0749  -46.6130 H         1 UNK         0.0600 
    183 H183        3.7383   -9.4905  -47.7084 H         1 UNK         0.0600 
    184 H184        1.3277  -11.2824  -47.6217 H         1 UNK         0.3000 
    185 H185        1.0200  -10.9206  -50.0582 H         1 UNK         0.0600 
    186 H186        2.3808  -11.9623  -51.8357 H         1 UNK         0.0600 
    187 H187        1.6400  -13.5228  -51.5119 H         1 UNK         0.0600 
    188 H188        0.6662  -12.1962  -52.1388 H         1 UNK         0.0600 
    189 H189       -0.4502  -13.3559  -50.1933 H         1 UNK         0.3000 
    190 H190       -1.6645  -21.1249  -46.0395 H         1 UNK         0.3000 
    191 H191       -3.2605  -21.6252  -48.2954 H         1 UNK         0.0600 
    192 H192       -4.0852  -20.8311  -45.4563 H         1 UNK         0.0600 
    193 H193       -5.1199  -20.7257  -46.8769 H         1 UNK         0.0600 
    194 H194       -3.6728  -19.7357  -46.7748 H         1 UNK         0.0600 
    195 H195       -3.1956  -23.3543  -45.1392 H         1 UNK         0.3000 
    196 H196       -5.2853  -25.1862  -45.6904 H         1 UNK         0.0600 
    197 H197       -4.2588  -26.5054  -43.8250 H         1 UNK         0.0600 
    198 H198       -4.4153  -24.8044  -43.4140 H         1 UNK         0.0600 
    199 H199       -2.8428  -25.4608  -43.8602 H         1 UNK         0.0600 
    200 H200       -1.7324  -25.4876  -46.2104 H         1 UNK         0.3000 
    201 H201       -1.7624  -28.0920  -47.3453 H         1 UNK         0.0600 
    202 H202        0.2858  -27.0156  -46.4541 H         1 UNK         0.0600 
    203 H203        0.2293  -25.7918  -47.7202 H         1 UNK         0.0600 
    204 H204        0.5272  -27.4761  -48.1330 H         1 UNK         0.0600 
    205 H205       -2.1306  -24.8795  -48.8156 H         1 UNK         0.3000 
    206 H206       -2.3676  -25.8697  -51.5470 H         1 UNK         0.0600 
    207 H207       -1.2748  -23.7095  -51.0522 H         1 UNK         0.0600 
    208 H208       -2.7019  -23.4395  -52.0368 H         1 UNK         0.0600 
    209 H209       -2.7460  -23.1023  -50.3060 H         1 UNK         0.0600 
    210 H210       -4.4453  -26.5319  -49.2583 H         1 UNK         0.3000 
    211 H211       -6.5819  -27.0846  -49.1106 H         1 UNK         0.0600 
    212 H212       -6.5792  -26.9721  -52.1745 H         1 UNK         0.0600 
    213 H213       -7.7337  -27.8361  -51.1688 H         1 UNK         0.0600 
    214 H214       -6.0517  -28.3407  -51.1962 H         1 UNK         0.0600 
    215 H215       -6.3225  -24.6295  -48.3853 H         1 UNK         0.3000 
    216 H216       -7.3914  -22.8100  -47.7723 H         1 UNK         0.0600 
    217 H217       -9.7378  -22.3387  -48.2473 H         1 UNK         0.0600 
    218 H218       -9.5753  -24.0448  -47.8640 H         1 UNK         0.0600 
    219 H219       -9.7877  -23.5277  -49.5369 H         1 UNK         0.0600 
    220 H220       -5.4451  -22.8059  -49.5858 H         1 UNK         0.3000 
    221 H221       -4.2732  -21.5721  -51.0262 H         1 UNK         0.0600 
    222 H222       -6.2257  -19.3393  -50.2743 H         1 UNK         0.0600 
    223 H223       -4.7896  -19.7992  -49.3633 H         1 UNK         0.0600 
    224 H224       -4.6302  -19.1157  -50.9699 H         1 UNK         0.0600 
    225 H225       -5.8921  -23.2578  -52.3864 H         1 UNK         0.3000 
    226 H226       -7.6109  -22.0921  -54.3364 H         1 UNK         0.0600 
    227 H227       -7.7875  -24.4467  -53.6085 H         1 UNK         0.0600 
    228 H228       -7.5164  -24.3695  -55.3439 H         1 UNK         0.0600 
    229 H229       -6.1949  -24.8071  -54.2679 H         1 UNK         0.0600 
    230 H230       -6.7667  -20.5194  -55.5615 H         1 UNK         0.3000 
    231 H231       -5.7011  -19.3901  -57.1152 H         1 UNK         0.0600 
    232 H232       -6.1903  -21.3588  -58.5927 H         1 UNK         0.0600 
    233 H233       -4.6108  -22.0381  -58.2013 H         1 UNK         0.0600 
    234 H234       -4.7276  -20.5148  -59.0693 H         1 UNK         0.0600 
    235 H235       -4.3890  -19.9294  -54.5282 H         1 UNK         0.3000 
    236 H236       -1.4873  -19.7280  -55.1377 H         1 UNK         0.0600 
    237 H237       -1.2335  -19.9996  -52.6955 H         1 UNK         0.0600 
    238 H238       -2.9714  -19.8885  -52.4598 H         1 UNK         0.0600 
    239 H239       -2.2795  -21.2694  -53.3080 H         1 UNK         0.0600 
    240 H240       -0.2707  -18.0413  -53.9639 H         1 UNK         0.3000 
    241 H241       -1.4101  -15.3936  -54.1879 H         1 UNK         0.0600 
    242 H242       -2.0272  -16.3594  -50.3991 H         1 UNK         0.3800 
    243 H243       -1.9253  -17.5388  -51.6836 H         1 UNK         0.3800 
    244 H244        0.7459  -15.3556  -54.9325 H         1 UNK         0.0800 
    245 H245        0.9809  -14.7244  -53.3475 H         1 UNK         0.0800 
    246 H246        2.8221  -15.4823  -51.8969 H         1 UNK         0.0800 
    247 H247        3.6613  -17.0082  -51.9447 H         1 UNK         0.0800 
@<TRIPOS>BOND
     1    1    2 1    
     2    1  127 1    
     3    1  128 1    
     4    1  129 1    
     5    2    3 2    
     6    2    4 am   BACKBONE|DICT|INTERRES
     7    4    5 1    
     8    4  130 1    
     9    5    6 1    
    10    5   65 1    
    11    5  131 1    
    12    6    7 1    
    13    6  132 1    
    14    6  133 1    
    15    7    8 1    
    16    8    9 1    
    17    8  134 1    
    18    8  135 1    
    19    9   10 ar   
    20    9   14 ar   
    21   10   11 ar   
    22   10  136 1    
    23   11   12 ar   
    24   11  126 1    
    25   12   13 ar   
    26   12  137 1    
    27   13   14 ar   
    28   13   15 1    
    29   14  138 1    
    30   15   16 1    
    31   15  139 1    
    32   15  140 1    
    33   16   17 1    
    34   17   18 1    
    35   17  141 1    
    36   17  142 1    
    37   18   19 1    
    38   18   67 1    
    39   18  143 1    
    40   19   20 am   BACKBONE|DICT|INTERRES
    41   19  144 1    
    42   20   21 2    
    43   20   22 1    
    44   22   23 1    
    45   22   24 1    
    46   22  145 1    
    47   23  146 1    
    48   23  147 1    
    49   23  148 1    
    50   24   25 am   BACKBONE|DICT|INTERRES
    51   24  149 1    
    52   25   26 2    
    53   25   27 1    
    54   27   28 1    
    55   27   29 1    
    56   27  150 1    
    57   28  151 1    
    58   28  152 1    
    59   28  153 1    
    60   29   30 am   BACKBONE|DICT|INTERRES
    61   29  154 1    
    62   30   31 2    
    63   30   32 1    
    64   32   33 1    
    65   32   34 1    
    66   32  155 1    
    67   33  156 1    
    68   33  157 1    
    69   33  158 1    
    70   34   35 am   BACKBONE|DICT|INTERRES
    71   34  159 1    
    72   35   36 2    
    73   35   37 1    
    74   37   38 1    
    75   37   39 1    
    76   37  160 1    
    77   38  161 1    
    78   38  162 1    
    79   38  163 1    
    80   39   40 am   BACKBONE|DICT|INTERRES
    81   39  164 1    
    82   40   41 2    
    83   40   42 1    
    84   42   43 1    
    85   42   44 1    
    86   42  165 1    
    87   43  166 1    
    88   43  167 1    
    89   43  168 1    
    90   44   45 am   BACKBONE|DICT|INTERRES
    91   44  169 1    
    92   45   46 2    
    93   45   47 1    
    94   47   48 1    
    95   47   49 1    
    96   47  170 1    
    97   48  171 1    
    98   48  172 1    
    99   48  173 1    
   100   49   50 am   BACKBONE|DICT|INTERRES
   101   49  174 1    
   102   50   51 2    
   103   50   52 1    
   104   52   53 1    
   105   52   54 1    
   106   52  175 1    
   107   53  176 1    
   108   53  177 1    
   109   53  178 1    
   110   54   55 am   BACKBONE|DICT|INTERRES
   111   54  179 1    
   112   55   56 2    
   113   55   57 1    
   114   57   58 1    
   115   57   59 1    
   116   57  180 1    
   117   58  181 1    
   118   58  182 1    
   119   58  183 1    
   120   59   60 am   BACKBONE|DICT|INTERRES
   121   59  184 1    
   122   60   61 2    
   123   60   62 1    
   124   62   63 1    
   125   62   64 1    
   126   62  185 1    
   127   63  186 1    
   128   63  187 1    
   129   63  188 1    
   130   64   65 am   BACKBONE|DICT|INTERRES
   131   64  189 1    
   132   65   66 2    
   133   67   68 2    
   134   67   69 am   BACKBONE|DICT|INTERRES
   135   69   70 1    
   136   69  190 1    
   137   70   71 1    
   138   70   72 1    
   139   70  191 1    
   140   71  192 1    
   141   71  193 1    
   142   71  194 1    
   143   72   73 2    
   144   72   74 am   BACKBONE|DICT|INTERRES
   145   74   75 1    
   146   74  195 1    
   147   75   76 1    
   148   75   77 1    
   149   75  196 1    
   150   76  197 1    
   151   76  198 1    
   152   76  199 1    
   153   77   78 2    
   154   77   79 am   BACKBONE|DICT|INTERRES
   155   79   80 1    
   156   79  200 1    
   157   80   81 1    
   158   80   82 1    
   159   80  201 1    
   160   81  202 1    
   161   81  203 1    
   162   81  204 1    
   163   82   83 2    
   164   82   84 am   BACKBONE|DICT|INTERRES
   165   84   85 1    
   166   84  205 1    
   167   85   86 1    
   168   85   87 1    
   169   85  206 1    
   170   86  207 1    
   171   86  208 1    
   172   86  209 1    
   173   87   88 2    
   174   87   89 am   BACKBONE|DICT|INTERRES
   175   89   90 1    
   176   89  210 1    
   177   90   91 1    
   178   90   92 1    
   179   90  211 1    
   180   91  212 1    
   181   91  213 1    
   182   91  214 1    
   183   92   93 2    
   184   92   94 am   BACKBONE|DICT|INTERRES
   185   94   95 1    
   186   94  215 1    
   187   95   96 1    
   188   95   97 1    
   189   95  216 1    
   190   96  217 1    
   191   96  218 1    
   192   96  219 1    
   193   97   98 2    
   194   97   99 am   BACKBONE|DICT|INTERRES
   195   99  100 1    
   196   99  220 1    
   197  100  101 1    
   198  100  102 1    
   199  100  221 1    
   200  101  222 1    
   201  101  223 1    
   202  101  224 1    
   203  102  103 2    
   204  102  104 am   BACKBONE|DICT|INTERRES
   205  104  105 1    
   206  104  225 1    
   207  105  106 1    
   208  105  107 1    
   209  105  226 1    
   210  106  227 1    
   211  106  228 1    
   212  106  229 1    
   213  107  108 2    
   214  107  109 am   BACKBONE|DICT|INTERRES
   215  109  110 1    
   216  109  230 1    
   217  110  111 1    
   218  110  112 1    
   219  110  231 1    
   220  111  232 1    
   221  111  233 1    
   222  111  234 1    
   223  112  113 2    
   224  112  114 am   BACKBONE|DICT|INTERRES
   225  114  115 1    
   226  114  235 1    
   227  115  116 1    
   228  115  117 1    
   229  115  236 1    
   230  116  237 1    
   231  116  238 1    
   232  116  239 1    
   233  117  118 2    
   234  117  119 am   BACKBONE|DICT|INTERRES
   235  119  120 1    
   236  119  240 1    
   237  120  121 1    
   238  120  124 1    
   239  120  241 1    
   240  121  122 am   BACKBONE|DICT|INTERRES
   241  121  123 2    
   242  122  242 1    
   243  122  243 1    
   244  124  125 1    
   245  124  244 1    
   246  124  245 1    
   247  125  126 1    
   248  126  246 1    
   249  126  247 1    
@<TRIPOS>SUBSTRUCTURE
     1 UNK         1 GROUP             0       ****    0 ROOT    
