@<TRIPOS>MOLECULE
3R540
247   249    1
SMALL
USER_CHARGES


@<TRIPOS>ATOM
      1 CA         -1.4088  -15.7504  -51.5866 C.3       0 UNK        -0.1800 
      2 C          -0.6118  -14.5358  -51.1341 C.2       0 UNK         0.5000 
      3 O          -1.1248  -13.4180  -51.1836 O.2       0 UNK        -0.5000 
      4 N           0.6382  -14.7519  -50.6991 N.am      1 UNK        -0.5000 
      5 CA          1.5708  -13.7143  -50.2378 C.3       1 UNK         0.1400 
      6 C6          2.9843  -14.2688  -49.9235 C.3       23 UNK        -0.0398 
      7 S7          3.7753  -15.1345  -51.3213 S.3       23 UNK        -0.2404 
      8 C8          3.9759  -16.8198  -50.6560 C.3       23 UNK        -0.0205 
      9 C9          2.7299  -17.6614  -50.8802 C.ar      23 UNK        -0.0193 
     10 C10         2.6115  -18.4243  -52.0453 C.ar      23 UNK        -0.1150 
     11 C11         1.4691  -19.1925  -52.2797 C.ar      23 UNK        -0.0193 
     12 C12         0.4375  -19.1909  -51.3381 C.ar      23 UNK        -0.1150 
     13 C13         0.5397  -18.4276  -50.1713 C.ar      23 UNK        -0.0193 
     14 C14         1.6961  -17.6772  -49.9383 C.ar      23 UNK        -0.1150 
     15 C15        -0.6236  -18.3831  -49.1916 C.3       23 UNK        -0.0205 
     16 S16        -0.2744  -19.2409  -47.6271 S.3       23 UNK        -0.2404 
     17 C17         0.2432  -20.8914  -48.1923 C.3       23 UNK        -0.0398 
     18 CA         -0.1448  -22.0651  -47.2626 C.3       11 UNK         0.1400 
     19 N           0.3460  -21.9373  -45.8845 N.am      11 UNK        -0.5000 
     20 C           0.4912  -22.9937  -45.0692 C.2       10 UNK         0.5000 
     21 O           0.2377  -24.1499  -45.4096 O.2       10 UNK        -0.5000 
     22 CA          0.9537  -22.7279  -43.6265 C.3       10 UNK         0.1400 
     23 CB          2.4566  -22.4150  -43.5720 C.3       10 UNK        -0.1800 
     24 N           0.1906  -21.6688  -42.9680 N.am      10 UNK        -0.5000 
     25 C          -1.1223  -21.7362  -42.7041 C.2       9 UNK         0.5000 
     26 O          -1.8275  -22.7026  -42.9906 O.2       9 UNK        -0.5000 
     27 CA         -1.7689  -20.5096  -42.0368 C.3       9 UNK         0.1400 
     28 CB         -1.5424  -20.5340  -40.5181 C.3       9 UNK        -0.1800 
     29 N          -1.2879  -19.2448  -42.5903 N.am      9 UNK        -0.5000 
     30 C          -1.4668  -18.8604  -43.8623 C.2       8 UNK         0.5000 
     31 O          -2.1042  -19.5118  -44.6887 O.2       8 UNK        -0.5000 
     32 CA         -0.7762  -17.5544  -44.2934 C.3       8 UNK         0.1400 
     33 CB         -1.5741  -16.3284  -43.8243 C.3       8 UNK        -0.1800 
     34 N           0.6002  -17.4606  -43.8079 N.am      8 UNK        -0.5000 
     35 C           1.5850  -18.3238  -44.0999 C.2       7 UNK         0.5000 
     36 O           1.4599  -19.2943  -44.8459 O.2       7 UNK        -0.5000 
     37 CA          2.9243  -18.0950  -43.3812 C.3       7 UNK         0.1400 
     38 CB          3.7140  -16.9463  -44.0295 C.3       7 UNK        -0.1800 
     39 N           2.7310  -17.8279  -41.9556 N.am      7 UNK        -0.5000 
     40 C           2.2818  -18.7321  -41.0726 C.2       6 UNK         0.5000 
     41 O           2.0210  -19.8997  -41.3605 O.2       6 UNK        -0.5000 
     42 CA          2.0507  -18.2365  -39.6337 C.3       6 UNK         0.1400 
     43 CB          3.3619  -18.2622  -38.8343 C.3       6 UNK        -0.1800 
     44 N           1.4816  -16.8889  -39.5896 N.am      6 UNK        -0.5000 
     45 C           0.2470  -16.5742  -40.0067 C.2       5 UNK         0.5000 
     46 O          -0.5577  -17.3949  -40.4451 O.2       5 UNK        -0.5000 
     47 CA         -0.1278  -15.0806  -39.9792 C.3       5 UNK         0.1400 
     48 CB         -0.6245  -14.6708  -38.5849 C.3       5 UNK        -0.1800 
     49 N           0.9798  -14.2079  -40.3815 N.am      5 UNK        -0.5000 
     50 C           1.5488  -14.2289  -41.5929 C.2       4 UNK         0.5000 
     51 O           1.1984  -14.9885  -42.5009 O.2       4 UNK        -0.5000 
     52 CA          2.7333  -13.2834  -41.8182 C.3       4 UNK         0.1400 
     53 CB          4.0222  -13.8673  -41.2109 C.3       4 UNK        -0.1800 
     54 N           2.8901  -13.1149  -43.2557 N.am      4 UNK        -0.5000 
     55 C           3.5270  -12.1199  -43.8776 C.2       3 UNK         0.5000 
     56 O           4.1205  -11.2132  -43.2922 O.2       3 UNK        -0.5000 
     57 CA          3.4926  -12.1378  -45.4184 C.3       3 UNK         0.1400 
     58 CB          4.7736  -12.7787  -45.9749 C.3       3 UNK        -0.1800 
     59 N           2.3346  -12.8377  -45.9843 N.am      3 UNK        -0.5000 
     60 C           1.0645  -12.4111  -45.9174 C.2       2 UNK         0.5000 
     61 O           0.7148  -11.4099  -45.2898 O.2       2 UNK        -0.5000 
     62 CA          0.0279  -13.2377  -46.7148 C.3       2 UNK         0.1400 
     63 CB         -1.3170  -12.5051  -46.8956 C.3       2 UNK        -0.1800 
     64 N           0.5335  -13.7030  -48.0150 N.am      2 UNK        -0.5000 
     65 C           1.0470  -12.9498  -49.0039 C.2       1 UNK         0.5000 
     66 O           1.1392  -11.7220  -48.9689 O.2       1 UNK        -0.5000 
     67 C          -1.6429  -22.4291  -47.3323 C.2       11 UNK         0.5000 
     68 O          -2.0376  -23.1381  -48.2590 O.2       11 UNK        -0.5000 
     69 N          -2.4450  -22.0053  -46.3439 N.am      12 UNK        -0.5000 
     70 CA         -3.8360  -22.4355  -46.1881 C.3       12 UNK         0.1400 
     71 CB         -4.5503  -21.5702  -45.1409 C.3       12 UNK        -0.1800 
     72 C          -3.9511  -23.9319  -45.8480 C.2       12 UNK         0.5000 
     73 O          -4.7471  -24.6298  -46.4759 O.2       12 UNK        -0.5000 
     74 N          -3.1238  -24.4122  -44.9080 N.am      13 UNK        -0.5000 
     75 CA         -3.0307  -25.8233  -44.5202 C.3       13 UNK         0.1400 
     76 CB         -2.1283  -25.9604  -43.2849 C.3       13 UNK        -0.1800 
     77 C          -2.5333  -26.7314  -45.6612 C.2       13 UNK         0.5000 
     78 O          -3.0124  -27.8577  -45.7956 O.2       13 UNK        -0.5000 
     79 N          -1.6138  -26.2108  -46.4851 N.am      14 UNK        -0.5000 
     80 CA         -1.1132  -26.8564  -47.7009 C.3       14 UNK         0.1400 
     81 CB          0.2013  -26.1759  -48.1144 C.3       14 UNK        -0.1800 
     82 C          -2.1151  -26.8327  -48.8757 C.2       14 UNK         0.5000 
     83 O          -1.8687  -27.5036  -49.8787 O.2       14 UNK        -0.5000 
     84 N          -3.2008  -26.0530  -48.7472 N.am      15 UNK        -0.5000 
     85 CA         -4.2334  -25.7807  -49.7536 C.3       15 UNK         0.1400 
     86 CB         -5.0259  -27.0586  -50.0987 C.3       15 UNK        -0.1800 
     87 C          -3.6831  -25.0483  -50.9971 C.2       15 UNK         0.5000 
     88 O          -4.1756  -25.2542  -52.1068 O.2       15 UNK        -0.5000 
     89 N          -2.6704  -24.2009  -50.7788 N.am      16 UNK        -0.5000 
     90 CA         -2.0357  -23.3517  -51.7851 C.3       16 UNK         0.1400 
     91 CB         -0.5221  -23.3399  -51.5203 C.3       16 UNK        -0.1800 
     92 C          -2.6098  -21.9211  -51.7747 C.2       16 UNK         0.5000 
     93 O          -2.3908  -21.1806  -52.7321 O.2       16 UNK        -0.5000 
     94 N          -3.3372  -21.5629  -50.7094 N.am      17 UNK        -0.5000 
     95 CA         -4.0927  -20.3187  -50.5742 C.3       17 UNK         0.1400 
     96 CB         -4.0919  -19.9184  -49.0853 C.3       17 UNK        -0.1800 
     97 C          -5.5411  -20.4931  -51.0791 C.2       17 UNK         0.5000 
     98 O          -5.9167  -21.5698  -51.5525 O.2       17 UNK        -0.5000 
     99 N          -6.3459  -19.4341  -50.9047 N.am      18 UNK        -0.5000 
    100 CA        -7.8005  -19.3842  -51.0855 C.3       18 UNK         0.1400 
    101 CB        -8.5011  -20.2001  -49.9749 C.3       18 UNK        -0.1800 
    102 C         -8.2304  -19.7729  -52.5134 C.2       18 UNK         0.5000 
    103 O         -7.9648  -19.0123  -53.4443 O.2       18 UNK        -0.5000 
    104 N         -8.8622  -20.9442  -52.6712 N.am      19 UNK        -0.5000 
    105 CA        -9.3435  -21.4900  -53.9435 C.3       19 UNK         0.1400 
    106 CB       -10.1376  -22.7752  -53.6645 C.3       19 UNK        -0.1800 
    107 C         -8.2313  -21.7574  -54.9779 C.2       19 UNK         0.5000 
    108 O         -8.5080  -21.7332  -56.1776 O.2       19 UNK        -0.5000 
    109 N         -6.9970  -21.9802  -54.5056 N.am      20 UNK        -0.5000 
    110 CA        -5.8045  -22.1287  -55.3420 C.3       20 UNK         0.1400 
    111 CB        -4.8074  -23.0449  -54.6201 C.3       20 UNK        -0.1800 
    112 C         -5.1612  -20.7784  -55.7292 C.2       20 UNK         0.5000 
    113 O         -4.1990  -20.7786  -56.4981 O.2       20 UNK        -0.5000 
    114 N         -5.7082  -19.6617  -55.2220 N.am      21 UNK        -0.5000 
    115 CA        -5.3035  -18.2744  -55.4526 C.3       21 UNK         0.1400 
    116 CB        -5.5419  -17.8657  -56.9240 C.3       21 UNK        -0.1800 
    117 C         -3.8773  -17.9968  -54.9408 C.2       21 UNK         0.5000 
    118 O         -3.6973  -17.8505  -53.7311 O.2       21 UNK        -0.5000 
    119 N         -2.9071  -17.9153  -55.8617 N.am      22 UNK        -0.5000 
    120 CA        -1.4852  -17.6237  -55.6087 C.3       22 UNK         0.1400 
    121 C         -1.1803  -16.1331  -55.2552 C.2       22 UNK         0.5000 
    122 N         -2.1125  -15.2058  -55.4410 N.am      22 UNK        -0.7600 
    123 O         -0.0763  -15.7955  -54.8393 O.2       22 UNK        -0.5000 
    124 C124       -0.8421  -18.6419  -54.6244 C.3       23 UNK        -0.0398 
    125 S125        0.9078  -19.0010  -54.9919 S.3       23 UNK        -0.2404 
    126 C126        1.3533  -20.0195  -53.5517 C.3       23 UNK        -0.0205 
    127 H127       -2.0297  -16.1236  -50.7730 H         1 UNK         0.0600 
    128 H128       -0.7519  -16.5513  -51.9233 H         1 UNK         0.0600 
    129 H129       -2.0641  -15.4874  -52.4168 H         1 UNK         0.0600 
    130 H130        1.0161  -15.6887  -50.7399 H         1 UNK         0.3000 
    131 H131        1.6676  -12.9912  -51.0505 H         1 UNK         0.0600 
    132 H132        3.6504  -13.4503  -49.6433 H         1 UNK         0.0800 
    133 H133        2.9534  -14.9310  -49.0574 H         1 UNK         0.0800 
    134 H134        4.8263  -17.2876  -51.1545 H         1 UNK         0.0800 
    135 H135        4.2353  -16.7891  -49.5968 H         1 UNK         0.0800 
    136 H136        3.4059  -18.4131  -52.7785 H         1 UNK         0.1150 
    137 H137       -0.4550  -19.7707  -51.5246 H         1 UNK         0.1150 
    138 H138        1.7814  -17.0970  -49.0305 H         1 UNK         0.1150 
    139 H139       -0.8651  -17.3440  -48.9664 H         1 UNK         0.0800 
    140 H140       -1.5159  -18.8083  -49.6489 H         1 UNK         0.0800 
    141 H141        1.3275  -20.8673  -48.3087 H         1 UNK         0.0800 
    142 H142       -0.1552  -21.0642  -49.1923 H         1 UNK         0.0800 
    143 H143        0.3714  -22.9292  -47.6853 H         1 UNK         0.0600 
    144 H144        0.5690  -21.0025  -45.5528 H         1 UNK         0.3000 
    145 H145        0.7887  -23.6461  -43.0590 H         1 UNK         0.0600 
    146 H146        2.8014  -22.3204  -42.5423 H         1 UNK         0.0600 
    147 H147        2.6995  -21.4888  -44.0917 H         1 UNK         0.0600 
    148 H148        3.0373  -23.2128  -44.0365 H         1 UNK         0.0600 
    149 H149        0.7106  -20.8499  -42.6723 H         1 UNK         0.3000 
    150 H150       -2.8442  -20.5630  -42.2179 H         1 UNK         0.0600 
    151 H151       -0.4858  -20.4399  -40.2665 H         1 UNK         0.0600 
    152 H152       -1.9023  -21.4677  -40.0841 H         1 UNK         0.0600 
    153 H153       -2.0768  -19.7205  -40.0274 H         1 UNK         0.0600 
    154 H154       -0.7976  -18.6254  -41.9520 H         1 UNK         0.3000 
    155 H155       -0.7439  -17.5324  -45.3826 H         1 UNK         0.0600 
    156 H156       -2.5935  -16.3561  -44.2109 H         1 UNK         0.0600 
    157 H157       -1.1179  -15.4023  -44.1734 H         1 UNK         0.0600 
    158 H158       -1.6360  -16.2794  -42.7372 H         1 UNK         0.0600 
    159 H159        0.8092  -16.6715  -43.2016 H         1 UNK         0.3000 
    160 H160        3.5159  -19.0080  -43.4775 H         1 UNK         0.0600 
    161 H161        3.1792  -15.9990  -43.9736 H         1 UNK         0.0600 
    162 H162        3.9014  -17.1523  -45.0841 H         1 UNK         0.0600 
    163 H163        4.6829  -16.8127  -43.5482 H         1 UNK         0.0600 
    164 H164        2.8766  -16.8801  -41.6450 H         1 UNK         0.3000 
    165 H165        1.3456  -18.9196  -39.1553 H         1 UNK         0.0600 
    166 H166        3.1942  -17.9860  -37.7932 H         1 UNK         0.0600 
    167 H167        3.8007  -19.2610  -38.8377 H         1 UNK         0.0600 
    168 H168        4.1023  -17.5769  -39.2490 H         1 UNK         0.0600 
    169 H169        2.0763  -16.1512  -39.2426 H         1 UNK         0.3000 
    170 H170       -0.9449  -14.9327  -40.6884 H         1 UNK         0.0600 
    171 H171        0.1590  -14.7661  -37.8321 H         1 UNK         0.0600 
    172 H172       -0.9730  -13.6379  -38.5784 H         1 UNK         0.0600 
    173 H173       -1.4608  -15.2963  -38.2696 H         1 UNK         0.0600 
    174 H174        1.3225  -13.5613  -39.6854 H         1 UNK         0.3000 
    175 H175        2.5049  -12.3183  -41.3614 H         1 UNK         0.0600 
    176 H176        4.2810  -14.8260  -41.6617 H         1 UNK         0.0600 
    177 H177        4.8675  -13.1943  -41.3545 H         1 UNK         0.0600 
    178 H178        3.9165  -14.0249  -40.1370 H         1 UNK         0.0600 
    179 H179        2.3796  -13.7958  -43.8034 H         1 UNK         0.3000 
    180 H180        3.4552  -11.0999  -45.7560 H         1 UNK         0.0600 
    181 H181        4.8028  -12.7233  -47.0634 H         1 UNK         0.0600 
    182 H182        4.8558  -13.8280  -45.6882 H         1 UNK         0.0600 
    183 H183        5.6612  -12.2663  -45.6014 H         1 UNK         0.0600 
    184 H184        2.5311  -13.6700  -46.5190 H         1 UNK         0.3000 
    185 H185       -0.1631  -14.1327  -46.1211 H         1 UNK         0.0600 
    186 H186       -2.0323  -13.1240  -47.4373 H         1 UNK         0.0600 
    187 H187       -1.7646  -12.2622  -45.9311 H         1 UNK         0.0600 
    188 H188       -1.1974  -11.5719  -47.4469 H         1 UNK         0.0600 
    189 H189        0.4873  -14.7003  -48.1653 H         1 UNK         0.3000 
    190 H190       -2.0807  -21.3670  -45.6443 H         1 UNK         0.3000 
    191 H191       -4.3419  -22.2863  -47.1429 H         1 UNK         0.0600 
    192 H192       -4.5599  -20.5220  -45.4399 H         1 UNK         0.0600 
    193 H193       -4.0692  -21.6362  -44.1654 H         1 UNK         0.0600 
    194 H194       -5.5881  -21.8820  -45.0179 H         1 UNK         0.0600 
    195 H195       -2.5261  -23.7649  -44.3994 H         1 UNK         0.3000 
    196 H196       -4.0331  -26.1588  -44.2463 H         1 UNK         0.0600 
    197 H197       -2.5259  -25.3943  -42.4424 H         1 UNK         0.0600 
    198 H198       -1.1182  -25.6001  -43.4821 H         1 UNK         0.0600 
    199 H199       -2.0510  -27.0016  -42.9694 H         1 UNK         0.0600 
    200 H200       -1.2114  -25.3090  -46.2505 H         1 UNK         0.3000 
    201 H201       -0.8992  -27.9024  -47.4725 H         1 UNK         0.0600 
    202 H202        0.9277  -26.1870  -47.3016 H         1 UNK         0.0600 
    203 H203        0.0384  -25.1391  -48.4078 H         1 UNK         0.0600 
    204 H204        0.6565  -26.6869  -48.9636 H         1 UNK         0.0600 
    205 H205       -3.3122  -25.5463  -47.8779 H         1 UNK         0.3000 
    206 H206       -4.9297  -25.0842  -49.2846 H         1 UNK         0.0600 
    207 H207       -4.4171  -27.7808  -50.6430 H         1 UNK         0.0600 
    208 H208       -5.3999  -27.5449  -49.1977 H         1 UNK         0.0600 
    209 H209       -5.8894  -26.8252  -50.7226 H         1 UNK         0.0600 
    210 H210       -2.3552  -24.0623  -49.8210 H         1 UNK         0.3000 
    211 H211       -2.2032  -23.7643  -52.7821 H         1 UNK         0.0600 
    212 H212       -0.2881  -22.9593  -50.5270 H         1 UNK         0.0600 
    213 H213        0.0003  -22.7177  -52.2461 H         1 UNK         0.0600 
    214 H214       -0.1050  -24.3442  -51.5959 H         1 UNK         0.0600 
    215 H215       -3.4761  -22.2513  -49.9843 H         1 UNK         0.3000 
    216 H216       -3.6103  -19.5309  -51.1572 H         1 UNK         0.0600 
    217 H217       -4.3455  -18.8653  -48.9615 H         1 UNK         0.0600 
    218 H218       -3.1190  -20.0705  -48.6205 H         1 UNK         0.0600 
    219 H219       -4.8183  -20.4952  -48.5125 H         1 UNK         0.0600 
    220 H220       -5.9340  -18.5815  -50.5534 H         1 UNK         0.3000 
    221 H221       -8.0932  -18.3410  -50.9572 H         1 UNK         0.0600 
    222 H222       -8.2200  -21.2537  -49.9923 H         1 UNK         0.0600 
    223 H223       -8.2443  -19.8111  -48.9896 H         1 UNK         0.0600 
    224 H224       -9.5865  -20.1414  -50.0672 H         1 UNK         0.0600 
    225 H225       -9.0081  -21.5183  -51.8536 H         1 UNK         0.3000 
    226 H226      -10.0231  -20.7560  -54.3811 H         1 UNK         0.0600 
    227 H227      -10.9837  -22.5818  -53.0048 H         1 UNK         0.0600 
    228 H228      -10.5376  -23.1963  -54.5880 H         1 UNK         0.0600 
    229 H229       -9.5142  -23.5392  -53.1983 H         1 UNK         0.0600 
    230 H230       -6.8449  -21.9668  -53.5027 H         1 UNK         0.3000 
    231 H231       -6.0806  -22.6205  -56.2770 H         1 UNK         0.0600 
    232 H232       -3.8712  -23.1363  -55.1720 H         1 UNK         0.0600 
    233 H233       -5.2138  -24.0493  -54.5010 H         1 UNK         0.0600 
    234 H234       -4.5722  -22.6662  -53.6284 H         1 UNK         0.0600 
    235 H235       -6.4955  -19.7619  -54.5906 H         1 UNK         0.3000 
    236 H236       -5.9658  -17.6609  -54.8400 H         1 UNK         0.0600 
    237 H237       -4.9669  -18.4687  -57.6270 H         1 UNK         0.0600 
    238 H238       -6.5943  -17.9727  -57.1877 H         1 UNK         0.0600 
    239 H239       -5.2760  -16.8208  -57.0884 H         1 UNK         0.0600 
    240 H240       -3.1562  -18.0737  -56.8275 H         1 UNK         0.3000 
    241 H241       -1.0158  -17.7706  -56.5818 H         1 UNK         0.0600 
    242 H242       -1.9018  -14.2442  -55.2255 H         1 UNK         0.3800 
    243 H243       -3.0203  -15.4525  -55.7994 H         1 UNK         0.3800 
    244 H244       -0.9509  -18.3013  -53.5949 H         1 UNK         0.0800 
    245 H245       -1.3684  -19.5961  -54.6774 H         1 UNK         0.0800 
    246 H246        2.3049  -20.5152  -53.7488 H         1 UNK         0.0800 
    247 H247        0.6139  -20.8118  -53.4326 H         1 UNK         0.0800 
@<TRIPOS>BOND
     1    1    2 1    
     2    1  127 1    
     3    1  128 1    
     4    1  129 1    
     5    2    3 2    
     6    2    4 am   BACKBONE|DICT|INTERRES
     7    4    5 1    
     8    4  130 1    
     9    5    6 1    
    10    5   65 1    
    11    5  131 1    
    12    6    7 1    
    13    6  132 1    
    14    6  133 1    
    15    7    8 1    
    16    8    9 1    
    17    8  134 1    
    18    8  135 1    
    19    9   10 ar   
    20    9   14 ar   
    21   10   11 ar   
    22   10  136 1    
    23   11   12 ar   
    24   11  126 1    
    25   12   13 ar   
    26   12  137 1    
    27   13   14 ar   
    28   13   15 1    
    29   14  138 1    
    30   15   16 1    
    31   15  139 1    
    32   15  140 1    
    33   16   17 1    
    34   17   18 1    
    35   17  141 1    
    36   17  142 1    
    37   18   19 1    
    38   18   67 1    
    39   18  143 1    
    40   19   20 am   BACKBONE|DICT|INTERRES
    41   19  144 1    
    42   20   21 2    
    43   20   22 1    
    44   22   23 1    
    45   22   24 1    
    46   22  145 1    
    47   23  146 1    
    48   23  147 1    
    49   23  148 1    
    50   24   25 am   BACKBONE|DICT|INTERRES
    51   24  149 1    
    52   25   26 2    
    53   25   27 1    
    54   27   28 1    
    55   27   29 1    
    56   27  150 1    
    57   28  151 1    
    58   28  152 1    
    59   28  153 1    
    60   29   30 am   BACKBONE|DICT|INTERRES
    61   29  154 1    
    62   30   31 2    
    63   30   32 1    
    64   32   33 1    
    65   32   34 1    
    66   32  155 1    
    67   33  156 1    
    68   33  157 1    
    69   33  158 1    
    70   34   35 am   BACKBONE|DICT|INTERRES
    71   34  159 1    
    72   35   36 2    
    73   35   37 1    
    74   37   38 1    
    75   37   39 1    
    76   37  160 1    
    77   38  161 1    
    78   38  162 1    
    79   38  163 1    
    80   39   40 am   BACKBONE|DICT|INTERRES
    81   39  164 1    
    82   40   41 2    
    83   40   42 1    
    84   42   43 1    
    85   42   44 1    
    86   42  165 1    
    87   43  166 1    
    88   43  167 1    
    89   43  168 1    
    90   44   45 am   BACKBONE|DICT|INTERRES
    91   44  169 1    
    92   45   46 2    
    93   45   47 1    
    94   47   48 1    
    95   47   49 1    
    96   47  170 1    
    97   48  171 1    
    98   48  172 1    
    99   48  173 1    
   100   49   50 am   BACKBONE|DICT|INTERRES
   101   49  174 1    
   102   50   51 2    
   103   50   52 1    
   104   52   53 1    
   105   52   54 1    
   106   52  175 1    
   107   53  176 1    
   108   53  177 1    
   109   53  178 1    
   110   54   55 am   BACKBONE|DICT|INTERRES
   111   54  179 1    
   112   55   56 2    
   113   55   57 1    
   114   57   58 1    
   115   57   59 1    
   116   57  180 1    
   117   58  181 1    
   118   58  182 1    
   119   58  183 1    
   120   59   60 am   BACKBONE|DICT|INTERRES
   121   59  184 1    
   122   60   61 2    
   123   60   62 1    
   124   62   63 1    
   125   62   64 1    
   126   62  185 1    
   127   63  186 1    
   128   63  187 1    
   129   63  188 1    
   130   64   65 am   BACKBONE|DICT|INTERRES
   131   64  189 1    
   132   65   66 2    
   133   67   68 2    
   134   67   69 am   BACKBONE|DICT|INTERRES
   135   69   70 1    
   136   69  190 1    
   137   70   71 1    
   138   70   72 1    
   139   70  191 1    
   140   71  192 1    
   141   71  193 1    
   142   71  194 1    
   143   72   73 2    
   144   72   74 am   BACKBONE|DICT|INTERRES
   145   74   75 1    
   146   74  195 1    
   147   75   76 1    
   148   75   77 1    
   149   75  196 1    
   150   76  197 1    
   151   76  198 1    
   152   76  199 1    
   153   77   78 2    
   154   77   79 am   BACKBONE|DICT|INTERRES
   155   79   80 1    
   156   79  200 1    
   157   80   81 1    
   158   80   82 1    
   159   80  201 1    
   160   81  202 1    
   161   81  203 1    
   162   81  204 1    
   163   82   83 2    
   164   82   84 am   BACKBONE|DICT|INTERRES
   165   84   85 1    
   166   84  205 1    
   167   85   86 1    
   168   85   87 1    
   169   85  206 1    
   170   86  207 1    
   171   86  208 1    
   172   86  209 1    
   173   87   88 2    
   174   87   89 am   BACKBONE|DICT|INTERRES
   175   89   90 1    
   176   89  210 1    
   177   90   91 1    
   178   90   92 1    
   179   90  211 1    
   180   91  212 1    
   181   91  213 1    
   182   91  214 1    
   183   92   93 2    
   184   92   94 am   BACKBONE|DICT|INTERRES
   185   94   95 1    
   186   94  215 1    
   187   95   96 1    
   188   95   97 1    
   189   95  216 1    
   190   96  217 1    
   191   96  218 1    
   192   96  219 1    
   193   97   98 2    
   194   97   99 am   BACKBONE|DICT|INTERRES
   195   99  100 1    
   196   99  220 1    
   197  100  101 1    
   198  100  102 1    
   199  100  221 1    
   200  101  222 1    
   201  101  223 1    
   202  101  224 1    
   203  102  103 2    
   204  102  104 am   BACKBONE|DICT|INTERRES
   205  104  105 1    
   206  104  225 1    
   207  105  106 1    
   208  105  107 1    
   209  105  226 1    
   210  106  227 1    
   211  106  228 1    
   212  106  229 1    
   213  107  108 2    
   214  107  109 am   BACKBONE|DICT|INTERRES
   215  109  110 1    
   216  109  230 1    
   217  110  111 1    
   218  110  112 1    
   219  110  231 1    
   220  111  232 1    
   221  111  233 1    
   222  111  234 1    
   223  112  113 2    
   224  112  114 am   BACKBONE|DICT|INTERRES
   225  114  115 1    
   226  114  235 1    
   227  115  116 1    
   228  115  117 1    
   229  115  236 1    
   230  116  237 1    
   231  116  238 1    
   232  116  239 1    
   233  117  118 2    
   234  117  119 am   BACKBONE|DICT|INTERRES
   235  119  120 1    
   236  119  240 1    
   237  120  121 1    
   238  120  124 1    
   239  120  241 1    
   240  121  122 am   BACKBONE|DICT|INTERRES
   241  121  123 2    
   242  122  242 1    
   243  122  243 1    
   244  124  125 1    
   245  124  244 1    
   246  124  245 1    
   247  125  126 1    
   248  126  246 1    
   249  126  247 1    
@<TRIPOS>SUBSTRUCTURE
     1 UNK         1 GROUP             0       ****    0 ROOT    
