@<TRIPOS>MOLECULE
3R540
247   249    1
SMALL
USER_CHARGES


@<TRIPOS>ATOM
      1 CA         -1.3515  -13.4504  -49.6896 C.3       0 UNK        -0.1800 
      2 C           0.1612  -13.6154  -49.6923 C.2       0 UNK         0.5000 
      3 O           0.8668  -12.8045  -50.2912 O.2       0 UNK        -0.5000 
      4 N           0.6615  -14.6599  -49.0185 N.am      1 UNK        -0.5000 
      5 CA          2.0919  -14.9822  -48.8989 C.3       1 UNK         0.1400 
      6 C6          2.2848  -16.4481  -48.4299 C.3       23 UNK        -0.0398 
      7 S7          3.7941  -17.2370  -49.0853 S.3       23 UNK        -0.2404 
      8 C8          3.3280  -17.6024  -50.8114 C.3       23 UNK        -0.0205 
      9 C9          2.1863  -18.6030  -50.9095 C.ar      23 UNK        -0.0193 
     10 C10         0.8727  -18.1563  -51.0707 C.ar      23 UNK        -0.1150 
     11 C11        -0.1866  -19.0653  -51.1332 C.ar      23 UNK        -0.0193 
     12 C12         0.0871  -20.4364  -51.0929 C.ar      23 UNK        -0.1150 
     13 C13         1.4011  -20.9018  -50.9524 C.ar      23 UNK        -0.0193 
     14 C14         2.4431  -19.9749  -50.8521 C.ar      23 UNK        -0.1150 
     15 C15         1.7312  -22.3940  -50.9503 C.3       23 UNK        -0.0205 
     16 S16         0.5129  -23.4415  -50.0880 S.3       23 UNK        -0.2404 
     17 C17         0.5773  -22.7669  -48.3941 C.3       23 UNK        -0.0398 
     18 CA          0.4274  -23.8685  -47.3179 C.3       11 UNK         0.1400 
     19 N           0.9895  -23.4480  -46.0327 N.am      11 UNK        -0.5000 
     20 C           1.2576  -24.2682  -45.0079 C.2       10 UNK         0.5000 
     21 O           1.0828  -25.4849  -45.0438 O.2       10 UNK        -0.5000 
     22 CA          1.7570  -23.6065  -43.7106 C.3       10 UNK         0.1400 
     23 CB          3.2587  -23.2974  -43.7998 C.3       10 UNK        -0.1800 
     24 N           1.0254  -22.3773  -43.4027 N.am      10 UNK        -0.5000 
     25 C          -0.2708  -22.3388  -43.0618 C.2       9 UNK         0.5000 
     26 O          -0.9633  -23.3446  -42.9041 O.2       9 UNK        -0.5000 
     27 CA         -0.9130  -20.9430  -42.9306 C.3       9 UNK         0.1400 
     28 CB         -0.7421  -20.4019  -41.5040 C.3       9 UNK        -0.1800 
     29 N          -0.3883  -19.9594  -43.8826 N.am      9 UNK        -0.5000 
     30 C          -0.4041  -20.0843  -45.2187 C.2       8 UNK         0.5000 
     31 O          -0.8761  -21.0591  -45.7993 O.2       8 UNK        -0.5000 
     32 CA          0.2211  -18.9582  -46.0604 C.3       8 UNK         0.1400 
     33 CB         -0.8621  -18.2605  -46.8949 C.3       8 UNK        -0.1800 
     34 N           0.9435  -17.9725  -45.2530 N.am      8 UNK        -0.5000 
     35 C           2.1717  -18.1701  -44.7482 C.2       7 UNK         0.5000 
     36 O           2.8079  -19.2109  -44.9162 O.2       7 UNK        -0.5000 
     37 CA          2.7962  -17.0387  -43.9066 C.3       7 UNK         0.1400 
     38 CB          3.9369  -16.3532  -44.6738 C.3       7 UNK        -0.1800 
     39 N           1.8295  -16.0247  -43.4798 N.am      7 UNK        -0.5000 
     40 C           0.9621  -16.1848  -42.4718 C.2       6 UNK         0.5000 
     41 O           0.8904  -17.2079  -41.7905 O.2       6 UNK        -0.5000 
     42 CA         -0.0153  -15.0215  -42.2096 C.3       6 UNK         0.1400 
     43 CB          0.6221  -13.9866  -41.2711 C.3       6 UNK        -0.1800 
     44 N          -0.4985  -14.3433  -43.4193 N.am      6 UNK        -0.5000 
     45 C          -1.1538  -14.9443  -44.4261 C.2       5 UNK         0.5000 
     46 O          -1.3071  -16.1630  -44.4904 O.2       5 UNK        -0.5000 
     47 CA         -1.7098  -14.0486  -45.5554 C.3       5 UNK         0.1400 
     48 CB         -2.8984  -14.6876  -46.3032 C.3       5 UNK        -0.1800 
     49 N          -2.0349  -12.6894  -45.1137 N.am      5 UNK        -0.5000 
     50 C          -2.9248  -12.3205  -44.1768 C.2       4 UNK         0.5000 
     51 O          -3.6848  -13.1080  -43.6114 O.2       4 UNK        -0.5000 
     52 CA         -2.9604  -10.8199  -43.7957 C.3       4 UNK         0.1400 
     53 CB         -3.2915  -10.6036  -42.3039 C.3       4 UNK        -0.1800 
     54 N          -1.7456  -10.0771  -44.1648 N.am      4 UNK        -0.5000 
     55 C          -0.4940  -10.3218  -43.7512 C.2       3 UNK         0.5000 
     56 O          -0.1884  -11.2089  -42.9507 O.2       3 UNK        -0.5000 
     57 CA          0.6167   -9.4848  -44.4142 C.3       3 UNK         0.1400 
     58 CB          1.2603   -8.5307  -43.3969 C.3       3 UNK        -0.1800 
     59 N           1.6535  -10.3390  -44.9998 N.am      3 UNK        -0.5000 
     60 C           1.4361  -11.3008  -45.9071 C.2       2 UNK         0.5000 
     61 O           0.3341  -11.5159  -46.4244 O.2       2 UNK        -0.5000 
     62 CA          2.6344  -12.1905  -46.2756 C.3       2 UNK         0.1400 
     63 CB          3.3065  -12.8008  -45.0296 C.3       2 UNK        -0.1800 
     64 N           2.1488  -13.2470  -47.1558 N.am      2 UNK        -0.5000 
     65 C           2.8709  -13.9861  -48.0039 C.2       1 UNK         0.5000 
     66 O           4.0951  -13.9004  -48.1038 O.2       1 UNK        -0.5000 
     67 C          -1.0374  -24.3311  -47.1690 C.2       11 UNK         0.5000 
     68 O          -1.4325  -25.3138  -47.7965 O.2       11 UNK        -0.5000 
     69 N          -1.8107  -23.6429  -46.3177 N.am      12 UNK        -0.5000 
     70 CA         -3.1802  -23.9995  -45.9455 C.3       12 UNK         0.1400 
     71 CB         -3.7872  -22.8967  -45.0672 C.3       12 UNK        -0.1800 
     72 C          -3.2654  -25.3717  -45.2558 C.2       12 UNK         0.5000 
     73 O          -4.1645  -26.1510  -45.5695 O.2       12 UNK        -0.5000 
     74 N          -2.3070  -25.6595  -44.3664 N.am      13 UNK        -0.5000 
     75 CA         -2.1666  -26.9566  -43.7094 C.3       13 UNK         0.1400 
     76 CB         -1.2023  -26.8236  -42.5204 C.3       13 UNK        -0.1800 
     77 C          -1.6999  -28.0634  -44.6748 C.2       13 UNK         0.5000 
     78 O          -2.2552  -29.1624  -44.6491 O.2       13 UNK        -0.5000 
     79 N          -0.6800  -27.7638  -45.4904 N.am      14 UNK        -0.5000 
     80 CA         -0.0100  -28.7368  -46.3524 C.3       14 UNK         0.1400 
     81 CB          1.3910  -28.2165  -46.7107 C.3       14 UNK        -0.1800 
     82 C          -0.7825  -29.0891  -47.6352 C.2       14 UNK         0.5000 
     83 O          -0.8067  -30.2620  -48.0120 O.2       14 UNK        -0.5000 
     84 N          -1.3468  -28.0795  -48.3101 N.am      15 UNK        -0.5000 
     85 CA         -1.8220  -28.1869  -49.6932 C.3       15 UNK         0.1400 
     86 CB         -0.7255  -27.6327  -50.6226 C.3       15 UNK        -0.1800 
     87 C          -3.1683  -27.4832  -49.9421 C.2       15 UNK         0.5000 
     88 O          -3.5877  -27.4011  -51.0971 O.2       15 UNK        -0.5000 
     89 N          -3.8216  -26.9876  -48.8801 N.am      16 UNK        -0.5000 
     90 CA         -5.0655  -26.2040  -48.9058 C.3       16 UNK         0.1400 
     91 CB         -6.2442  -27.0298  -49.4648 C.3       16 UNK        -0.1800 
     92 C          -4.9078  -24.8259  -49.5890 C.2       16 UNK         0.5000 
     93 O          -5.8754  -24.2975  -50.1397 O.2       16 UNK        -0.5000 
     94 N          -3.6961  -24.2576  -49.4995 N.am      17 UNK        -0.5000 
     95 CA         -3.2837  -22.9483  -50.0105 C.3       17 UNK         0.1400 
     96 CB         -4.0052  -21.8088  -49.2541 C.3       17 UNK        -0.1800 
     97 C          -3.3717  -22.8481  -51.5499 C.2       17 UNK         0.5000 
     98 O          -3.1561  -23.8440  -52.2433 O.2       17 UNK        -0.5000 
     99 N          -3.6470  -21.6429  -52.0585 N.am      18 UNK        -0.5000 
    100 CA        -3.7505  -21.3177  -53.4747 C.3       18 UNK         0.1400 
    101 CB        -2.3501  -21.1413  -54.0940 C.3       18 UNK        -0.1800 
    102 C         -4.5954  -20.0448  -53.5824 C.2       18 UNK         0.5000 
    103 O         -4.0624  -18.9408  -53.4492 O.2       18 UNK        -0.5000 
    104 N         -5.9085  -20.2139  -53.7813 N.am      19 UNK        -0.5000 
    105 CA        -6.9052  -19.1361  -53.8260 C.3       19 UNK         0.1400 
    106 CB        -8.3038  -19.7535  -53.9737 C.3       19 UNK        -0.1800 
    107 C         -6.6634  -18.0818  -54.9256 C.2       19 UNK         0.5000 
    108 O         -7.0911  -16.9383  -54.7714 O.2       19 UNK        -0.5000 
    109 N         -5.9494  -18.4655  -55.9921 N.am      20 UNK        -0.5000 
    110 CA        -5.5158  -17.5782  -57.0722 C.3       20 UNK         0.1400 
    111 CB        -4.9329  -18.4317  -58.2091 C.3       20 UNK        -0.1800 
    112 C         -4.4962  -16.5077  -56.6276 C.2       20 UNK         0.5000 
    113 O         -4.4106  -15.4636  -57.2756 O.2       20 UNK        -0.5000 
    114 N         -3.7474  -16.7800  -55.5493 N.am      21 UNK        -0.5000 
    115 CA        -2.7380  -15.8824  -54.9876 C.3       21 UNK         0.1400 
    116 CB        -1.3912  -16.6206  -54.9160 C.3       21 UNK        -0.1800 
    117 C         -3.1533  -15.3480  -53.6066 C.2       21 UNK         0.5000 
    118 O         -2.9695  -14.1586  -53.3452 O.2       21 UNK        -0.5000 
    119 N         -3.7063  -16.2191  -52.7531 N.am      22 UNK        -0.5000 
    120 CA        -4.1292  -15.8895  -51.3807 C.3       22 UNK         0.1400 
    121 C         -5.6028  -15.4035  -51.2614 C.2       22 UNK         0.5000 
    122 N         -6.4109  -15.4183  -52.3130 N.am      22 UNK        -0.7600 
    123 O         -6.0222  -14.9817  -50.1874 O.2       22 UNK        -0.5000 
    124 C124       -3.8391  -17.0586  -50.4040 C.3       23 UNK        -0.0398 
    125 S125       -2.0553  -17.2709  -50.0846 S.3       23 UNK        -0.2404 
    126 C126       -1.6214  -18.5755  -51.2774 C.3       23 UNK        -0.0205 
    127 H127       -1.8507  -14.2928  -49.2111 H         1 UNK         0.0600 
    128 H128       -1.6282  -12.5420  -49.1544 H         1 UNK         0.0600 
    129 H129       -1.7214  -13.3731  -50.7121 H         1 UNK         0.0600 
    130 H130        0.0235  -15.3066  -48.5788 H         1 UNK         0.3000 
    131 H131        2.5109  -14.8829  -49.9019 H         1 UNK         0.0600 
    132 H132        2.3000  -16.5150  -47.3429 H         1 UNK         0.0800 
    133 H133        1.4388  -17.0650  -48.7252 H         1 UNK         0.0800 
    134 H134        3.0683  -16.6779  -51.3284 H         1 UNK         0.0800 
    135 H135        4.2018  -17.9982  -51.3310 H         1 UNK         0.0800 
    136 H136        0.6705  -17.0957  -51.1253 H         1 UNK         0.1150 
    137 H137       -0.7246  -21.1432  -51.1810 H         1 UNK         0.1150 
    138 H138        3.4619  -20.3193  -50.7416 H         1 UNK         0.1150 
    139 H139        1.8034  -22.7295  -51.9855 H         1 UNK         0.0800 
    140 H140        2.7109  -22.5675  -50.5023 H         1 UNK         0.0800 
    141 H141       -0.1795  -21.9876  -48.2856 H         1 UNK         0.0800 
    142 H142        1.5387  -22.2662  -48.2711 H         1 UNK         0.0800 
    143 H143        1.0069  -24.7363  -47.6408 H         1 UNK         0.0600 
    144 H144        1.0939  -22.4544  -45.8916 H         1 UNK         0.3000 
    145 H145        1.6005  -24.3136  -42.8931 H         1 UNK         0.0600 
    146 H146        3.6357  -22.9027  -42.8562 H         1 UNK         0.0600 
    147 H147        3.8299  -24.1989  -44.0257 H         1 UNK         0.0600 
    148 H148        3.4760  -22.5658  -44.5794 H         1 UNK         0.0600 
    149 H149        1.5214  -21.5052  -43.5189 H         1 UNK         0.3000 
    150 H150       -1.9807  -21.0511  -43.1283 H         1 UNK         0.0600 
    151 H151       -1.1428  -21.1014  -40.7690 H         1 UNK         0.0600 
    152 H152       -1.2703  -19.4569  -41.3747 H         1 UNK         0.0600 
    153 H153        0.3077  -20.2329  -41.2607 H         1 UNK         0.0600 
    154 H154        0.0052  -19.1165  -43.4885 H         1 UNK         0.3000 
    155 H155        0.9279  -19.4187  -46.7544 H         1 UNK         0.0600 
    156 H156       -0.4808  -17.3707  -47.3924 H         1 UNK         0.0600 
    157 H157       -1.7170  -17.9645  -46.2873 H         1 UNK         0.0600 
    158 H158       -1.2379  -18.9320  -47.6679 H         1 UNK         0.0600 
    159 H159        0.4241  -17.1397  -44.9989 H         1 UNK         0.3000 
    160 H160        3.2270  -17.5045  -43.0176 H         1 UNK         0.0600 
    161 H161        3.5731  -15.8152  -45.5478 H         1 UNK         0.0600 
    162 H162        4.6721  -17.0809  -45.0202 H         1 UNK         0.0600 
    163 H163        4.4638  -15.6417  -44.0379 H         1 UNK         0.0600 
    164 H164        1.8141  -15.1578  -43.9944 H         1 UNK         0.3000 
    165 H165       -0.8878  -15.4424  -41.7059 H         1 UNK         0.0600 
    166 H166        1.4620  -13.4771  -41.7452 H         1 UNK         0.0600 
    167 H167       -0.1022  -13.2285  -40.9724 H         1 UNK         0.0600 
    168 H168        0.9927  -14.4572  -40.3595 H         1 UNK         0.0600 
    169 H169       -0.4258  -13.3320  -43.4212 H         1 UNK         0.3000 
    170 H170       -0.8978  -13.9443  -46.2749 H         1 UNK         0.0600 
    171 H171       -2.6031  -15.6184  -46.7886 H         1 UNK         0.0600 
    172 H172       -3.7232  -14.9192  -45.6289 H         1 UNK         0.0600 
    173 H173       -3.2780  -14.0255  -47.0813 H         1 UNK         0.0600 
    174 H174       -1.4406  -11.9684  -45.5101 H         1 UNK         0.3000 
    175 H175       -3.7718  -10.3836  -44.3797 H         1 UNK         0.0600 
    176 H176       -3.3160   -9.5427  -42.0550 H         1 UNK         0.0600 
    177 H177       -4.2703  -11.0151  -42.0549 H         1 UNK         0.0600 
    178 H178       -2.5609  -11.0844  -41.6528 H         1 UNK         0.0600 
    179 H179       -1.8842   -9.3479  -44.8512 H         1 UNK         0.3000 
    180 H180        0.1839   -8.8888  -45.2202 H         1 UNK         0.0600 
    181 H181        1.7385   -9.0751  -42.5814 H         1 UNK         0.0600 
    182 H182        0.5132   -7.8693  -42.9561 H         1 UNK         0.0600 
    183 H183        2.0143   -7.8999  -43.8682 H         1 UNK         0.0600 
    184 H184        2.5787  -10.2416  -44.6086 H         1 UNK         0.3000 
    185 H185        3.3540  -11.5745  -46.8185 H         1 UNK         0.0600 
    186 H186        4.1405  -13.4446  -45.3070 H         1 UNK         0.0600 
    187 H187        3.7139  -12.0293  -44.3760 H         1 UNK         0.0600 
    188 H188        2.6025  -13.3895  -44.4421 H         1 UNK         0.0600 
    189 H189        1.1396  -13.2861  -47.2146 H         1 UNK         0.3000 
    190 H190       -1.4336  -22.7906  -45.9089 H         1 UNK         0.3000 
    191 H191       -3.7721  -24.0537  -46.8572 H         1 UNK         0.0600 
    192 H192       -3.7212  -21.9222  -45.5516 H         1 UNK         0.0600 
    193 H193       -4.8419  -23.0938  -44.8723 H         1 UNK         0.0600 
    194 H194       -3.2865  -22.8267  -44.1026 H         1 UNK         0.0600 
    195 H195       -1.6316  -24.9438  -44.1227 H         1 UNK         0.3000 
    196 H196       -3.1436  -27.2471  -43.3171 H         1 UNK         0.0600 
    197 H197       -1.0932  -27.7744  -41.9973 H         1 UNK         0.0600 
    198 H198       -1.5681  -26.0940  -41.7976 H         1 UNK         0.0600 
    199 H199       -0.2085  -26.5068  -42.8379 H         1 UNK         0.0600 
    200 H200       -0.2410  -26.8507  -45.4135 H         1 UNK         0.3000 
    201 H201        0.1197  -29.6608  -45.7846 H         1 UNK         0.0600 
    202 H202        1.9922  -28.0554  -45.8158 H         1 UNK         0.0600 
    203 H203        1.3425  -27.2730  -47.2558 H         1 UNK         0.0600 
    204 H204        1.9268  -28.9308  -47.3372 H         1 UNK         0.0600 
    205 H205       -1.2856  -27.1328  -47.9402 H         1 UNK         0.3000 
    206 H206       -1.9903  -29.2335  -49.9540 H         1 UNK         0.0600 
    207 H207        0.2137  -28.1700  -50.4903 H         1 UNK         0.0600 
    208 H208       -1.0060  -27.7295  -51.6721 H         1 UNK         0.0600 
    209 H209       -0.5368  -26.5758  -50.4281 H         1 UNK         0.0600 
    210 H210       -3.4010  -27.1090  -47.9689 H         1 UNK         0.3000 
    211 H211       -5.3058  -25.9845  -47.8666 H         1 UNK         0.0600 
    212 H212       -6.3212  -27.9955  -48.9654 H         1 UNK         0.0600 
    213 H213       -6.1463  -27.2104  -50.5353 H         1 UNK         0.0600 
    214 H214       -7.1907  -26.5105  -49.3102 H         1 UNK         0.0600 
    215 H215       -2.9596  -24.7989  -49.0595 H         1 UNK         0.3000 
    216 H216       -2.2270  -22.8615  -49.7690 H         1 UNK         0.0600 
    217 H217       -3.9308  -21.9474  -48.1759 H         1 UNK         0.0600 
    218 H218       -5.0642  -21.7561  -49.5089 H         1 UNK         0.0600 
    219 H219       -3.5590  -20.8380  -49.4717 H         1 UNK         0.0600 
    220 H220       -3.8597  -20.8840  -51.4271 H         1 UNK         0.3000 
    221 H221       -4.2664  -22.1249  -53.9991 H         1 UNK         0.0600 
    222 H222       -1.7705  -20.3728  -53.5832 H         1 UNK         0.0600 
    223 H223       -1.7789  -22.0686  -54.0518 H         1 UNK         0.0600 
    224 H224       -2.4226  -20.8525  -55.1431 H         1 UNK         0.0600 
    225 H225       -6.2691  -21.1539  -53.8631 H         1 UNK         0.3000 
    226 H226       -6.8631  -18.6128  -52.8683 H         1 UNK         0.0600 
    227 H227       -8.5290  -20.4246  -53.1446 H         1 UNK         0.0600 
    228 H228       -9.0739  -18.9808  -53.9817 H         1 UNK         0.0600 
    229 H229       -8.3971  -20.3200  -54.9011 H         1 UNK         0.0600 
    230 H230       -5.6435  -19.4257  -56.0422 H         1 UNK         0.3000 
    231 H231       -6.3957  -17.0550  -57.4526 H         1 UNK         0.0600 
    232 H232       -5.6688  -19.1412  -58.5879 H         1 UNK         0.0600 
    233 H233       -4.0586  -18.9954  -57.8810 H         1 UNK         0.0600 
    234 H234       -4.6245  -17.8069  -59.0485 H         1 UNK         0.0600 
    235 H235       -3.9036  -17.6498  -55.0537 H         1 UNK         0.3000 
    236 H236       -2.5969  -15.0114  -55.6309 H         1 UNK         0.0600 
    237 H237       -0.9927  -16.7949  -55.9154 H         1 UNK         0.0600 
    238 H238       -0.6482  -16.0410  -54.3664 H         1 UNK         0.0600 
    239 H239       -1.4846  -17.5905  -54.4293 H         1 UNK         0.0600 
    240 H240       -3.8265  -17.1890  -53.0329 H         1 UNK         0.3000 
    241 H241       -3.5388  -15.0394  -51.0359 H         1 UNK         0.0600 
    242 H242       -6.1177  -15.7790  -53.2099 H         1 UNK         0.3800 
    243 H243       -7.3563  -15.0872  -52.2056 H         1 UNK         0.3800 
    244 H244       -4.3000  -16.8755  -49.4316 H         1 UNK         0.0800 
    245 H245       -4.2744  -17.9894  -50.7702 H         1 UNK         0.0800 
    246 H246       -1.7598  -18.1961  -52.2866 H         1 UNK         0.0800 
    247 H247       -2.3162  -19.4034  -51.1518 H         1 UNK         0.0800 
@<TRIPOS>BOND
     1    1    2 1    
     2    1  127 1    
     3    1  128 1    
     4    1  129 1    
     5    2    3 2    
     6    2    4 am   BACKBONE|DICT|INTERRES
     7    4    5 1    
     8    4  130 1    
     9    5    6 1    
    10    5   65 1    
    11    5  131 1    
    12    6    7 1    
    13    6  132 1    
    14    6  133 1    
    15    7    8 1    
    16    8    9 1    
    17    8  134 1    
    18    8  135 1    
    19    9   10 ar   
    20    9   14 ar   
    21   10   11 ar   
    22   10  136 1    
    23   11   12 ar   
    24   11  126 1    
    25   12   13 ar   
    26   12  137 1    
    27   13   14 ar   
    28   13   15 1    
    29   14  138 1    
    30   15   16 1    
    31   15  139 1    
    32   15  140 1    
    33   16   17 1    
    34   17   18 1    
    35   17  141 1    
    36   17  142 1    
    37   18   19 1    
    38   18   67 1    
    39   18  143 1    
    40   19   20 am   BACKBONE|DICT|INTERRES
    41   19  144 1    
    42   20   21 2    
    43   20   22 1    
    44   22   23 1    
    45   22   24 1    
    46   22  145 1    
    47   23  146 1    
    48   23  147 1    
    49   23  148 1    
    50   24   25 am   BACKBONE|DICT|INTERRES
    51   24  149 1    
    52   25   26 2    
    53   25   27 1    
    54   27   28 1    
    55   27   29 1    
    56   27  150 1    
    57   28  151 1    
    58   28  152 1    
    59   28  153 1    
    60   29   30 am   BACKBONE|DICT|INTERRES
    61   29  154 1    
    62   30   31 2    
    63   30   32 1    
    64   32   33 1    
    65   32   34 1    
    66   32  155 1    
    67   33  156 1    
    68   33  157 1    
    69   33  158 1    
    70   34   35 am   BACKBONE|DICT|INTERRES
    71   34  159 1    
    72   35   36 2    
    73   35   37 1    
    74   37   38 1    
    75   37   39 1    
    76   37  160 1    
    77   38  161 1    
    78   38  162 1    
    79   38  163 1    
    80   39   40 am   BACKBONE|DICT|INTERRES
    81   39  164 1    
    82   40   41 2    
    83   40   42 1    
    84   42   43 1    
    85   42   44 1    
    86   42  165 1    
    87   43  166 1    
    88   43  167 1    
    89   43  168 1    
    90   44   45 am   BACKBONE|DICT|INTERRES
    91   44  169 1    
    92   45   46 2    
    93   45   47 1    
    94   47   48 1    
    95   47   49 1    
    96   47  170 1    
    97   48  171 1    
    98   48  172 1    
    99   48  173 1    
   100   49   50 am   BACKBONE|DICT|INTERRES
   101   49  174 1    
   102   50   51 2    
   103   50   52 1    
   104   52   53 1    
   105   52   54 1    
   106   52  175 1    
   107   53  176 1    
   108   53  177 1    
   109   53  178 1    
   110   54   55 am   BACKBONE|DICT|INTERRES
   111   54  179 1    
   112   55   56 2    
   113   55   57 1    
   114   57   58 1    
   115   57   59 1    
   116   57  180 1    
   117   58  181 1    
   118   58  182 1    
   119   58  183 1    
   120   59   60 am   BACKBONE|DICT|INTERRES
   121   59  184 1    
   122   60   61 2    
   123   60   62 1    
   124   62   63 1    
   125   62   64 1    
   126   62  185 1    
   127   63  186 1    
   128   63  187 1    
   129   63  188 1    
   130   64   65 am   BACKBONE|DICT|INTERRES
   131   64  189 1    
   132   65   66 2    
   133   67   68 2    
   134   67   69 am   BACKBONE|DICT|INTERRES
   135   69   70 1    
   136   69  190 1    
   137   70   71 1    
   138   70   72 1    
   139   70  191 1    
   140   71  192 1    
   141   71  193 1    
   142   71  194 1    
   143   72   73 2    
   144   72   74 am   BACKBONE|DICT|INTERRES
   145   74   75 1    
   146   74  195 1    
   147   75   76 1    
   148   75   77 1    
   149   75  196 1    
   150   76  197 1    
   151   76  198 1    
   152   76  199 1    
   153   77   78 2    
   154   77   79 am   BACKBONE|DICT|INTERRES
   155   79   80 1    
   156   79  200 1    
   157   80   81 1    
   158   80   82 1    
   159   80  201 1    
   160   81  202 1    
   161   81  203 1    
   162   81  204 1    
   163   82   83 2    
   164   82   84 am   BACKBONE|DICT|INTERRES
   165   84   85 1    
   166   84  205 1    
   167   85   86 1    
   168   85   87 1    
   169   85  206 1    
   170   86  207 1    
   171   86  208 1    
   172   86  209 1    
   173   87   88 2    
   174   87   89 am   BACKBONE|DICT|INTERRES
   175   89   90 1    
   176   89  210 1    
   177   90   91 1    
   178   90   92 1    
   179   90  211 1    
   180   91  212 1    
   181   91  213 1    
   182   91  214 1    
   183   92   93 2    
   184   92   94 am   BACKBONE|DICT|INTERRES
   185   94   95 1    
   186   94  215 1    
   187   95   96 1    
   188   95   97 1    
   189   95  216 1    
   190   96  217 1    
   191   96  218 1    
   192   96  219 1    
   193   97   98 2    
   194   97   99 am   BACKBONE|DICT|INTERRES
   195   99  100 1    
   196   99  220 1    
   197  100  101 1    
   198  100  102 1    
   199  100  221 1    
   200  101  222 1    
   201  101  223 1    
   202  101  224 1    
   203  102  103 2    
   204  102  104 am   BACKBONE|DICT|INTERRES
   205  104  105 1    
   206  104  225 1    
   207  105  106 1    
   208  105  107 1    
   209  105  226 1    
   210  106  227 1    
   211  106  228 1    
   212  106  229 1    
   213  107  108 2    
   214  107  109 am   BACKBONE|DICT|INTERRES
   215  109  110 1    
   216  109  230 1    
   217  110  111 1    
   218  110  112 1    
   219  110  231 1    
   220  111  232 1    
   221  111  233 1    
   222  111  234 1    
   223  112  113 2    
   224  112  114 am   BACKBONE|DICT|INTERRES
   225  114  115 1    
   226  114  235 1    
   227  115  116 1    
   228  115  117 1    
   229  115  236 1    
   230  116  237 1    
   231  116  238 1    
   232  116  239 1    
   233  117  118 2    
   234  117  119 am   BACKBONE|DICT|INTERRES
   235  119  120 1    
   236  119  240 1    
   237  120  121 1    
   238  120  124 1    
   239  120  241 1    
   240  121  122 am   BACKBONE|DICT|INTERRES
   241  121  123 2    
   242  122  242 1    
   243  122  243 1    
   244  124  125 1    
   245  124  244 1    
   246  124  245 1    
   247  125  126 1    
   248  126  246 1    
   249  126  247 1    
@<TRIPOS>SUBSTRUCTURE
     1 UNK         1 GROUP             0       ****    0 ROOT    
