@<TRIPOS>MOLECULE
3R540
247   249    1
SMALL
USER_CHARGES


@<TRIPOS>ATOM
      1 CA          1.1553  -12.6657  -52.9309 C.3       0 UNK        -0.1800 
      2 C           1.2414  -13.3756  -51.5871 C.2       0 UNK         0.5000 
      3 O           2.2109  -14.0914  -51.3356 O.2       0 UNK        -0.5000 
      4 N           0.2288  -13.1856  -50.7319 N.am      1 UNK        -0.5000 
      5 CA          0.1476  -13.7695  -49.3904 C.3       1 UNK         0.1400 
      6 C6         -1.3060  -13.7242  -48.8500 C.3       23 UNK        -0.0398 
      7 S7         -1.6214  -14.9520  -47.5346 S.3       23 UNK        -0.2404 
      8 C8         -2.2827  -16.3781  -48.4603 C.3       23 UNK        -0.0205 
      9 C9         -1.2857  -16.8811  -49.4914 C.ar      23 UNK        -0.0193 
     10 C10        -1.5076  -16.6644  -50.8537 C.ar      23 UNK        -0.1150 
     11 C11        -0.5482  -17.0309  -51.8020 C.ar      23 UNK        -0.0193 
     12 C12         0.6396  -17.6338  -51.3671 C.ar      23 UNK        -0.1150 
     13 C13         0.8673  -17.8712  -50.0079 C.ar      23 UNK        -0.0193 
     14 C14        -0.1039  -17.4976  -49.0756 C.ar      23 UNK        -0.1150 
     15 C15         2.1879  -18.4747  -49.5512 C.3       23 UNK        -0.0205 
     16 S16         2.0622  -20.2659  -49.2563 S.3       23 UNK        -0.2404 
     17 C17         1.6173  -20.2915  -47.4873 C.3       23 UNK        -0.0398 
     18 CA          1.0137  -21.6304  -47.0100 C.3       11 UNK         0.1400 
     19 N           0.9613  -21.6897  -45.5492 N.am      11 UNK        -0.5000 
     20 C           0.6649  -22.7825  -44.8340 C.2       10 UNK         0.5000 
     21 O           0.4295  -23.8849  -45.3287 O.2       10 UNK        -0.5000 
     22 CA          0.5728  -22.5993  -43.3095 C.3       10 UNK         0.1400 
     23 CB          1.9735  -22.5492  -42.6816 C.3       10 UNK        -0.1800 
     24 N          -0.1847  -21.4052  -42.9293 N.am      10 UNK        -0.5000 
     25 C          -1.4821  -21.2146  -43.2114 C.2       9 UNK         0.5000 
     26 O          -2.1793  -22.0330  -43.8093 O.2       9 UNK        -0.5000 
     27 CA         -2.1029  -19.8735  -42.7882 C.3       9 UNK         0.1400 
     28 CB         -2.4107  -19.8681  -41.2835 C.3       9 UNK        -0.1800 
     29 N          -1.2649  -18.7245  -43.1262 N.am      9 UNK        -0.5000 
     30 C          -0.9171  -18.3706  -44.3721 C.2       8 UNK         0.5000 
     31 O          -1.2658  -18.9741  -45.3863 O.2       8 UNK        -0.5000 
     32 CA          0.0301  -17.1675  -44.5020 C.3       8 UNK         0.1400 
     33 CB         -0.7055  -15.8566  -44.1903 C.3       8 UNK        -0.1800 
     34 N           1.2016  -17.2863  -43.6366 N.am      8 UNK        -0.5000 
     35 C           2.0864  -18.2932  -43.6679 C.2       7 UNK         0.5000 
     36 O           2.0470  -19.2246  -44.4713 O.2       7 UNK        -0.5000 
     37 CA          3.1694  -18.2807  -42.5790 C.3       7 UNK         0.1400 
     38 CB          4.2953  -17.3020  -42.9432 C.3       7 UNK        -0.1800 
     39 N           2.6150  -17.9374  -41.2691 N.am      7 UNK        -0.5000 
     40 C           1.7718  -18.7182  -40.5776 C.2       6 UNK         0.5000 
     41 O           1.3902  -19.8246  -40.9591 O.2       6 UNK        -0.5000 
     42 CA          1.2326  -18.1440  -39.2559 C.3       6 UNK         0.1400 
     43 CB          2.2655  -18.3028  -38.1302 C.3       6 UNK        -0.1800 
     44 N           0.8514  -16.7362  -39.3741 N.am      6 UNK        -0.5000 
     45 C          -0.1658  -16.2919  -40.1252 C.2       5 UNK         0.5000 
     46 O          -0.9045  -17.0262  -40.7800 O.2       5 UNK        -0.5000 
     47 CA         -0.3695  -14.7675  -40.1839 C.3       5 UNK         0.1400 
     48 CB         -1.2438  -14.2956  -39.0126 C.3       5 UNK        -0.1800 
     49 N           0.8814  -14.0045  -40.1944 N.am      5 UNK        -0.5000 
     50 C           1.8221  -14.0892  -41.1438 C.2       4 UNK         0.5000 
     51 O           1.7825  -14.8830  -42.0869 O.2       4 UNK        -0.5000 
     52 CA          3.0201  -13.1376  -41.0098 C.3       4 UNK         0.1400 
     53 CB          4.3180  -13.9185  -40.7521 C.3       4 UNK        -0.1800 
     54 N           3.1615  -12.3506  -42.2309 N.am      4 UNK        -0.5000 
     55 C           2.4322  -11.2646  -42.5212 C.2       3 UNK         0.5000 
     56 O           1.6242  -10.7554  -41.7434 O.2       3 UNK        -0.5000 
     57 CA          2.6380  -10.6430  -43.9157 C.3       3 UNK         0.1400 
     58 CB          3.7445   -9.5778  -43.8730 C.3       3 UNK        -0.1800 
     59 N           2.9691  -11.6402  -44.9364 N.am      3 UNK        -0.5000 
     60 C           2.0857  -12.4977  -45.4634 C.2       2 UNK         0.5000 
     61 O           0.8900  -12.5223  -45.1634 O.2       2 UNK        -0.5000 
     62 CA          2.6529  -13.5164  -46.4702 C.3       2 UNK         0.1400 
     63 CB          3.1458  -14.7724  -45.7336 C.3       2 UNK        -0.1800 
     64 N           1.6749  -13.9182  -47.4809 N.am      2 UNK        -0.5000 
     65 C           1.1635  -13.1181  -48.4256 C.2       1 UNK         0.5000 
     66 O           1.4667  -11.9287  -48.5581 O.2       1 UNK        -0.5000 
     67 C          -0.3673  -21.9121  -47.6372 C.2       11 UNK         0.5000 
     68 O          -0.4592  -22.7399  -48.5441 O.2       11 UNK        -0.5000 
     69 N          -1.4220  -21.2708  -47.1103 N.am      12 UNK        -0.5000 
     70 CA         -2.8050  -21.4798  -47.5368 C.3       12 UNK         0.1400 
     71 CB         -3.7334  -20.4761  -46.8395 C.3       12 UNK        -0.1800 
     72 C          -3.2912  -22.9210  -47.3103 C.2       12 UNK         0.5000 
     73 O          -3.9432  -23.4756  -48.1948 O.2       12 UNK        -0.5000 
     74 N          -2.9431  -23.5108  -46.1584 N.am      13 UNK        -0.5000 
     75 CA         -3.2318  -24.9037  -45.8188 C.3       13 UNK         0.1400 
     76 CB         -2.8798  -25.1690  -44.3474 C.3       13 UNK        -0.1800 
     77 C          -2.5090  -25.8969  -46.7445 C.2       13 UNK         0.5000 
     78 O          -3.1487  -26.8172  -47.2540 O.2       13 UNK        -0.5000 
     79 N          -1.2091  -25.6697  -46.9857 N.am      14 UNK        -0.5000 
     80 CA         -0.3760  -26.4684  -47.8904 C.3       14 UNK         0.1400 
     81 CB          1.0855  -26.0083  -47.7816 C.3       14 UNK        -0.1800 
     82 C          -0.8531  -26.4194  -49.3547 C.2       14 UNK         0.5000 
     83 O          -0.8032  -27.4357  -50.0481 O.2       14 UNK        -0.5000 
     84 N          -1.3427  -25.2491  -49.7815 N.am      15 UNK        -0.5000 
     85 CA         -1.9466  -25.0109  -51.0921 C.3       15 UNK         0.1400 
     86 CB         -1.8521  -23.5090  -51.4010 C.3       15 UNK        -0.1800 
     87 C          -3.4037  -25.5092  -51.2113 C.2       15 UNK         0.5000 
     88 O          -3.9681  -25.4117  -52.2991 O.2       15 UNK        -0.5000 
     89 N          -3.9868  -26.0258  -50.1182 N.am      16 UNK        -0.5000 
     90 CA         -5.3643  -26.5095  -49.9842 C.3       16 UNK         0.1400 
     91 CB         -5.6312  -27.7166  -50.9080 C.3       16 UNK        -0.1800 
     92 C          -6.3831  -25.3683  -50.1678 C.2       16 UNK         0.5000 
     93 O          -7.0146  -25.2503  -51.2195 O.2       16 UNK        -0.5000 
     94 N          -6.4858  -24.5281  -49.1294 N.am      17 UNK        -0.5000 
     95 CA         -7.3179  -23.3234  -49.0307 C.3       17 UNK         0.1400 
     96 CB         -8.8198  -23.6677  -49.1210 C.3       17 UNK        -0.1800 
     97 C          -6.8774  -22.2255  -50.0201 C.2       17 UNK         0.5000 
     98 O          -7.7176  -21.5576  -50.6238 O.2       17 UNK        -0.5000 
     99 N          -5.5518  -22.0745  -50.1601 N.am      18 UNK        -0.5000 
    100 CA        -4.8429  -21.1168  -51.0180 C.3       18 UNK         0.1400 
    101 CB        -5.1460  -19.6618  -50.6026 C.3       18 UNK        -0.1800 
    102 C         -5.0265  -21.3495  -52.5329 C.2       18 UNK         0.5000 
    103 O         -4.6850  -20.4621  -53.3150 O.2       18 UNK        -0.5000 
    104 N         -5.5220  -22.5319  -52.9312 N.am      19 UNK        -0.5000 
    105 CA        -5.7674  -22.9661  -54.3117 C.3       19 UNK         0.1400 
    106 CB        -4.4230  -23.2698  -55.0153 C.3       19 UNK        -0.1800 
    107 C         -6.6570  -21.9674  -55.0908 C.2       19 UNK         0.5000 
    108 O         -7.6451  -21.4730  -54.5439 O.2       19 UNK        -0.5000 
    109 N         -6.2776  -21.6626  -56.3370 N.am      20 UNK        -0.5000 
    110 CA        -6.8254  -20.5801  -57.1482 C.3       20 UNK         0.1400 
    111 CB        -7.0001  -21.0810  -58.5935 C.3       20 UNK        -0.1800 
    112 C         -5.8692  -19.3782  -57.0442 C.2       20 UNK         0.5000 
    113 O         -5.1484  -19.0771  -57.9980 O.2       20 UNK        -0.5000 
    114 N         -5.8316  -18.7627  -55.8519 N.am      21 UNK        -0.5000 
    115 CA        -4.9576  -17.6486  -55.4551 C.3       21 UNK         0.1400 
    116 CB        -5.3867  -16.3479  -56.1650 C.3       21 UNK        -0.1800 
    117 C         -3.4608  -17.9790  -55.6455 C.2       21 UNK         0.5000 
    118 O         -2.7216  -17.1982  -56.2455 O.2       21 UNK        -0.5000 
    119 N         -3.0810  -19.1680  -55.1615 N.am      22 UNK        -0.5000 
    120 CA        -1.7767  -19.8429  -55.2630 C.3       22 UNK         0.1400 
    121 C         -1.1967  -20.0552  -56.6968 C.2       22 UNK         0.5000 
    122 N         -1.9678  -19.8708  -57.7626 N.am      22 UNK        -0.7600 
    123 O         -0.0436  -20.4491  -56.8497 O.2       22 UNK        -0.5000 
    124 C124       -0.7490  -19.3734  -54.1942 C.3       23 UNK        -0.0398 
    125 S125        0.0462  -17.7559  -54.4886 S.3       23 UNK        -0.2404 
    126 C126       -0.8080  -16.6958  -53.2713 C.3       23 UNK        -0.0205 
    127 H127        2.0053  -11.9949  -53.0561 H         1 UNK         0.0600 
    128 H128        0.2415  -12.0780  -53.0222 H         1 UNK         0.0600 
    129 H129        1.1724  -13.3949  -53.7411 H         1 UNK         0.0600 
    130 H130       -0.5166  -12.5526  -50.9828 H         1 UNK         0.3000 
    131 H131        0.4429  -14.8124  -49.5019 H         1 UNK         0.0600 
    132 H132       -1.5498  -12.7302  -48.4707 H         1 UNK         0.0800 
    133 H133       -2.0158  -13.9131  -49.6565 H         1 UNK         0.0800 
    134 H134       -2.5099  -17.1814  -47.7578 H         1 UNK         0.0800 
    135 H135       -3.2276  -16.1009  -48.9301 H         1 UNK         0.0800 
    136 H136       -2.4147  -16.1715  -51.1746 H         1 UNK         0.1150 
    137 H137        1.4047  -17.8999  -52.0816 H         1 UNK         0.1150 
    138 H138        0.0707  -17.6361  -48.0197 H         1 UNK         0.1150 
    139 H139        2.9541  -18.3036  -50.3089 H         1 UNK         0.0800 
    140 H140        2.5418  -17.9687  -48.6514 H         1 UNK         0.0800 
    141 H141        0.9418  -19.4718  -47.2494 H         1 UNK         0.0800 
    142 H142        2.5359  -20.0895  -46.9351 H         1 UNK         0.0800 
    143 H143        1.6840  -22.4305  -47.3317 H         1 UNK         0.0600 
    144 H144        1.1637  -20.8227  -45.0580 H         1 UNK         0.3000 
    145 H145        0.0503  -23.4679  -42.9034 H         1 UNK         0.0600 
    146 H146        1.9155  -22.5225  -41.5934 H         1 UNK         0.0600 
    147 H147        2.5569  -23.4294  -42.9545 H         1 UNK         0.0600 
    148 H148        2.5302  -21.6700  -43.0079 H         1 UNK         0.0600 
    149 H149        0.3181  -20.6954  -42.4050 H         1 UNK         0.3000 
    150 H150       -3.0462  -19.7623  -43.3268 H         1 UNK         0.0600 
    151 H151       -3.0347  -20.7191  -41.0079 H         1 UNK         0.0600 
    152 H152       -2.9481  -18.9644  -40.9956 H         1 UNK         0.0600 
    153 H153       -1.4997  -19.9192  -40.6859 H         1 UNK         0.0600 
    154 H154       -0.9496  -18.1534  -42.3467 H         1 UNK         0.3000 
    155 H155        0.3785  -17.1277  -45.5358 H         1 UNK         0.0600 
    156 H156       -1.6318  -15.7796  -44.7591 H         1 UNK         0.0600 
    157 H157       -0.0926  -14.9910  -44.4405 H         1 UNK         0.0600 
    158 H158       -0.9714  -15.7826  -43.1377 H         1 UNK         0.0600 
    159 H159        1.3404  -16.5399  -42.9604 H         1 UNK         0.3000 
    160 H160        3.5960  -19.2840  -42.5151 H         1 UNK         0.0600 
    161 H161        3.9221  -16.2854  -43.0642 H         1 UNK         0.0600 
    162 H162        4.7676  -17.5880  -43.8839 H         1 UNK         0.0600 
    163 H163        5.0726  -17.2885  -42.1791 H         1 UNK         0.0600 
    164 H164        2.8310  -17.0198  -40.9101 H         1 UNK         0.3000 
    165 H165        0.3421  -18.7151  -38.9843 H         1 UNK         0.0600 
    166 H166        1.8598  -17.9717  -37.1740 H         1 UNK         0.0600 
    167 H167        2.5574  -19.3474  -38.0138 H         1 UNK         0.0600 
    168 H168        3.1716  -17.7286  -38.3275 H         1 UNK         0.0600 
    169 H169        1.4086  -16.0634  -38.8688 H         1 UNK         0.3000 
    170 H170       -0.8989  -14.5414  -41.1113 H         1 UNK         0.0600 
    171 H171       -2.1925  -14.8338  -38.9923 H         1 UNK         0.0600 
    172 H172       -0.7536  -14.4579  -38.0519 H         1 UNK         0.0600 
    173 H173       -1.4766  -13.2339  -39.0965 H         1 UNK         0.0600 
    174 H174        0.9943  -13.3235  -39.4573 H         1 UNK         0.3000 
    175 H175        2.8569  -12.4655  -40.1645 H         1 UNK         0.0600 
    176 H176        4.5748  -14.5679  -41.5886 H         1 UNK         0.0600 
    177 H177        5.1562  -13.2409  -40.5891 H         1 UNK         0.0600 
    178 H178        4.2292  -14.5445  -39.8633 H         1 UNK         0.0600 
    179 H179        3.7662  -12.7289  -42.9438 H         1 UNK         0.3000 
    180 H180        1.7053  -10.1511  -44.2007 H         1 UNK         0.0600 
    181 H181        4.7103  -10.0087  -43.6061 H         1 UNK         0.0600 
    182 H182        3.5148   -8.8064  -43.1366 H         1 UNK         0.0600 
    183 H183        3.8522   -9.0819  -44.8379 H         1 UNK         0.0600 
    184 H184        3.9325  -11.6753  -45.2374 H         1 UNK         0.3000 
    185 H185        3.4992  -13.0613  -46.9889 H         1 UNK         0.0600 
    186 H186        3.9246  -14.5242  -45.0116 H         1 UNK         0.0600 
    187 H187        2.3377  -15.2556  -45.1851 H         1 UNK         0.0600 
    188 H188        3.5664  -15.5022  -46.4257 H         1 UNK         0.0600 
    189 H189        1.3284  -14.8630  -47.4122 H         1 UNK         0.3000 
    190 H190       -1.2757  -20.5831  -46.3749 H         1 UNK         0.3000 
    191 H191       -2.8456  -21.2837  -48.6091 H         1 UNK         0.0600 
    192 H192       -3.4593  -19.4507  -47.0866 H         1 UNK         0.0600 
    193 H193       -4.7693  -20.6193  -47.1499 H         1 UNK         0.0600 
    194 H194       -3.6962  -20.5803  -45.7547 H         1 UNK         0.0600 
    195 H195       -2.4542  -22.9649  -45.4535 H         1 UNK         0.3000 
    196 H196       -4.3057  -25.0593  -45.9402 H         1 UNK         0.0600 
    197 H197       -3.0888  -26.2043  -44.0752 H         1 UNK         0.0600 
    198 H198       -3.4658  -24.5339  -43.6830 H         1 UNK         0.0600 
    199 H199       -1.8253  -24.9811  -44.1436 H         1 UNK         0.0600 
    200 H200       -0.7465  -24.9028  -46.5046 H         1 UNK         0.3000 
    201 H201       -0.4310  -27.5078  -47.5605 H         1 UNK         0.0600 
    202 H202        1.4602  -26.1247  -46.7645 H         1 UNK         0.0600 
    203 H203        1.1987  -24.9603  -48.0612 H         1 UNK         0.0600 
    204 H204        1.7312  -26.5957  -48.4356 H         1 UNK         0.0600 
    205 H205       -1.2775  -24.4445  -49.1645 H         1 UNK         0.3000 
    206 H206       -1.3673  -25.5459  -51.8473 H         1 UNK         0.0600 
    207 H207       -0.8126  -23.1888  -51.4741 H         1 UNK         0.0600 
    208 H208       -2.3373  -23.2574  -52.3450 H         1 UNK         0.0600 
    209 H209       -2.3213  -22.9226  -50.6134 H         1 UNK         0.0600 
    210 H210       -3.4419  -26.0515  -49.2650 H         1 UNK         0.3000 
    211 H211       -5.4643  -26.8660  -48.9577 H         1 UNK         0.0600 
    212 H212       -5.5775  -27.4512  -51.9640 H         1 UNK         0.0600 
    213 H213       -6.6258  -28.1261  -50.7286 H         1 UNK         0.0600 
    214 H214       -4.9124  -28.5157  -50.7270 H         1 UNK         0.0600 
    215 H215       -5.8326  -24.6535  -48.3663 H         1 UNK         0.3000 
    216 H216       -7.1384  -22.9156  -48.0349 H         1 UNK         0.0600 
    217 H217       -9.4331  -22.7937  -48.8987 H         1 UNK         0.0600 
    218 H218       -9.0904  -24.4434  -48.4047 H         1 UNK         0.0600 
    219 H219       -9.1000  -24.0158  -50.1154 H         1 UNK         0.0600 
    220 H220       -4.9606  -22.6882  -49.6048 H         1 UNK         0.3000 
    221 H221       -3.7828  -21.2732  -50.8313 H         1 UNK         0.0600 
    222 H222       -6.1718  -19.3777  -50.8382 H         1 UNK         0.0600 
    223 H223       -4.9925  -19.5150  -49.5337 H         1 UNK         0.0600 
    224 H224       -4.4884  -18.9618  -51.1197 H         1 UNK         0.0600 
    225 H225       -5.7955  -23.1943  -52.2181 H         1 UNK         0.3000 
    226 H226       -6.3302  -23.8980  -54.2435 H         1 UNK         0.0600 
    227 H227       -3.8084  -23.9438  -54.4211 H         1 UNK         0.0600 
    228 H228       -4.5794  -23.7580  -55.9778 H         1 UNK         0.0600 
    229 H229       -3.8392  -22.3659  -55.1875 H         1 UNK         0.0600 
    230 H230       -5.4409  -22.0988  -56.6972 H         1 UNK         0.3000 
    231 H231       -7.8042  -20.2677  -56.7783 H         1 UNK         0.0600 
    232 H232       -6.0571  -21.4205  -59.0238 H         1 UNK         0.0600 
    233 H233       -7.3899  -20.2901  -59.2355 H         1 UNK         0.0600 
    234 H234       -7.7046  -21.9117  -58.6374 H         1 UNK         0.0600 
    235 H235       -6.4102  -19.1406  -55.1134 H         1 UNK         0.3000 
    236 H236       -5.1047  -17.5053  -54.3835 H         1 UNK         0.0600 
    237 H237       -6.4380  -16.1271  -55.9807 H         1 UNK         0.0600 
    238 H238       -4.8086  -15.4968  -55.8033 H         1 UNK         0.0600 
    239 H239       -5.2409  -16.4079  -57.2440 H         1 UNK         0.0600 
    240 H240       -3.7799  -19.6915  -54.6355 H         1 UNK         0.3000 
    241 H241       -2.0212  -20.8633  -54.9681 H         1 UNK         0.0600 
    242 H242       -1.5854  -20.0281  -58.6814 H         1 UNK         0.3800 
    243 H243       -2.9133  -19.5254  -57.6667 H         1 UNK         0.3800 
    244 H244       -1.2259  -19.3698  -53.2134 H         1 UNK         0.0800 
    245 H245        0.0508  -20.1111  -54.1139 H         1 UNK         0.0800 
    246 H246       -0.4993  -15.6640  -53.4424 H         1 UNK         0.0800 
    247 H247       -1.8785  -16.7328  -53.4750 H         1 UNK         0.0800 
@<TRIPOS>BOND
     1    1    2 1    
     2    1  127 1    
     3    1  128 1    
     4    1  129 1    
     5    2    3 2    
     6    2    4 am   BACKBONE|DICT|INTERRES
     7    4    5 1    
     8    4  130 1    
     9    5    6 1    
    10    5   65 1    
    11    5  131 1    
    12    6    7 1    
    13    6  132 1    
    14    6  133 1    
    15    7    8 1    
    16    8    9 1    
    17    8  134 1    
    18    8  135 1    
    19    9   10 ar   
    20    9   14 ar   
    21   10   11 ar   
    22   10  136 1    
    23   11   12 ar   
    24   11  126 1    
    25   12   13 ar   
    26   12  137 1    
    27   13   14 ar   
    28   13   15 1    
    29   14  138 1    
    30   15   16 1    
    31   15  139 1    
    32   15  140 1    
    33   16   17 1    
    34   17   18 1    
    35   17  141 1    
    36   17  142 1    
    37   18   19 1    
    38   18   67 1    
    39   18  143 1    
    40   19   20 am   BACKBONE|DICT|INTERRES
    41   19  144 1    
    42   20   21 2    
    43   20   22 1    
    44   22   23 1    
    45   22   24 1    
    46   22  145 1    
    47   23  146 1    
    48   23  147 1    
    49   23  148 1    
    50   24   25 am   BACKBONE|DICT|INTERRES
    51   24  149 1    
    52   25   26 2    
    53   25   27 1    
    54   27   28 1    
    55   27   29 1    
    56   27  150 1    
    57   28  151 1    
    58   28  152 1    
    59   28  153 1    
    60   29   30 am   BACKBONE|DICT|INTERRES
    61   29  154 1    
    62   30   31 2    
    63   30   32 1    
    64   32   33 1    
    65   32   34 1    
    66   32  155 1    
    67   33  156 1    
    68   33  157 1    
    69   33  158 1    
    70   34   35 am   BACKBONE|DICT|INTERRES
    71   34  159 1    
    72   35   36 2    
    73   35   37 1    
    74   37   38 1    
    75   37   39 1    
    76   37  160 1    
    77   38  161 1    
    78   38  162 1    
    79   38  163 1    
    80   39   40 am   BACKBONE|DICT|INTERRES
    81   39  164 1    
    82   40   41 2    
    83   40   42 1    
    84   42   43 1    
    85   42   44 1    
    86   42  165 1    
    87   43  166 1    
    88   43  167 1    
    89   43  168 1    
    90   44   45 am   BACKBONE|DICT|INTERRES
    91   44  169 1    
    92   45   46 2    
    93   45   47 1    
    94   47   48 1    
    95   47   49 1    
    96   47  170 1    
    97   48  171 1    
    98   48  172 1    
    99   48  173 1    
   100   49   50 am   BACKBONE|DICT|INTERRES
   101   49  174 1    
   102   50   51 2    
   103   50   52 1    
   104   52   53 1    
   105   52   54 1    
   106   52  175 1    
   107   53  176 1    
   108   53  177 1    
   109   53  178 1    
   110   54   55 am   BACKBONE|DICT|INTERRES
   111   54  179 1    
   112   55   56 2    
   113   55   57 1    
   114   57   58 1    
   115   57   59 1    
   116   57  180 1    
   117   58  181 1    
   118   58  182 1    
   119   58  183 1    
   120   59   60 am   BACKBONE|DICT|INTERRES
   121   59  184 1    
   122   60   61 2    
   123   60   62 1    
   124   62   63 1    
   125   62   64 1    
   126   62  185 1    
   127   63  186 1    
   128   63  187 1    
   129   63  188 1    
   130   64   65 am   BACKBONE|DICT|INTERRES
   131   64  189 1    
   132   65   66 2    
   133   67   68 2    
   134   67   69 am   BACKBONE|DICT|INTERRES
   135   69   70 1    
   136   69  190 1    
   137   70   71 1    
   138   70   72 1    
   139   70  191 1    
   140   71  192 1    
   141   71  193 1    
   142   71  194 1    
   143   72   73 2    
   144   72   74 am   BACKBONE|DICT|INTERRES
   145   74   75 1    
   146   74  195 1    
   147   75   76 1    
   148   75   77 1    
   149   75  196 1    
   150   76  197 1    
   151   76  198 1    
   152   76  199 1    
   153   77   78 2    
   154   77   79 am   BACKBONE|DICT|INTERRES
   155   79   80 1    
   156   79  200 1    
   157   80   81 1    
   158   80   82 1    
   159   80  201 1    
   160   81  202 1    
   161   81  203 1    
   162   81  204 1    
   163   82   83 2    
   164   82   84 am   BACKBONE|DICT|INTERRES
   165   84   85 1    
   166   84  205 1    
   167   85   86 1    
   168   85   87 1    
   169   85  206 1    
   170   86  207 1    
   171   86  208 1    
   172   86  209 1    
   173   87   88 2    
   174   87   89 am   BACKBONE|DICT|INTERRES
   175   89   90 1    
   176   89  210 1    
   177   90   91 1    
   178   90   92 1    
   179   90  211 1    
   180   91  212 1    
   181   91  213 1    
   182   91  214 1    
   183   92   93 2    
   184   92   94 am   BACKBONE|DICT|INTERRES
   185   94   95 1    
   186   94  215 1    
   187   95   96 1    
   188   95   97 1    
   189   95  216 1    
   190   96  217 1    
   191   96  218 1    
   192   96  219 1    
   193   97   98 2    
   194   97   99 am   BACKBONE|DICT|INTERRES
   195   99  100 1    
   196   99  220 1    
   197  100  101 1    
   198  100  102 1    
   199  100  221 1    
   200  101  222 1    
   201  101  223 1    
   202  101  224 1    
   203  102  103 2    
   204  102  104 am   BACKBONE|DICT|INTERRES
   205  104  105 1    
   206  104  225 1    
   207  105  106 1    
   208  105  107 1    
   209  105  226 1    
   210  106  227 1    
   211  106  228 1    
   212  106  229 1    
   213  107  108 2    
   214  107  109 am   BACKBONE|DICT|INTERRES
   215  109  110 1    
   216  109  230 1    
   217  110  111 1    
   218  110  112 1    
   219  110  231 1    
   220  111  232 1    
   221  111  233 1    
   222  111  234 1    
   223  112  113 2    
   224  112  114 am   BACKBONE|DICT|INTERRES
   225  114  115 1    
   226  114  235 1    
   227  115  116 1    
   228  115  117 1    
   229  115  236 1    
   230  116  237 1    
   231  116  238 1    
   232  116  239 1    
   233  117  118 2    
   234  117  119 am   BACKBONE|DICT|INTERRES
   235  119  120 1    
   236  119  240 1    
   237  120  121 1    
   238  120  124 1    
   239  120  241 1    
   240  121  122 am   BACKBONE|DICT|INTERRES
   241  121  123 2    
   242  122  242 1    
   243  122  243 1    
   244  124  125 1    
   245  124  244 1    
   246  124  245 1    
   247  125  126 1    
   248  126  246 1    
   249  126  247 1    
@<TRIPOS>SUBSTRUCTURE
     1 UNK         1 GROUP             0       ****    0 ROOT    
