@<TRIPOS>MOLECULE
3R540
247   249    1
SMALL
USER_CHARGES


@<TRIPOS>ATOM
      1 CA          2.1702  -15.4849  -47.4816 C.3       0 UNK        -0.1800 
      2 C           1.3103  -14.6094  -46.5830 C.2       0 UNK         0.5000 
      3 O           1.7252  -14.2830  -45.4722 O.2       0 UNK        -0.5000 
      4 N           0.1282  -14.2104  -47.0721 N.am      1 UNK        -0.5000 
      5 CA         -0.9175  -13.4671  -46.3500 C.3       1 UNK         0.1400 
      6 C6         -2.1556  -13.1908  -47.2412 C.3       23 UNK        -0.0398 
      7 S7         -2.8819  -14.7190  -47.9232 S.3       23 UNK        -0.2404 
      8 C8         -2.3751  -14.6264  -49.6711 C.3       23 UNK        -0.0205 
      9 C9         -2.2691  -16.0234  -50.2563 C.ar      23 UNK        -0.0193 
     10 C10        -3.3264  -16.5819  -50.9796 C.ar      23 UNK        -0.1150 
     11 C11        -3.2508  -17.9007  -51.4411 C.ar      23 UNK        -0.0193 
     12 C12        -2.1060  -18.6567  -51.1716 C.ar      23 UNK        -0.1150 
     13 C13        -1.0350  -18.1030  -50.4654 C.ar      23 UNK        -0.0193 
     14 C14        -1.1164  -16.7777  -50.0309 C.ar      23 UNK        -0.1150 
     15 C15         0.1803  -18.9588  -50.1236 C.3       23 UNK        -0.0205 
     16 S16         0.6568  -18.8634  -48.3604 S.3       23 UNK        -0.2404 
     17 C17        -0.9221  -19.2215  -47.5164 C.3       23 UNK        -0.0398 
     18 CA         -1.0141  -20.6944  -47.0661 C.3       11 UNK         0.1400 
     19 N          -0.2444  -20.9454  -45.8449 N.am      11 UNK        -0.5000 
     20 C          -0.0095  -22.1545  -45.3182 C.2       10 UNK         0.5000 
     21 O          -0.3695  -23.2090  -45.8385 O.2       10 UNK        -0.5000 
     22 CA          0.6959  -22.1900  -43.9505 C.3       10 UNK         0.1400 
     23 CB          2.2132  -22.0081  -44.1045 C.3       10 UNK        -0.1800 
     24 N           0.1622  -21.1882  -43.0258 N.am      10 UNK        -0.5000 
     25 C          -1.0925  -21.1936  -42.5526 C.2       9 UNK         0.5000 
     26 O          -1.9073  -22.0840  -42.7952 O.2       9 UNK        -0.5000 
     27 CA         -1.5256  -19.9889  -41.6965 C.3       9 UNK         0.1400 
     28 CB         -1.0866  -20.1729  -40.2364 C.3       9 UNK        -0.1800 
     29 N          -1.0241  -18.7114  -42.2070 N.am      9 UNK        -0.5000 
     30 C          -1.3635  -18.1766  -43.3894 C.2       8 UNK         0.5000 
     31 O          -2.1671  -18.6915  -44.1652 O.2       8 UNK        -0.5000 
     32 CA         -0.6452  -16.8779  -43.8011 C.3       8 UNK         0.1400 
     33 CB         -1.2502  -15.6637  -43.0806 C.3       8 UNK        -0.1800 
     34 N           0.7923  -16.9339  -43.5437 N.am      8 UNK        -0.5000 
     35 C           1.6340  -17.8211  -44.0919 C.2       7 UNK         0.5000 
     36 O           1.2949  -18.6626  -44.9225 O.2       7 UNK        -0.5000 
     37 CA          3.0799  -17.8166  -43.5678 C.3       7 UNK         0.1400 
     38 CB          3.9150  -16.7077  -44.2235 C.3       7 UNK        -0.1800 
     39 N           3.1244  -17.6746  -42.1126 N.am      7 UNK        -0.5000 
     40 C           2.7208  -18.6178  -41.2498 C.2       6 UNK         0.5000 
     41 O           2.3095  -19.7259  -41.5920 O.2       6 UNK        -0.5000 
     42 CA          2.7475  -18.2450  -39.7563 C.3       6 UNK         0.1400 
     43 CB          4.1483  -18.4686  -39.1676 C.3       6 UNK        -0.1800 
     44 N           2.3367  -16.8606  -39.5177 N.am      6 UNK        -0.5000 
     45 C           1.0943  -16.3949  -39.7115 C.2       5 UNK         0.5000 
     46 O           0.1503  -17.0976  -40.0698 O.2       5 UNK        -0.5000 
     47 CA          0.8887  -14.8792  -39.5238 C.3       5 UNK         0.1400 
     48 CB          0.6104  -14.5481  -38.0502 C.3       5 UNK        -0.1800 
     49 N           2.0301  -14.0888  -39.9965 N.am      5 UNK        -0.5000 
     50 C           2.4360  -14.0500  -41.2718 C.2       4 UNK         0.5000 
     51 O           1.8718  -14.6559  -42.1843 O.2       4 UNK        -0.5000 
     52 CA          3.7216  -13.2698  -41.5638 C.3       4 UNK         0.1400 
     53 CB          4.9480  -14.1243  -41.1797 C.3       4 UNK        -0.1800 
     54 N           3.7530  -12.9353  -42.9850 N.am      4 UNK        -0.5000 
     55 C           4.6305  -12.1167  -43.5760 C.2       3 UNK         0.5000 
     56 O           5.5181  -11.5094  -42.9754 O.2       3 UNK        -0.5000 
     57 CA          4.4835  -11.9329  -45.0939 C.3       3 UNK         0.1400 
     58 CB          4.9758  -13.1764  -45.8516 C.3       3 UNK        -0.1800 
     59 N           3.1028  -11.6323  -45.4736 N.am      3 UNK        -0.5000 
     60 C           2.5598  -10.4076  -45.4029 C.2       2 UNK         0.5000 
     61 O           3.1672   -9.4259  -44.9723 O.2       2 UNK        -0.5000 
     62 CA          1.1197  -10.2186  -45.9205 C.3       2 UNK         0.1400 
     63 CB          1.0939   -9.2244  -47.0943 C.3       2 UNK        -0.1800 
     64 N           0.5134  -11.4719  -46.3709 N.am      2 UNK        -0.5000 
     65 C          -0.4324  -12.1489  -45.7081 C.2       1 UNK         0.5000 
     66 O          -0.9204  -11.7811  -44.6388 O.2       1 UNK        -0.5000 
     67 C          -2.4880  -21.1248  -46.9323 C.2       11 UNK         0.5000 
     68 O          -3.0244  -21.7126  -47.8702 O.2       11 UNK        -0.5000 
     69 N          -3.1086  -20.8651  -45.7724 N.am      12 UNK        -0.5000 
     70 CA         -4.4808  -21.2725  -45.4540 C.3       12 UNK         0.1400 
     71 CB         -4.9145  -20.6314  -44.1277 C.3       12 UNK        -0.1800 
     72 C          -4.6734  -22.8023  -45.4094 C.2       12 UNK         0.5000 
     73 O          -5.7752  -23.2870  -45.6701 O.2       12 UNK        -0.5000 
     74 N          -3.5937  -23.5363  -45.1214 N.am      13 UNK        -0.5000 
     75 CA         -3.5323  -24.9950  -45.1554 C.3       13 UNK         0.1400 
     76 CB         -2.5667  -25.4578  -44.0507 C.3       13 UNK        -0.1800 
     77 C          -3.1041  -25.5484  -46.5331 C.2       13 UNK         0.5000 
     78 O          -2.9388  -26.7640  -46.6530 O.2       13 UNK        -0.5000 
     79 N          -2.9046  -24.6815  -47.5365 N.am      14 UNK        -0.5000 
     80 CA         -2.3409  -25.0289  -48.8382 C.3       14 UNK         0.1400 
     81 CB         -0.8128  -24.8099  -48.7992 C.3       14 UNK        -0.1800 
     82 C          -3.0588  -24.2743  -49.9746 C.2       14 UNK         0.5000 
     83 O          -4.2860  -24.1486  -49.9559 O.2       14 UNK        -0.5000 
     84 N          -2.2903  -23.8298  -50.9729 N.am      15 UNK        -0.5000 
     85 CA         -2.7457  -23.2182  -52.2131 C.3       15 UNK         0.1400 
     86 CB         -3.0908  -24.3377  -53.2112 C.3       15 UNK        -0.1800 
     87 C          -1.6242  -22.3205  -52.7563 C.2       15 UNK         0.5000 
     88 O          -0.4766  -22.4368  -52.3164 O.2       15 UNK        -0.5000 
     89 N          -1.9567  -21.4639  -53.7276 N.am      16 UNK        -0.5000 
     90 CA         -1.0160  -20.5885  -54.4260 C.3       16 UNK         0.1400 
     91 CB         -1.7623  -19.3278  -54.9009 C.3       16 UNK        -0.1800 
     92 C          -0.3688  -21.3585  -55.5906 C.2       16 UNK         0.5000 
     93 O          -0.7010  -21.1139  -56.7499 O.2       16 UNK        -0.5000 
     94 N           0.4935  -22.3292  -55.2545 N.am      17 UNK        -0.5000 
     95 CA          1.1337  -23.2836  -56.1713 C.3       17 UNK         0.1400 
     96 CB          2.1459  -22.5705  -57.0925 C.3       17 UNK        -0.1800 
     97 C           0.0875  -24.1186  -56.9423 C.2       17 UNK         0.5000 
     98 O           0.1161  -24.1843  -58.1718 O.2       17 UNK        -0.5000 
     99 N          -0.8465  -24.6972  -56.1733 N.am      18 UNK        -0.5000 
    100 CA        -2.0159  -25.4896  -56.5791 C.3       18 UNK         0.1400 
    101 CB        -1.6315  -26.6545  -57.5148 C.3       18 UNK        -0.1800 
    102 C         -3.1986  -24.6673  -57.1352 C.2       18 UNK         0.5000 
    103 O         -4.2684  -25.2431  -57.3394 O.2       18 UNK        -0.5000 
    104 N         -3.0289  -23.3534  -57.3373 N.am      19 UNK        -0.5000 
    105 CA        -4.1040  -22.4398  -57.7250 C.3       19 UNK         0.1400 
    106 CB        -3.5217  -21.3005  -58.5755 C.3       19 UNK        -0.1800 
    107 C         -4.8129  -21.8713  -56.4835 C.2       19 UNK         0.5000 
    108 O         -4.2316  -21.8374  -55.3942 O.2       19 UNK        -0.5000 
    109 N         -6.0557  -21.4128  -56.6794 N.am      20 UNK        -0.5000 
    110 CA        -6.9490  -20.7290  -55.7311 C.3       20 UNK         0.1400 
    111 CB        -6.3228  -19.4129  -55.2348 C.3       20 UNK        -0.1800 
    112 C         -7.4553  -21.5819  -54.5482 C.2       20 UNK         0.5000 
    113 O         -8.6235  -21.4470  -54.1828 O.2       20 UNK        -0.5000 
    114 N         -6.5916  -22.4431  -53.9911 N.am      21 UNK        -0.5000 
    115 CA        -6.8366  -23.3622  -52.8726 C.3       21 UNK         0.1400 
    116 CB        -7.7943  -24.4927  -53.3015 C.3       21 UNK        -0.1800 
    117 C         -7.2916  -22.6267  -51.5953 C.2       21 UNK         0.5000 
    118 O         -8.3466  -22.9356  -51.0372 O.2       21 UNK        -0.5000 
    119 N         -6.4905  -21.6341  -51.1872 N.am      22 UNK        -0.5000 
    120 CA        -6.7468  -20.7578  -50.0323 C.3       22 UNK         0.1400 
    121 C         -6.7968  -21.4614  -48.6459 C.2       22 UNK         0.5000 
    122 N         -6.2268  -22.6445  -48.4656 N.am      22 UNK        -0.7600 
    123 O         -7.3765  -20.9156  -47.7112 O.2       22 UNK        -0.5000 
    124 C124       -5.7651  -19.5585  -49.9929 C.3       23 UNK        -0.0398 
    125 S125       -6.0009  -18.4309  -51.4085 S.3       23 UNK        -0.2404 
    126 C126       -4.3888  -18.5073  -52.2523 C.3       23 UNK        -0.0205 
    127 H127        2.2257  -16.4933  -47.0721 H         1 UNK         0.0600 
    128 H128        3.1816  -15.0848  -47.5452 H         1 UNK         0.0600 
    129 H129        1.7684  -15.5498  -48.4924 H         1 UNK         0.0600 
    130 H130       -0.1400  -14.5204  -47.9934 H         1 UNK         0.3000 
    131 H131       -1.2394  -14.1119  -45.5318 H         1 UNK         0.0600 
    132 H132       -2.9359  -12.6961  -46.6595 H         1 UNK         0.0800 
    133 H133       -1.9072  -12.5052  -48.0533 H         1 UNK         0.0800 
    134 H134       -1.4131  -14.1211  -49.7663 H         1 UNK         0.0800 
    135 H135       -3.0968  -14.0263  -50.2276 H         1 UNK         0.0800 
    136 H136       -4.2172  -15.9987  -51.1668 H         1 UNK         0.1150 
    137 H137       -2.0485  -19.6807  -51.5089 H         1 UNK         0.1150 
    138 H138       -0.2999  -16.3507  -49.4679 H         1 UNK         0.1150 
    139 H139       -0.0035  -20.0050  -50.3750 H         1 UNK         0.0800 
    140 H140        1.0229  -18.6366  -50.7364 H         1 UNK         0.0800 
    141 H141       -1.7551  -18.9574  -48.1675 H         1 UNK         0.0800 
    142 H142       -1.0112  -18.5521  -46.6600 H         1 UNK         0.0800 
    143 H143       -0.5867  -21.3204  -47.8526 H         1 UNK         0.0600 
    144 H144        0.1467  -20.1277  -45.3835 H         1 UNK         0.3000 
    145 H145        0.5185  -23.1745  -43.5125 H         1 UNK         0.0600 
    146 H146        2.7200  -22.0985  -43.1437 H         1 UNK         0.0600 
    147 H147        2.6309  -22.7681  -44.7659 H         1 UNK         0.0600 
    148 H148        2.4648  -21.0346  -44.5245 H         1 UNK         0.0600 
    149 H149        0.7955  -20.4508  -42.7347 H         1 UNK         0.3000 
    150 H150       -2.6164  -19.9459  -41.7164 H         1 UNK         0.0600 
    151 H151       -1.4659  -21.1111  -39.8297 H         1 UNK         0.0600 
    152 H152       -1.4667  -19.3685  -39.6066 H         1 UNK         0.0600 
    153 H153       -0.0009  -20.1881  -40.1407 H         1 UNK         0.0600 
    154 H154       -0.3958  -18.1949  -41.5987 H         1 UNK         0.3000 
    155 H155       -0.7804  -16.7397  -44.8758 H         1 UNK         0.0600 
    156 H156       -1.2139  -15.7763  -41.9974 H         1 UNK         0.0600 
    157 H157       -2.2949  -15.5261  -43.3616 H         1 UNK         0.0600 
    158 H158       -0.7176  -14.7466  -43.3328 H         1 UNK         0.0600 
    159 H159        1.1702  -16.2225  -42.9228 H         1 UNK         0.3000 
    160 H160        3.5317  -18.7757  -43.8295 H         1 UNK         0.0600 
    161 H161        3.5197  -15.7183  -43.9978 H         1 UNK         0.0600 
    162 H162        3.9245  -16.8170  -45.3081 H         1 UNK         0.0600 
    163 H163        4.9507  -16.7397  -43.8854 H         1 UNK         0.0600 
    164 H164        3.3980  -16.7740  -41.7522 H         1 UNK         0.3000 
    165 H165        2.0488  -18.9031  -39.2354 H         1 UNK         0.0600 
    166 H166        4.1595  -18.2788  -38.0942 H         1 UNK         0.0600 
    167 H167        4.4740  -19.4988  -39.3178 H         1 UNK         0.0600 
    168 H168        4.8909  -17.8183  -39.6318 H         1 UNK         0.0600 
    169 H169        3.0516  -16.2161  -39.2152 H         1 UNK         0.3000 
    170 H170        0.0137  -14.5895  -40.1095 H         1 UNK         0.0600 
    171 H171       -0.2473  -15.1112  -37.6796 H         1 UNK         0.0600 
    172 H172        1.4621  -14.7901  -37.4135 H         1 UNK         0.0600 
    173 H173        0.3831  -13.4898  -37.9201 H         1 UNK         0.0600 
    174 H174        2.5440  -13.5719  -39.2973 H         1 UNK         0.3000 
    175 H175        3.7112  -12.3465  -40.9814 H         1 UNK         0.0600 
    176 H176        5.0168  -15.0250  -41.7906 H         1 UNK         0.0600 
    177 H177        5.8785  -13.5704  -41.3012 H         1 UNK         0.0600 
    178 H178        4.9026  -14.4372  -40.1360 H         1 UNK         0.0600 
    179 H179        3.0288  -13.3863  -43.5356 H         1 UNK         0.3000 
    180 H180        5.1207  -11.0975  -45.3927 H         1 UNK         0.0600 
    181 H181        4.4041  -14.0660  -45.5904 H         1 UNK         0.0600 
    182 H182        6.0214  -13.3829  -45.6200 H         1 UNK         0.0600 
    183 H183        4.9031  -13.0357  -46.9300 H         1 UNK         0.0600 
    184 H184        2.5186  -12.4204  -45.7285 H         1 UNK         0.3000 
    185 H185        0.5418   -9.7862  -45.1013 H         1 UNK         0.0600 
    186 H186        1.4966   -8.2547  -46.7988 H         1 UNK         0.0600 
    187 H187        1.6846   -9.5824  -47.9384 H         1 UNK         0.0600 
    188 H188        0.0754   -9.0564  -47.4449 H         1 UNK         0.0600 
    189 H189        0.8613  -11.8554  -47.2381 H         1 UNK         0.3000 
    190 H190       -2.6276  -20.3068  -45.0719 H         1 UNK         0.3000 
    191 H191       -5.1256  -20.8813  -46.2411 H         1 UNK         0.0600 
    192 H192       -4.3030  -20.9760  -43.2943 H         1 UNK         0.0600 
    193 H193       -5.9516  -20.8785  -43.8973 H         1 UNK         0.0600 
    194 H194       -4.8423  -19.5446  -44.1716 H         1 UNK         0.0600 
    195 H195       -2.7275  -23.0569  -44.9106 H         1 UNK         0.3000 
    196 H196       -4.5183  -25.4080  -44.9337 H         1 UNK         0.0600 
    197 H197       -2.5370  -26.5458  -43.9819 H         1 UNK         0.0600 
    198 H198       -2.8742  -25.0803  -43.0752 H         1 UNK         0.0600 
    199 H199       -1.5493  -25.1118  -44.2358 H         1 UNK         0.0600 
    200 H200       -3.1033  -23.6958  -47.4011 H         1 UNK         0.3000 
    201 H201       -2.5215  -26.0859  -49.0426 H         1 UNK         0.0600 
    202 H202       -0.3616  -25.3501  -47.9665 H         1 UNK         0.0600 
    203 H203       -0.5620  -23.7552  -48.6779 H         1 UNK         0.0600 
    204 H204       -0.3296  -25.1720  -49.7072 H         1 UNK         0.0600 
    205 H205       -1.2828  -23.8905  -50.8931 H         1 UNK         0.3000 
    206 H206       -3.6228  -22.5978  -52.0204 H         1 UNK         0.0600 
    207 H207       -2.2182  -24.9534  -53.4294 H         1 UNK         0.0600 
    208 H208       -3.8627  -24.9990  -52.8183 H         1 UNK         0.0600 
    209 H209       -3.4588  -23.9378  -54.1539 H         1 UNK         0.0600 
    210 H210       -2.8851  -21.5146  -54.1416 H         1 UNK         0.3000 
    211 H211       -0.2220  -20.2708  -53.7466 H         1 UNK         0.0600 
    212 H212       -2.6153  -19.5735  -55.5344 H         1 UNK         0.0600 
    213 H213       -1.1026  -18.6768  -55.4758 H         1 UNK         0.0600 
    214 H214       -2.1290  -18.7451  -54.0584 H         1 UNK         0.0600 
    215 H215        0.6671  -22.4759  -54.2669 H         1 UNK         0.3000 
    216 H216        1.6934  -23.9855  -55.5513 H         1 UNK         0.0600 
    217 H217        2.6952  -23.2920  -57.6983 H         1 UNK         0.0600 
    218 H218        2.8787  -22.0097  -56.5123 H         1 UNK         0.0600 
    219 H219        1.6581  -21.8758  -57.7768 H         1 UNK         0.0600 
    220 H220       -0.7651  -24.5485  -55.1782 H         1 UNK         0.3000 
    221 H221       -2.3871  -25.9419  -55.6589 H         1 UNK         0.0600 
    222 H222       -1.3479  -26.3061  -58.5079 H         1 UNK         0.0600 
    223 H223       -0.8011  -27.2320  -57.1085 H         1 UNK         0.0600 
    224 H224       -2.4695  -27.3405  -57.6439 H         1 UNK         0.0600 
    225 H225       -2.1355  -22.9288  -57.1268 H         1 UNK         0.3000 
    226 H226       -4.8360  -22.9750  -58.3336 H         1 UNK         0.0600 
    227 H227       -2.9221  -21.6864  -59.4001 H         1 UNK         0.0600 
    228 H228       -4.3172  -20.6935  -59.0090 H         1 UNK         0.0600 
    229 H229       -2.8939  -20.6325  -57.9866 H         1 UNK         0.0600 
    230 H230       -6.4456  -21.5214  -57.6055 H         1 UNK         0.3000 
    231 H231       -7.8345  -20.4628  -56.3105 H         1 UNK         0.0600 
    232 H232       -6.0966  -18.7460  -56.0666 H         1 UNK         0.0600 
    233 H233       -5.3980  -19.5885  -54.6883 H         1 UNK         0.0600 
    234 H234       -7.0016  -18.8820  -54.5660 H         1 UNK         0.0600 
    235 H235       -5.6508  -22.4373  -54.3757 H         1 UNK         0.3000 
    236 H236       -5.8805  -23.8235  -52.6291 H         1 UNK         0.0600 
    237 H237       -8.7884  -24.1149  -53.5420 H         1 UNK         0.0600 
    238 H238       -7.4142  -25.0179  -54.1778 H         1 UNK         0.0600 
    239 H239       -7.9078  -25.2296  -52.5055 H         1 UNK         0.0600 
    240 H240       -5.6643  -21.4276  -51.7239 H         1 UNK         0.3000 
    241 H241       -7.7495  -20.3509  -50.1785 H         1 UNK         0.0600 
    242 H242       -5.6801  -23.0984  -49.1918 H         1 UNK         0.3800 
    243 H243       -6.2586  -23.0535  -47.5390 H         1 UNK         0.3800 
    244 H244       -5.9154  -18.9631  -49.0903 H         1 UNK         0.0800 
    245 H245       -4.7330  -19.9112  -49.9502 H         1 UNK         0.0800 
    246 H246       -4.4646  -17.9579  -53.1912 H         1 UNK         0.0800 
    247 H247       -4.1735  -19.5433  -52.5174 H         1 UNK         0.0800 
@<TRIPOS>BOND
     1    1    2 1    
     2    1  127 1    
     3    1  128 1    
     4    1  129 1    
     5    2    3 2    
     6    2    4 am   BACKBONE|DICT|INTERRES
     7    4    5 1    
     8    4  130 1    
     9    5    6 1    
    10    5   65 1    
    11    5  131 1    
    12    6    7 1    
    13    6  132 1    
    14    6  133 1    
    15    7    8 1    
    16    8    9 1    
    17    8  134 1    
    18    8  135 1    
    19    9   10 ar   
    20    9   14 ar   
    21   10   11 ar   
    22   10  136 1    
    23   11   12 ar   
    24   11  126 1    
    25   12   13 ar   
    26   12  137 1    
    27   13   14 ar   
    28   13   15 1    
    29   14  138 1    
    30   15   16 1    
    31   15  139 1    
    32   15  140 1    
    33   16   17 1    
    34   17   18 1    
    35   17  141 1    
    36   17  142 1    
    37   18   19 1    
    38   18   67 1    
    39   18  143 1    
    40   19   20 am   BACKBONE|DICT|INTERRES
    41   19  144 1    
    42   20   21 2    
    43   20   22 1    
    44   22   23 1    
    45   22   24 1    
    46   22  145 1    
    47   23  146 1    
    48   23  147 1    
    49   23  148 1    
    50   24   25 am   BACKBONE|DICT|INTERRES
    51   24  149 1    
    52   25   26 2    
    53   25   27 1    
    54   27   28 1    
    55   27   29 1    
    56   27  150 1    
    57   28  151 1    
    58   28  152 1    
    59   28  153 1    
    60   29   30 am   BACKBONE|DICT|INTERRES
    61   29  154 1    
    62   30   31 2    
    63   30   32 1    
    64   32   33 1    
    65   32   34 1    
    66   32  155 1    
    67   33  156 1    
    68   33  157 1    
    69   33  158 1    
    70   34   35 am   BACKBONE|DICT|INTERRES
    71   34  159 1    
    72   35   36 2    
    73   35   37 1    
    74   37   38 1    
    75   37   39 1    
    76   37  160 1    
    77   38  161 1    
    78   38  162 1    
    79   38  163 1    
    80   39   40 am   BACKBONE|DICT|INTERRES
    81   39  164 1    
    82   40   41 2    
    83   40   42 1    
    84   42   43 1    
    85   42   44 1    
    86   42  165 1    
    87   43  166 1    
    88   43  167 1    
    89   43  168 1    
    90   44   45 am   BACKBONE|DICT|INTERRES
    91   44  169 1    
    92   45   46 2    
    93   45   47 1    
    94   47   48 1    
    95   47   49 1    
    96   47  170 1    
    97   48  171 1    
    98   48  172 1    
    99   48  173 1    
   100   49   50 am   BACKBONE|DICT|INTERRES
   101   49  174 1    
   102   50   51 2    
   103   50   52 1    
   104   52   53 1    
   105   52   54 1    
   106   52  175 1    
   107   53  176 1    
   108   53  177 1    
   109   53  178 1    
   110   54   55 am   BACKBONE|DICT|INTERRES
   111   54  179 1    
   112   55   56 2    
   113   55   57 1    
   114   57   58 1    
   115   57   59 1    
   116   57  180 1    
   117   58  181 1    
   118   58  182 1    
   119   58  183 1    
   120   59   60 am   BACKBONE|DICT|INTERRES
   121   59  184 1    
   122   60   61 2    
   123   60   62 1    
   124   62   63 1    
   125   62   64 1    
   126   62  185 1    
   127   63  186 1    
   128   63  187 1    
   129   63  188 1    
   130   64   65 am   BACKBONE|DICT|INTERRES
   131   64  189 1    
   132   65   66 2    
   133   67   68 2    
   134   67   69 am   BACKBONE|DICT|INTERRES
   135   69   70 1    
   136   69  190 1    
   137   70   71 1    
   138   70   72 1    
   139   70  191 1    
   140   71  192 1    
   141   71  193 1    
   142   71  194 1    
   143   72   73 2    
   144   72   74 am   BACKBONE|DICT|INTERRES
   145   74   75 1    
   146   74  195 1    
   147   75   76 1    
   148   75   77 1    
   149   75  196 1    
   150   76  197 1    
   151   76  198 1    
   152   76  199 1    
   153   77   78 2    
   154   77   79 am   BACKBONE|DICT|INTERRES
   155   79   80 1    
   156   79  200 1    
   157   80   81 1    
   158   80   82 1    
   159   80  201 1    
   160   81  202 1    
   161   81  203 1    
   162   81  204 1    
   163   82   83 2    
   164   82   84 am   BACKBONE|DICT|INTERRES
   165   84   85 1    
   166   84  205 1    
   167   85   86 1    
   168   85   87 1    
   169   85  206 1    
   170   86  207 1    
   171   86  208 1    
   172   86  209 1    
   173   87   88 2    
   174   87   89 am   BACKBONE|DICT|INTERRES
   175   89   90 1    
   176   89  210 1    
   177   90   91 1    
   178   90   92 1    
   179   90  211 1    
   180   91  212 1    
   181   91  213 1    
   182   91  214 1    
   183   92   93 2    
   184   92   94 am   BACKBONE|DICT|INTERRES
   185   94   95 1    
   186   94  215 1    
   187   95   96 1    
   188   95   97 1    
   189   95  216 1    
   190   96  217 1    
   191   96  218 1    
   192   96  219 1    
   193   97   98 2    
   194   97   99 am   BACKBONE|DICT|INTERRES
   195   99  100 1    
   196   99  220 1    
   197  100  101 1    
   198  100  102 1    
   199  100  221 1    
   200  101  222 1    
   201  101  223 1    
   202  101  224 1    
   203  102  103 2    
   204  102  104 am   BACKBONE|DICT|INTERRES
   205  104  105 1    
   206  104  225 1    
   207  105  106 1    
   208  105  107 1    
   209  105  226 1    
   210  106  227 1    
   211  106  228 1    
   212  106  229 1    
   213  107  108 2    
   214  107  109 am   BACKBONE|DICT|INTERRES
   215  109  110 1    
   216  109  230 1    
   217  110  111 1    
   218  110  112 1    
   219  110  231 1    
   220  111  232 1    
   221  111  233 1    
   222  111  234 1    
   223  112  113 2    
   224  112  114 am   BACKBONE|DICT|INTERRES
   225  114  115 1    
   226  114  235 1    
   227  115  116 1    
   228  115  117 1    
   229  115  236 1    
   230  116  237 1    
   231  116  238 1    
   232  116  239 1    
   233  117  118 2    
   234  117  119 am   BACKBONE|DICT|INTERRES
   235  119  120 1    
   236  119  240 1    
   237  120  121 1    
   238  120  124 1    
   239  120  241 1    
   240  121  122 am   BACKBONE|DICT|INTERRES
   241  121  123 2    
   242  122  242 1    
   243  122  243 1    
   244  124  125 1    
   245  124  244 1    
   246  124  245 1    
   247  125  126 1    
   248  126  246 1    
   249  126  247 1    
@<TRIPOS>SUBSTRUCTURE
     1 UNK         1 GROUP             0       ****    0 ROOT    
