@<TRIPOS>MOLECULE
3R540
247   249    1
SMALL
USER_CHARGES


@<TRIPOS>ATOM
      1 CA          5.5973  -10.1682  -49.4921 C.3       0 UNK        -0.1800 
      2 C           4.4288  -10.9681  -48.9356 C.2       0 UNK         0.5000 
      3 O           4.0884  -10.8220  -47.7619 O.2       0 UNK        -0.5000 
      4 N           3.7994  -11.8016  -49.7756 N.am      1 UNK        -0.5000 
      5 CA          2.6861  -12.6977  -49.4203 C.3       1 UNK         0.1400 
      6 C6          2.3013  -13.6593  -50.5752 C.3       23 UNK        -0.0398 
      7 S7          3.7381  -14.4563  -51.3784 S.3       23 UNK        -0.2404 
      8 C8          3.9214  -15.9912  -50.4078 C.3       23 UNK        -0.0205 
      9 C9          2.9780  -17.1436  -50.7629 C.ar      23 UNK        -0.0193 
     10 C10         1.8962  -17.0157  -51.6471 C.ar      23 UNK        -0.1150 
     11 C11         1.0635  -18.1053  -51.9219 C.ar      23 UNK        -0.0193 
     12 C12         1.3197  -19.3347  -51.3104 C.ar      23 UNK        -0.1150 
     13 C13         2.3781  -19.4752  -50.4124 C.ar      23 UNK        -0.0193 
     14 C14         3.2065  -18.3811  -50.1524 C.ar      23 UNK        -0.1150 
     15 C15         2.6107  -20.7990  -49.7041 C.3       23 UNK        -0.0205 
     16 S16         1.9854  -20.7245  -47.9996 S.3       23 UNK        -0.2404 
     17 C17         2.2137  -22.4497  -47.4481 C.3       23 UNK        -0.0398 
     18 CA          0.8922  -23.1818  -47.1076 C.3       11 UNK         0.1400 
     19 N           0.0650  -22.4349  -46.1565 N.am      11 UNK        -0.5000 
     20 C          -0.9908  -22.9282  -45.4963 C.2       10 UNK         0.5000 
     21 O          -1.4891  -24.0272  -45.7413 O.2       10 UNK        -0.5000 
     22 CA         -1.5668  -22.0470  -44.3690 C.3       10 UNK         0.1400 
     23 CB         -2.4237  -22.8343  -43.3575 C.3       10 UNK        -0.1800 
     24 N          -0.5285  -21.2684  -43.6882 N.am      10 UNK        -0.5000 
     25 C           0.5186  -21.7158  -42.9793 C.2       9 UNK         0.5000 
     26 O           0.7279  -22.9011  -42.7201 O.2       9 UNK        -0.5000 
     27 CA          1.5184  -20.6469  -42.4953 C.3       9 UNK         0.1400 
     28 CB          2.6416  -20.4685  -43.5294 C.3       9 UNK        -0.1800 
     29 N           0.8862  -19.3492  -42.2467 N.am      9 UNK        -0.5000 
     30 C           0.0609  -19.0915  -41.2216 C.2       8 UNK         0.5000 
     31 O          -0.1774  -19.8920  -40.3164 O.2       8 UNK        -0.5000 
     32 CA         -0.6451  -17.7221  -41.2281 C.3       8 UNK         0.1400 
     33 CB          0.2778  -16.6244  -40.6779 C.3       8 UNK        -0.1800 
     34 N          -1.1154  -17.3443  -42.5615 N.am      8 UNK        -0.5000 
     35 C          -2.0733  -17.9879  -43.2447 C.2       7 UNK         0.5000 
     36 O          -2.7234  -18.9302  -42.7932 O.2       7 UNK        -0.5000 
     37 CA         -2.3206  -17.5297  -44.6907 C.3       7 UNK         0.1400 
     38 CB         -3.3301  -16.3743  -44.7431 C.3       7 UNK        -0.1800 
     39 N          -1.0857  -17.1353  -45.3643 N.am      7 UNK        -0.5000 
     40 C          -0.1449  -17.9929  -45.7839 C.2       6 UNK         0.5000 
     41 O          -0.2099  -19.2129  -45.6351 O.2       6 UNK        -0.5000 
     42 CA          1.1031  -17.3697  -46.4329 C.3       6 UNK         0.1400 
     43 CB          0.8157  -16.9971  -47.8928 C.3       6 UNK        -0.1800 
     44 N           1.5642  -16.1778  -45.7228 N.am      6 UNK        -0.5000 
     45 C           2.0254  -16.1630  -44.4640 C.2       5 UNK         0.5000 
     46 O           2.1626  -17.1700  -43.7704 O.2       5 UNK        -0.5000 
     47 CA          2.3229  -14.7752  -43.8650 C.3       5 UNK         0.1400 
     48 CB          3.7593  -14.3395  -44.1899 C.3       5 UNK        -0.1800 
     49 N           1.3904  -13.7494  -44.3378 N.am      5 UNK        -0.5000 
     50 C           0.0672  -13.7552  -44.1200 C.2       4 UNK         0.5000 
     51 O          -0.5021  -14.6195  -43.4527 O.2       4 UNK        -0.5000 
     52 CA         -0.7614  -12.6623  -44.8208 C.3       4 UNK         0.1400 
     53 CB         -1.9777  -12.2022  -43.9905 C.3       4 UNK        -0.1800 
     54 N           0.0452  -11.5328  -45.2957 N.am      4 UNK        -0.5000 
     55 C           0.6146  -10.5537  -44.5733 C.2       3 UNK         0.5000 
     56 O           0.5400  -10.4762  -43.3469 O.2       3 UNK        -0.5000 
     57 CA          1.4250   -9.4841  -45.3422 C.3       3 UNK         0.1400 
     58 CB          2.9070   -9.5394  -44.9381 C.3       3 UNK        -0.1800 
     59 N           1.3282   -9.6110  -46.7997 N.am      3 UNK        -0.5000 
     60 C           0.2352   -9.3249  -47.5244 C.2       2 UNK         0.5000 
     61 O          -0.7699   -8.7956  -47.0493 O.2       2 UNK        -0.5000 
     62 CA          0.2348   -9.7288  -49.0146 C.3       2 UNK         0.1400 
     63 CB          0.3645   -8.4852  -49.9077 C.3       2 UNK        -0.1800 
     64 N           1.2795  -10.6852  -49.3908 N.am      2 UNK        -0.5000 
     65 C           1.4378  -11.9331  -48.9219 C.2       1 UNK         0.5000 
     66 O           0.6869  -12.4557  -48.0969 O.2       1 UNK        -0.5000 
     67 C           0.1231  -23.6409  -48.3623 C.2       11 UNK         0.5000 
     68 O           0.2489  -24.8020  -48.7498 O.2       11 UNK        -0.5000 
     69 N          -0.6973  -22.7556  -48.9460 N.am      12 UNK        -0.5000 
     70 CA         -1.5347  -23.0781  -50.1058 C.3       12 UNK         0.1400 
     71 CB         -2.0548  -21.7906  -50.7551 C.3       12 UNK        -0.1800 
     72 C          -2.6956  -24.0282  -49.7635 C.2       12 UNK         0.5000 
     73 O          -3.0837  -24.8379  -50.6063 O.2       12 UNK        -0.5000 
     74 N          -3.2087  -23.9473  -48.5286 N.am      13 UNK        -0.5000 
     75 CA         -4.2255  -24.8622  -48.0128 C.3       13 UNK         0.1400 
     76 CB         -4.8571  -24.2798  -46.7400 C.3       13 UNK        -0.1800 
     77 C          -3.6431  -26.2660  -47.7695 C.2       13 UNK         0.5000 
     78 O          -4.2460  -27.2520  -48.1926 O.2       13 UNK        -0.5000 
     79 N          -2.4535  -26.3262  -47.1531 N.am      14 UNK        -0.5000 
     80 CA         -1.6885  -27.5525  -46.9120 C.3       14 UNK         0.1400 
     81 CB         -0.4762  -27.2283  -46.0260 C.3       14 UNK        -0.1800 
     82 C          -1.2425  -28.2542  -48.2098 C.2       14 UNK         0.5000 
     83 O          -1.2667  -29.4835  -48.2756 O.2       14 UNK        -0.5000 
     84 N          -0.8824  -27.4621  -49.2290 N.am      15 UNK        -0.5000 
     85 CA         -0.5378  -27.9241  -50.5763 C.3       15 UNK         0.1400 
     86 CB          0.2215  -26.8024  -51.3032 C.3       15 UNK        -0.1800 
     87 C          -1.7548  -28.3698  -51.4148 C.2       15 UNK         0.5000 
     88 O          -1.5595  -28.9201  -52.4991 O.2       15 UNK        -0.5000 
     89 N          -2.9751  -28.1068  -50.9216 N.am      16 UNK        -0.5000 
     90 CA         -4.2725  -28.3556  -51.5604 C.3       16 UNK         0.1400 
     91 CB         -4.5033  -29.8628  -51.7970 C.3       16 UNK        -0.1800 
     92 C          -4.5107  -27.4998  -52.8240 C.2       16 UNK         0.5000 
     93 O          -5.3127  -27.8751  -53.6809 O.2       16 UNK        -0.5000 
     94 N          -3.8369  -26.3448  -52.9007 N.am      17 UNK        -0.5000 
     95 CA         -4.0576  -25.3083  -53.9088 C.3       17 UNK         0.1400 
     96 CB         -2.7692  -24.4859  -54.0693 C.3       17 UNK        -0.1800 
     97 C          -5.2410  -24.3949  -53.5337 C.2       17 UNK         0.5000 
     98 O          -5.8266  -23.7756  -54.4223 O.2       17 UNK        -0.5000 
     99 N          -5.5709  -24.3448  -52.2327 N.am      18 UNK        -0.5000 
    100 CA        -6.6215  -23.5491  -51.5981 C.3       18 UNK         0.1400 
    101 CB        -8.0246  -23.9578  -52.0992 C.3       18 UNK        -0.1800 
    102 C         -6.3143  -22.0465  -51.7171 C.2       18 UNK         0.5000 
    103 O         -5.4591  -21.5630  -50.9758 O.2       18 UNK        -0.5000 
    104 N         -7.0112  -21.3394  -52.6201 N.am      19 UNK        -0.5000 
    105 CA        -6.8239  -19.9237  -52.9716 C.3       19 UNK         0.1400 
    106 CB        -5.4819  -19.7392  -53.7124 C.3       19 UNK        -0.1800 
    107 C         -6.9686  -18.9622  -51.7711 C.2       19 UNK         0.5000 
    108 O         -6.2437  -17.9698  -51.6856 O.2       19 UNK        -0.5000 
    109 N         -7.8668  -19.3070  -50.8333 N.am      20 UNK        -0.5000 
    110 CA        -8.0845  -18.6480  -49.5355 C.3       20 UNK         0.1400 
    111 CB        -8.7190  -17.2555  -49.7324 C.3       20 UNK        -0.1800 
    112 C         -6.8080  -18.6061  -48.6628 C.2       20 UNK         0.5000 
    113 O         -6.5783  -17.6349  -47.9388 O.2       20 UNK        -0.5000 
    114 N         -5.9674  -19.6434  -48.8054 N.am      21 UNK        -0.5000 
    115 CA        -4.6283  -19.8014  -48.2310 C.3       21 UNK         0.1400 
    116 CB        -4.7037  -19.9345  -46.6973 C.3       21 UNK        -0.1800 
    117 C         -3.6265  -18.7160  -48.6911 C.2       21 UNK         0.5000 
    118 O         -2.6099  -18.5155  -48.0296 O.2       21 UNK        -0.5000 
    119 N         -3.9359  -18.0294  -49.8014 N.am      22 UNK        -0.5000 
    120 CA        -3.2480  -16.8323  -50.3124 C.3       22 UNK         0.1400 
    121 C         -3.3719  -15.5869  -49.3794 C.2       22 UNK         0.5000 
    122 N         -4.3455  -15.5300  -48.4758 N.am      22 UNK        -0.7600 
    123 O         -2.6017  -14.6379  -49.4955 O.2       22 UNK        -0.5000 
    124 C124       -1.7920  -17.1056  -50.7826 C.3       23 UNK        -0.0398 
    125 S125       -1.7118  -18.3519  -52.1129 S.3       23 UNK        -0.2404 
    126 C126       -0.1079  -17.9572  -52.8856 C.3       23 UNK        -0.0205 
    127 H127        5.7797  -10.3948  -50.5428 H         1 UNK         0.0600 
    128 H128        5.3964   -9.1006  -49.4032 H         1 UNK         0.0600 
    129 H129        6.5050  -10.3935  -48.9324 H         1 UNK         0.0600 
    130 H130        4.1349  -11.8918  -50.7247 H         1 UNK         0.3000 
    131 H131        3.0331  -13.3091  -48.5846 H         1 UNK         0.0600 
    132 H132        1.7616  -13.1189  -51.3552 H         1 UNK         0.0800 
    133 H133        1.6160  -14.4283  -50.2136 H         1 UNK         0.0800 
    134 H134        3.8196  -15.7562  -49.3476 H         1 UNK         0.0800 
    135 H135        4.9468  -16.3382  -50.5436 H         1 UNK         0.0800 
    136 H136        1.6903  -16.0725  -52.1296 H         1 UNK         0.1150 
    137 H137        0.6822  -20.1787  -51.5231 H         1 UNK         0.1150 
    138 H138        4.0242  -18.4914  -49.4537 H         1 UNK         0.1150 
    139 H139        2.1151  -21.6106  -50.2395 H         1 UNK         0.0800 
    140 H140        3.6764  -21.0323  -49.6943 H         1 UNK         0.0800 
    141 H141        2.8413  -22.4190  -46.5564 H         1 UNK         0.0800 
    142 H142        2.7896  -23.0112  -48.1861 H         1 UNK         0.0800 
    143 H143        1.1792  -24.1004  -46.5908 H         1 UNK         0.0600 
    144 H144        0.3650  -21.4911  -45.9451 H         1 UNK         0.3000 
    145 H145       -2.2160  -21.3181  -44.8535 H         1 UNK         0.0600 
    146 H146       -2.7980  -22.1810  -42.5690 H         1 UNK         0.0600 
    147 H147       -3.2900  -23.2831  -43.8434 H         1 UNK         0.0600 
    148 H148       -1.8597  -23.6404  -42.8876 H         1 UNK         0.0600 
    149 H149       -0.5402  -20.2792  -43.9079 H         1 UNK         0.3000 
    150 H150        1.9625  -21.0004  -41.5625 H         1 UNK         0.0600 
    151 H151        3.1469  -21.4147  -43.7269 H         1 UNK         0.0600 
    152 H152        3.3948  -19.7646  -43.1751 H         1 UNK         0.0600 
    153 H153        2.2586  -20.0959  -44.4805 H         1 UNK         0.0600 
    154 H154        1.0930  -18.6083  -42.9098 H         1 UNK         0.3000 
    155 H155       -1.5168  -17.7918  -40.5741 H         1 UNK         0.0600 
    156 H156        1.1782  -16.5141  -41.2818 H         1 UNK         0.0600 
    157 H157        0.5927  -16.8552  -39.6596 H         1 UNK         0.0600 
    158 H158       -0.2282  -15.6590  -40.6523 H         1 UNK         0.0600 
    159 H159       -0.6862  -16.5267  -42.9837 H         1 UNK         0.3000 
    160 H160       -2.7452  -18.3732  -45.2354 H         1 UNK         0.0600 
    161 H161       -3.5413  -16.0864  -45.7727 H         1 UNK         0.0600 
    162 H162       -2.9671  -15.4937  -44.2134 H         1 UNK         0.0600 
    163 H163       -4.2772  -16.6652  -44.2872 H         1 UNK         0.0600 
    164 H164       -0.9322  -16.1469  -45.4870 H         1 UNK         0.3000 
    165 H165        1.9068  -18.1083  -46.4112 H         1 UNK         0.0600 
    166 H166        1.6780  -16.5198  -48.3542 H         1 UNK         0.0600 
    167 H167        0.5841  -17.8892  -48.4757 H         1 UNK         0.0600 
    168 H168       -0.0305  -16.3144  -47.9821 H         1 UNK         0.0600 
    169 H169        1.4793  -15.2987  -46.2101 H         1 UNK         0.3000 
    170 H170        2.2215  -14.8492  -42.7806 H         1 UNK         0.0600 
    171 H171        4.4801  -15.0763  -43.8328 H         1 UNK         0.0600 
    172 H172        4.0013  -13.3907  -43.7106 H         1 UNK         0.0600 
    173 H173        3.9134  -14.2221  -45.2634 H         1 UNK         0.0600 
    174 H174        1.7755  -13.0040  -44.8981 H         1 UNK         0.3000 
    175 H175       -1.1534  -13.1325  -45.7238 H         1 UNK         0.0600 
    176 H176       -2.5338  -11.4187  -44.5052 H         1 UNK         0.0600 
    177 H177       -2.6679  -13.0287  -43.8192 H         1 UNK         0.0600 
    178 H178       -1.6842  -11.8215  -43.0122 H         1 UNK         0.0600 
    179 H179        0.2107  -11.5312  -46.2967 H         1 UNK         0.3000 
    180 H180        1.0296   -8.5076  -45.0556 H         1 UNK         0.0600 
    181 H181        3.3459  -10.5145  -45.1529 H         1 UNK         0.0600 
    182 H182        3.0296   -9.3539  -43.8703 H         1 UNK         0.0600 
    183 H183        3.4903   -8.7853  -45.4668 H         1 UNK         0.0600 
    184 H184        2.1252  -10.0326  -47.2635 H         1 UNK         0.3000 
    185 H185       -0.7291  -10.1993  -49.2181 H         1 UNK         0.0600 
    186 H186        1.3239   -7.9864  -49.7642 H         1 UNK         0.0600 
    187 H187        0.2741   -8.7447  -50.9627 H         1 UNK         0.0600 
    188 H188       -0.4191   -7.7593  -49.6862 H         1 UNK         0.0600 
    189 H189        1.9712  -10.3470  -50.0440 H         1 UNK         0.3000 
    190 H190       -0.7442  -21.8158  -48.5783 H         1 UNK         0.3000 
    191 H191       -0.9126  -23.5879  -50.8442 H         1 UNK         0.0600 
    192 H192       -1.2394  -21.2177  -51.1894 H         1 UNK         0.0600 
    193 H193       -2.5637  -21.1502  -50.0394 H         1 UNK         0.0600 
    194 H194       -2.7578  -22.0065  -51.5609 H         1 UNK         0.0600 
    195 H195       -2.7978  -23.3003  -47.8729 H         1 UNK         0.3000 
    196 H196       -5.0145  -24.9543  -48.7623 H         1 UNK         0.0600 
    197 H197       -5.6501  -24.9298  -46.3684 H         1 UNK         0.0600 
    198 H198       -5.3009  -23.3028  -46.9324 H         1 UNK         0.0600 
    199 H199       -4.1279  -24.1653  -45.9392 H         1 UNK         0.0600 
    200 H200       -2.0460  -25.4652  -46.7953 H         1 UNK         0.3000 
    201 H201       -2.3340  -28.2441  -46.3670 H         1 UNK         0.0600 
    202 H202       -0.7878  -26.7972  -45.0744 H         1 UNK         0.0600 
    203 H203        0.1961  -26.5186  -46.5090 H         1 UNK         0.0600 
    204 H204        0.0985  -28.1282  -45.8040 H         1 UNK         0.0600 
    205 H205       -0.8041  -26.4635  -49.0623 H         1 UNK         0.3000 
    206 H206        0.1283  -28.7844  -50.4862 H         1 UNK         0.0600 
    207 H207        1.1190  -26.5137  -50.7560 H         1 UNK         0.0600 
    208 H208        0.5383  -27.1204  -52.2973 H         1 UNK         0.0600 
    209 H209       -0.3987  -25.9142  -51.4255 H         1 UNK         0.0600 
    210 H210       -3.0270  -27.6552  -50.0170 H         1 UNK         0.3000 
    211 H211       -5.0210  -28.0251  -50.8390 H         1 UNK         0.0600 
    212 H212       -3.8524  -30.2575  -52.5773 H         1 UNK         0.0600 
    213 H213       -5.5317  -30.0568  -52.1035 H         1 UNK         0.0600 
    214 H214       -4.3243  -30.4361  -50.8873 H         1 UNK         0.0600 
    215 H215       -3.2498  -26.0810  -52.1157 H         1 UNK         0.3000 
    216 H216       -4.2854  -25.7789  -54.8674 H         1 UNK         0.0600 
    217 H217       -2.8875  -23.7222  -54.8390 H         1 UNK         0.0600 
    218 H218       -1.9323  -25.1191  -54.3644 H         1 UNK         0.0600 
    219 H219       -2.4946  -23.9784  -53.1444 H         1 UNK         0.0600 
    220 H220       -4.9451  -24.8198  -51.5932 H         1 UNK         0.3000 
    221 H221       -6.5787  -23.7830  -50.5333 H         1 UNK         0.0600 
    222 H222       -8.1539  -23.8009  -53.1701 H         1 UNK         0.0600 
    223 H223       -8.2131  -25.0127  -51.8994 H         1 UNK         0.0600 
    224 H224       -8.8025  -23.3909  -51.5862 H         1 UNK         0.0600 
    225 H225       -7.6855  -21.8407  -53.1814 H         1 UNK         0.3000 
    226 H226       -7.6251  -19.6670  -53.6658 H         1 UNK         0.0600 
    227 H227       -5.4005  -20.4237  -54.5569 H         1 UNK         0.0600 
    228 H228       -5.3849  -18.7266  -54.1056 H         1 UNK         0.0600 
    229 H229       -4.6296  -19.9171  -53.0550 H         1 UNK         0.0600 
    230 H230       -8.4086  -20.1445  -50.9944 H         1 UNK         0.3000 
    231 H231       -8.8019  -19.2643  -48.9921 H         1 UNK         0.0600 
    232 H232       -9.6184  -17.3151  -50.3450 H         1 UNK         0.0600 
    233 H233       -8.0305  -16.5602  -50.2137 H         1 UNK         0.0600 
    234 H234       -9.0079  -16.8184  -48.7759 H         1 UNK         0.0600 
    235 H235       -6.2007  -20.3488  -49.4956 H         1 UNK         0.3000 
    236 H236       -4.2546  -20.7500  -48.6144 H         1 UNK         0.0600 
    237 H237       -3.7404  -20.2385  -46.2895 H         1 UNK         0.0600 
    238 H238       -4.9817  -18.9936  -46.2216 H         1 UNK         0.0600 
    239 H239       -5.4311  -20.6899  -46.4004 H         1 UNK         0.0600 
    240 H240       -4.7914  -18.2601  -50.2940 H         1 UNK         0.3000 
    241 H241       -3.8120  -16.5452  -51.2003 H         1 UNK         0.0600 
    242 H242       -4.4285  -14.7114  -47.8958 H         1 UNK         0.3800 
    243 H243       -5.0063  -16.2905  -48.3673 H         1 UNK         0.3800 
    244 H244       -1.3328  -16.1887  -51.1553 H         1 UNK         0.0800 
    245 H245       -1.1731  -17.4411  -49.9523 H         1 UNK         0.0800 
    246 H246       -0.1512  -16.9475  -53.2967 H         1 UNK         0.0800 
    247 H247        0.0473  -18.6265  -53.7326 H         1 UNK         0.0800 
@<TRIPOS>BOND
     1    1    2 1    
     2    1  127 1    
     3    1  128 1    
     4    1  129 1    
     5    2    3 2    
     6    2    4 am   BACKBONE|DICT|INTERRES
     7    4    5 1    
     8    4  130 1    
     9    5    6 1    
    10    5   65 1    
    11    5  131 1    
    12    6    7 1    
    13    6  132 1    
    14    6  133 1    
    15    7    8 1    
    16    8    9 1    
    17    8  134 1    
    18    8  135 1    
    19    9   10 ar   
    20    9   14 ar   
    21   10   11 ar   
    22   10  136 1    
    23   11   12 ar   
    24   11  126 1    
    25   12   13 ar   
    26   12  137 1    
    27   13   14 ar   
    28   13   15 1    
    29   14  138 1    
    30   15   16 1    
    31   15  139 1    
    32   15  140 1    
    33   16   17 1    
    34   17   18 1    
    35   17  141 1    
    36   17  142 1    
    37   18   19 1    
    38   18   67 1    
    39   18  143 1    
    40   19   20 am   BACKBONE|DICT|INTERRES
    41   19  144 1    
    42   20   21 2    
    43   20   22 1    
    44   22   23 1    
    45   22   24 1    
    46   22  145 1    
    47   23  146 1    
    48   23  147 1    
    49   23  148 1    
    50   24   25 am   BACKBONE|DICT|INTERRES
    51   24  149 1    
    52   25   26 2    
    53   25   27 1    
    54   27   28 1    
    55   27   29 1    
    56   27  150 1    
    57   28  151 1    
    58   28  152 1    
    59   28  153 1    
    60   29   30 am   BACKBONE|DICT|INTERRES
    61   29  154 1    
    62   30   31 2    
    63   30   32 1    
    64   32   33 1    
    65   32   34 1    
    66   32  155 1    
    67   33  156 1    
    68   33  157 1    
    69   33  158 1    
    70   34   35 am   BACKBONE|DICT|INTERRES
    71   34  159 1    
    72   35   36 2    
    73   35   37 1    
    74   37   38 1    
    75   37   39 1    
    76   37  160 1    
    77   38  161 1    
    78   38  162 1    
    79   38  163 1    
    80   39   40 am   BACKBONE|DICT|INTERRES
    81   39  164 1    
    82   40   41 2    
    83   40   42 1    
    84   42   43 1    
    85   42   44 1    
    86   42  165 1    
    87   43  166 1    
    88   43  167 1    
    89   43  168 1    
    90   44   45 am   BACKBONE|DICT|INTERRES
    91   44  169 1    
    92   45   46 2    
    93   45   47 1    
    94   47   48 1    
    95   47   49 1    
    96   47  170 1    
    97   48  171 1    
    98   48  172 1    
    99   48  173 1    
   100   49   50 am   BACKBONE|DICT|INTERRES
   101   49  174 1    
   102   50   51 2    
   103   50   52 1    
   104   52   53 1    
   105   52   54 1    
   106   52  175 1    
   107   53  176 1    
   108   53  177 1    
   109   53  178 1    
   110   54   55 am   BACKBONE|DICT|INTERRES
   111   54  179 1    
   112   55   56 2    
   113   55   57 1    
   114   57   58 1    
   115   57   59 1    
   116   57  180 1    
   117   58  181 1    
   118   58  182 1    
   119   58  183 1    
   120   59   60 am   BACKBONE|DICT|INTERRES
   121   59  184 1    
   122   60   61 2    
   123   60   62 1    
   124   62   63 1    
   125   62   64 1    
   126   62  185 1    
   127   63  186 1    
   128   63  187 1    
   129   63  188 1    
   130   64   65 am   BACKBONE|DICT|INTERRES
   131   64  189 1    
   132   65   66 2    
   133   67   68 2    
   134   67   69 am   BACKBONE|DICT|INTERRES
   135   69   70 1    
   136   69  190 1    
   137   70   71 1    
   138   70   72 1    
   139   70  191 1    
   140   71  192 1    
   141   71  193 1    
   142   71  194 1    
   143   72   73 2    
   144   72   74 am   BACKBONE|DICT|INTERRES
   145   74   75 1    
   146   74  195 1    
   147   75   76 1    
   148   75   77 1    
   149   75  196 1    
   150   76  197 1    
   151   76  198 1    
   152   76  199 1    
   153   77   78 2    
   154   77   79 am   BACKBONE|DICT|INTERRES
   155   79   80 1    
   156   79  200 1    
   157   80   81 1    
   158   80   82 1    
   159   80  201 1    
   160   81  202 1    
   161   81  203 1    
   162   81  204 1    
   163   82   83 2    
   164   82   84 am   BACKBONE|DICT|INTERRES
   165   84   85 1    
   166   84  205 1    
   167   85   86 1    
   168   85   87 1    
   169   85  206 1    
   170   86  207 1    
   171   86  208 1    
   172   86  209 1    
   173   87   88 2    
   174   87   89 am   BACKBONE|DICT|INTERRES
   175   89   90 1    
   176   89  210 1    
   177   90   91 1    
   178   90   92 1    
   179   90  211 1    
   180   91  212 1    
   181   91  213 1    
   182   91  214 1    
   183   92   93 2    
   184   92   94 am   BACKBONE|DICT|INTERRES
   185   94   95 1    
   186   94  215 1    
   187   95   96 1    
   188   95   97 1    
   189   95  216 1    
   190   96  217 1    
   191   96  218 1    
   192   96  219 1    
   193   97   98 2    
   194   97   99 am   BACKBONE|DICT|INTERRES
   195   99  100 1    
   196   99  220 1    
   197  100  101 1    
   198  100  102 1    
   199  100  221 1    
   200  101  222 1    
   201  101  223 1    
   202  101  224 1    
   203  102  103 2    
   204  102  104 am   BACKBONE|DICT|INTERRES
   205  104  105 1    
   206  104  225 1    
   207  105  106 1    
   208  105  107 1    
   209  105  226 1    
   210  106  227 1    
   211  106  228 1    
   212  106  229 1    
   213  107  108 2    
   214  107  109 am   BACKBONE|DICT|INTERRES
   215  109  110 1    
   216  109  230 1    
   217  110  111 1    
   218  110  112 1    
   219  110  231 1    
   220  111  232 1    
   221  111  233 1    
   222  111  234 1    
   223  112  113 2    
   224  112  114 am   BACKBONE|DICT|INTERRES
   225  114  115 1    
   226  114  235 1    
   227  115  116 1    
   228  115  117 1    
   229  115  236 1    
   230  116  237 1    
   231  116  238 1    
   232  116  239 1    
   233  117  118 2    
   234  117  119 am   BACKBONE|DICT|INTERRES
   235  119  120 1    
   236  119  240 1    
   237  120  121 1    
   238  120  124 1    
   239  120  241 1    
   240  121  122 am   BACKBONE|DICT|INTERRES
   241  121  123 2    
   242  122  242 1    
   243  122  243 1    
   244  124  125 1    
   245  124  244 1    
   246  124  245 1    
   247  125  126 1    
   248  126  246 1    
   249  126  247 1    
@<TRIPOS>SUBSTRUCTURE
     1 UNK         1 GROUP             0       ****    0 ROOT    
