@<TRIPOS>MOLECULE
3R540
247   249    1
SMALL
USER_CHARGES


@<TRIPOS>ATOM
      1 CA          0.6600  -11.0795  -52.5403 C.3       0 UNK        -0.1800 
      2 C          -0.0753  -12.0168  -51.5928 C.2       0 UNK         0.5000 
      3 O          -1.1748  -12.4670  -51.9150 O.2       0 UNK        -0.5000 
      4 N           0.5325  -12.3087  -50.4342 N.am      1 UNK        -0.5000 
      5 CA          0.0118  -13.1700  -49.3642 C.3       1 UNK         0.1400 
      6 C6         -0.1641  -14.6548  -49.7919 C.3       23 UNK        -0.0398 
      7 S7          1.3982  -15.3922  -50.3841 S.3       23 UNK        -0.2404 
      8 C8          1.7952  -16.5689  -49.0540 C.3       23 UNK        -0.0205 
      9 C9          1.3436  -17.9820  -49.3911 C.ar      23 UNK        -0.0193 
     10 C10        -0.0105  -18.3293  -49.3421 C.ar      23 UNK        -0.1150 
     11 C11        -0.4321  -19.6286  -49.6442 C.ar      23 UNK        -0.0193 
     12 C12         0.5334  -20.5828  -49.9887 C.ar      23 UNK        -0.1150 
     13 C13         1.8875  -20.2536  -50.0424 C.ar      23 UNK        -0.0193 
     14 C14         2.2880  -18.9500  -49.7450 C.ar      23 UNK        -0.1150 
     15 C15         2.9085  -21.3098  -50.4408 C.3       23 UNK        -0.0205 
     16 S16         3.6031  -22.1816  -49.0016 S.3       23 UNK        -0.2404 
     17 C17         2.1453  -23.0728  -48.3535 C.3       23 UNK        -0.0398 
     18 CA          2.5278  -24.0832  -47.2436 C.3       11 UNK         0.1400 
     19 N           3.0529  -23.4051  -46.0515 N.am      11 UNK        -0.5000 
     20 C           3.8474  -23.9518  -45.1216 C.2       10 UNK         0.5000 
     21 O           4.3071  -25.0912  -45.1984 O.2       10 UNK        -0.5000 
     22 CA          4.1145  -23.1051  -43.8605 C.3       10 UNK         0.1400 
     23 CB          5.3201  -22.1766  -44.0677 C.3       10 UNK        -0.1800 
     24 N           2.9468  -22.3165  -43.4526 N.am      10 UNK        -0.5000 
     25 C           1.7835  -22.8367  -43.0334 C.2       9 UNK         0.5000 
     26 O           1.5966  -24.0429  -42.8823 O.2       9 UNK        -0.5000 
     27 CA          0.6166  -21.8620  -42.7969 C.3       9 UNK         0.1400 
     28 CB          0.6652  -21.2626  -41.3838 C.3       9 UNK        -0.1800 
     29 N           0.6004  -20.7889  -43.7879 N.am      9 UNK        -0.5000 
     30 C           0.1867  -20.9340  -45.0546 C.2       8 UNK         0.5000 
     31 O          -0.3002  -21.9711  -45.5067 O.2       8 UNK        -0.5000 
     32 CA          0.3755  -19.7171  -45.9780 C.3       8 UNK         0.1400 
     33 CB         -0.8642  -18.8138  -45.9405 C.3       8 UNK        -0.1800 
     34 N           1.5657  -18.9312  -45.6407 N.am      8 UNK        -0.5000 
     35 C           2.8158  -19.3810  -45.8237 C.2       7 UNK         0.5000 
     36 O           3.0711  -20.5003  -46.2595 O.2       7 UNK        -0.5000 
     37 CA          3.9764  -18.4683  -45.3872 C.3       7 UNK         0.1400 
     38 CB          4.3294  -17.4667  -46.4946 C.3       7 UNK        -0.1800 
     39 N           3.7145  -17.7410  -44.1466 N.am      7 UNK        -0.5000 
     40 C           3.4372  -18.3059  -42.9648 C.2       6 UNK         0.5000 
     41 O           3.3801  -19.5233  -42.7884 O.2       6 UNK        -0.5000 
     42 CA          3.1238  -17.3635  -41.7863 C.3       6 UNK         0.1400 
     43 CB          3.5297  -15.8921  -42.0299 C.3       6 UNK        -0.1800 
     44 N           1.7133  -17.4402  -41.3934 N.am      6 UNK        -0.5000 
     45 C           0.6456  -17.2338  -42.1773 C.2       5 UNK         0.5000 
     46 O           0.7074  -16.9894  -43.3862 O.2       5 UNK        -0.5000 
     47 CA         -0.7201  -17.3055  -41.4812 C.3       5 UNK         0.1400 
     48 CB         -0.9107  -16.1303  -40.5037 C.3       5 UNK        -0.1800 
     49 N          -1.7716  -17.2696  -42.4892 N.am      5 UNK        -0.5000 
     50 C          -3.0067  -17.7576  -42.3516 C.2       4 UNK         0.5000 
     51 O          -3.3965  -18.3407  -41.3386 O.2       4 UNK        -0.5000 
     52 CA         -3.9698  -17.5092  -43.5311 C.3       4 UNK         0.1400 
     53 CB         -5.3904  -18.0347  -43.2554 C.3       4 UNK        -0.1800 
     54 N          -4.0454  -16.0807  -43.8521 N.am      4 UNK        -0.5000 
     55 C          -3.1990  -15.4294  -44.6574 C.2       3 UNK         0.5000 
     56 O          -2.2600  -15.9714  -45.2420 O.2       3 UNK        -0.5000 
     57 CA         -3.4238  -13.9258  -44.8406 C.3       3 UNK         0.1400 
     58 CB         -2.4191  -13.1117  -44.0090 C.3       3 UNK        -0.1800 
     59 N          -3.2597  -13.6268  -46.2577 N.am      3 UNK        -0.5000 
     60 C          -3.9259  -12.6846  -46.9337 C.2       2 UNK         0.5000 
     61 O          -4.6874  -11.8759  -46.4005 O.2       2 UNK        -0.5000 
     62 CA         -3.7439  -12.6823  -48.4656 C.3       2 UNK         0.1400 
     63 CB         -4.1176  -11.3391  -49.1276 C.3       2 UNK        -0.1800 
     64 N          -2.4220  -13.1473  -48.9009 N.am      2 UNK        -0.5000 
     65 C          -1.2461  -12.5226  -48.7381 C.2       1 UNK         0.5000 
     66 O          -1.1167  -11.4570  -48.1324 O.2       1 UNK        -0.5000 
     67 C           1.3562  -25.0478  -46.9239 C.2       11 UNK         0.5000 
     68 O           0.8318  -25.6754  -47.8447 O.2       11 UNK        -0.5000 
     69 N           0.9707  -25.1681  -45.6436 N.am      12 UNK        -0.5000 
     70 CA          0.0297  -26.1129  -45.0266 C.3       12 UNK         0.1400 
     71 CB          0.4733  -27.5693  -45.2618 C.3       12 UNK        -0.1800 
     72 C          -1.4553  -25.9258  -45.3876 C.2       12 UNK         0.5000 
     73 O          -2.3070  -26.1430  -44.5248 O.2       12 UNK        -0.5000 
     74 N          -1.7520  -25.5503  -46.6366 N.am      13 UNK        -0.5000 
     75 CA         -3.1094  -25.3989  -47.1623 C.3       13 UNK         0.1400 
     76 CB         -3.0485  -25.2728  -48.6910 C.3       13 UNK        -0.1800 
     77 C          -3.8982  -24.2365  -46.5282 C.2       13 UNK         0.5000 
     78 O          -5.1105  -24.3661  -46.3548 O.2       13 UNK        -0.5000 
     79 N          -3.1984  -23.1451  -46.1758 N.am      14 UNK        -0.5000 
     80 CA         -3.6973  -21.9670  -45.4530 C.3       14 UNK         0.1400 
     81 CB         -3.9302  -22.3155  -43.9695 C.3       14 UNK        -0.1800 
     82 C          -4.9147  -21.2729  -46.1069 C.2       14 UNK         0.5000 
     83 O          -5.7660  -20.7258  -45.4060 O.2       14 UNK        -0.5000 
     84 N          -4.9642  -21.2831  -47.4458 N.am      15 UNK        -0.5000 
     85 CA         -6.0438  -20.7106  -48.2589 C.3       15 UNK         0.1400 
     86 CB         -6.0899  -21.4507  -49.6019 C.3       15 UNK        -0.1800 
     87 C          -5.9114  -19.1877  -48.4764 C.2       15 UNK         0.5000 
     88 O          -6.7412  -18.5993  -49.1709 O.2       15 UNK        -0.5000 
     89 N          -4.8723  -18.5836  -47.8845 N.am      16 UNK        -0.5000 
     90 CA         -4.5366  -17.1602  -47.8163 C.3       16 UNK         0.1400 
     91 CB         -5.6692  -16.3473  -47.1595 C.3       16 UNK        -0.1800 
     92 C          -4.1046  -16.5252  -49.1473 C.2       16 UNK         0.5000 
     93 O          -3.0263  -15.9348  -49.2069 O.2       16 UNK        -0.5000 
     94 N          -4.9423  -16.6214  -50.1833 N.am      17 UNK        -0.5000 
     95 CA         -4.8092  -15.9094  -51.4586 C.3       17 UNK         0.1400 
     96 CB         -6.2070  -15.7430  -52.0798 C.3       17 UNK        -0.1800 
     97 C          -3.7703  -16.5273  -52.4227 C.2       17 UNK         0.5000 
     98 O          -4.0710  -16.7580  -53.5956 O.2       17 UNK        -0.5000 
     99 N          -2.5560  -16.7520  -51.9025 N.am      18 UNK        -0.5000 
    100 CA        -1.3485  -17.2258  -52.5866 C.3       18 UNK         0.1400 
    101 CB        -0.8883  -16.1863  -53.6318 C.3       18 UNK        -0.1800 
    102 C         -1.4832  -18.6439  -53.1801 C.2       18 UNK         0.5000 
    103 O         -2.4652  -19.3461  -52.9248 O.2       18 UNK        -0.5000 
    104 N         -0.4809  -19.0553  -53.9685 N.am      19 UNK        -0.5000 
    105 CA        -0.3946  -20.3675  -54.6192 C.3       19 UNK         0.1400 
    106 CB         0.9390  -20.4648  -55.3739 C.3       19 UNK        -0.1800 
    107 C         -1.5748  -20.6882  -55.5591 C.2       19 UNK         0.5000 
    108 O         -1.8874  -21.8620  -55.7552 O.2       19 UNK        -0.5000 
    109 N         -2.2375  -19.6474  -56.0821 N.am      20 UNK        -0.5000 
    110 CA        -3.4693  -19.7429  -56.8653 C.3       20 UNK         0.1400 
    111 CB        -3.8216  -18.3502  -57.4098 C.3       20 UNK        -0.1800 
    112 C         -4.6568  -20.3267  -56.0720 C.2       20 UNK         0.5000 
    113 O         -5.5004  -20.9989  -56.6666 O.2       20 UNK        -0.5000 
    114 N         -4.6968  -20.0728  -54.7568 N.am      21 UNK        -0.5000 
    115 CA        -5.7028  -20.6070  -53.8422 C.3       21 UNK         0.1400 
    116 CB        -6.1085  -19.5144  -52.8444 C.3       21 UNK        -0.1800 
    117 C         -5.1809  -21.8490  -53.1050 C.2       21 UNK         0.5000 
    118 O         -5.9178  -22.8278  -52.9798 O.2       21 UNK        -0.5000 
    119 N         -3.9309  -21.7883  -52.6249 N.am      22 UNK        -0.5000 
    120 CA        -3.2707  -22.8802  -51.8913 C.3       22 UNK         0.1400 
    121 C         -2.9317  -24.1316  -52.7549 C.2       22 UNK         0.5000 
    122 N         -2.7604  -24.0229  -54.0659 N.am      22 UNK        -0.7600 
    123 O         -2.8283  -25.2317  -52.2206 O.2       22 UNK        -0.5000 
    124 C124       -2.0166  -22.3768  -51.1294 C.3       23 UNK        -0.0398 
    125 S125       -2.3906  -21.7024  -49.4703 S.3       23 UNK        -0.2404 
    126 C126       -1.9301  -19.9399  -49.5897 C.3       23 UNK        -0.0205 
    127 H127        1.6218  -10.7640  -52.1349 H         1 UNK         0.0600 
    128 H128        0.0603  -10.1884  -52.7264 H         1 UNK         0.0600 
    129 H129        0.8396  -11.5764  -53.4937 H         1 UNK         0.0600 
    130 H130        1.4260  -11.8818  -50.2354 H         1 UNK         0.3000 
    131 H131        0.7664  -13.1544  -48.5759 H         1 UNK         0.0600 
    132 H132       -0.8997  -14.7496  -50.5907 H         1 UNK         0.0800 
    133 H133       -0.5383  -15.2418  -48.9532 H         1 UNK         0.0800 
    134 H134        1.3616  -16.2520  -48.1046 H         1 UNK         0.0800 
    135 H135        2.8759  -16.5484  -48.9126 H         1 UNK         0.0800 
    136 H136       -0.7419  -17.5824  -49.0696 H         1 UNK         0.1150 
    137 H137        0.2568  -21.5990  -50.2096 H         1 UNK         0.1150 
    138 H138        3.3370  -18.6930  -49.7852 H         1 UNK         0.1150 
    139 H139        2.4615  -22.0336  -51.1240 H         1 UNK         0.0800 
    140 H140        3.7241  -20.8395  -50.9918 H         1 UNK         0.0800 
    141 H141        1.6668  -23.5771  -49.1949 H         1 UNK         0.0800 
    142 H142        1.4237  -22.3496  -47.9701 H         1 UNK         0.0800 
    143 H143        3.3233  -24.7169  -47.6412 H         1 UNK         0.0600 
    144 H144        2.8117  -22.4222  -45.9595 H         1 UNK         0.3000 
    145 H145        4.3521  -23.7905  -43.0443 H         1 UNK         0.0600 
    146 H146        5.5191  -21.5808  -43.1766 H         1 UNK         0.0600 
    147 H147        6.2207  -22.7527  -44.2835 H         1 UNK         0.0600 
    148 H148        5.1640  -21.4927  -44.9012 H         1 UNK         0.0600 
    149 H149        3.0450  -21.3061  -43.4839 H         1 UNK         0.3000 
    150 H150       -0.3123  -22.4298  -42.8873 H         1 UNK         0.0600 
    151 H151        0.6672  -22.0494  -40.6284 H         1 UNK         0.0600 
    152 H152       -0.2057  -20.6356  -41.1947 H         1 UNK         0.0600 
    153 H153        1.5577  -20.6571  -41.2268 H         1 UNK         0.0600 
    154 H154        1.0443  -19.9202  -43.5269 H         1 UNK         0.3000 
    155 H155        0.4970  -20.0924  -46.9954 H         1 UNK         0.0600 
    156 H156       -1.0827  -18.4801  -44.9274 H         1 UNK         0.0600 
    157 H157       -1.7434  -19.3380  -46.3127 H         1 UNK         0.0600 
    158 H158       -0.7294  -17.9266  -46.5588 H         1 UNK         0.0600 
    159 H159        1.4169  -18.0318  -45.1978 H         1 UNK         0.3000 
    160 H160        4.8468  -19.1048  -45.2181 H         1 UNK         0.0600 
    161 H161        3.5377  -16.7302  -46.6314 H         1 UNK         0.0600 
    162 H162        4.4834  -17.9737  -47.4483 H         1 UNK         0.0600 
    163 H163        5.2486  -16.9295  -46.2607 H         1 UNK         0.0600 
    164 H164        3.7021  -16.7336  -44.2068 H         1 UNK         0.3000 
    165 H165        3.7067  -17.7314  -40.9407 H         1 UNK         0.0600 
    166 H166        3.3757  -15.2957  -41.1305 H         1 UNK         0.0600 
    167 H167        4.5865  -15.8117  -42.2880 H         1 UNK         0.0600 
    168 H168        2.9524  -15.4285  -42.8306 H         1 UNK         0.0600 
    169 H169        1.5543  -17.6653  -40.4214 H         1 UNK         0.3000 
    170 H170       -0.7711  -18.2495  -40.9355 H         1 UNK         0.0600 
    171 H171       -0.1464  -16.1303  -39.7259 H         1 UNK         0.0600 
    172 H172       -0.8567  -15.1701  -41.0186 H         1 UNK         0.0600 
    173 H173       -1.8770  -16.1851  -40.0022 H         1 UNK         0.0600 
    174 H174       -1.4992  -16.8409  -43.3691 H         1 UNK         0.3000 
    175 H175       -3.5793  -18.0570  -44.3914 H         1 UNK         0.0600 
    176 H176       -5.8537  -17.5246  -42.4101 H         1 UNK         0.0600 
    177 H177       -6.0376  -17.9043  -44.1220 H         1 UNK         0.0600 
    178 H178       -5.3758  -19.1016  -43.0286 H         1 UNK         0.0600 
    179 H179       -4.7686  -15.5598  -43.3768 H         1 UNK         0.3000 
    180 H180       -4.4402  -13.6806  -44.5247 H         1 UNK         0.0600 
    181 H181       -1.3899  -13.3283  -44.2986 H         1 UNK         0.0600 
    182 H182       -2.5171  -13.3377  -42.9465 H         1 UNK         0.0600 
    183 H183       -2.5825  -12.0409  -44.1318 H         1 UNK         0.0600 
    184 H184       -2.6652  -14.2746  -46.7587 H         1 UNK         0.3000 
    185 H185       -4.4508  -13.4231  -48.8409 H         1 UNK         0.0600 
    186 H186       -5.1652  -11.0940  -48.9490 H         1 UNK         0.0600 
    187 H187       -3.5208  -10.5133  -48.7401 H         1 UNK         0.0600 
    188 H188       -3.9745  -11.3793  -50.2076 H         1 UNK         0.0600 
    189 H189       -2.4309  -14.0551  -49.3532 H         1 UNK         0.3000 
    190 H190        1.4349  -24.5698  -44.9719 H         1 UNK         0.3000 
    191 H191        0.1001  -25.9298  -43.9540 H         1 UNK         0.0600 
    192 H192        0.4143  -27.8493  -46.3139 H         1 UNK         0.0600 
    193 H193       -0.1589  -28.2628  -44.7059 H         1 UNK         0.0600 
    194 H194        1.4991  -27.7269  -44.9286 H         1 UNK         0.0600 
    195 H195       -0.9798  -25.4446  -47.2878 H         1 UNK         0.3000 
    196 H196       -3.6584  -26.3139  -46.9297 H         1 UNK         0.0600 
    197 H197       -2.3370  -24.5101  -49.0010 H         1 UNK         0.0600 
    198 H198       -4.0212  -25.0142  -49.1117 H         1 UNK         0.0600 
    199 H199       -2.7375  -26.2123  -49.1480 H         1 UNK         0.0600 
    200 H200       -2.2014  -23.1462  -46.3533 H         1 UNK         0.3000 
    201 H201       -2.8940  -21.2328  -45.4859 H         1 UNK         0.0600 
    202 H202       -3.0380  -22.7591  -43.5270 H         1 UNK         0.0600 
    203 H203       -4.7519  -23.0217  -43.8470 H         1 UNK         0.0600 
    204 H204       -4.1699  -21.4252  -43.3868 H         1 UNK         0.0600 
    205 H205       -4.2173  -21.7419  -47.9514 H         1 UNK         0.3000 
    206 H206       -6.9930  -20.8832  -47.7476 H         1 UNK         0.0600 
    207 H207       -6.1062  -22.5322  -49.4651 H         1 UNK         0.0600 
    208 H208       -6.9842  -21.1828  -50.1648 H         1 UNK         0.0600 
    209 H209       -5.2275  -21.1997  -50.2169 H         1 UNK         0.0600 
    210 H210       -4.2591  -19.1906  -47.3631 H         1 UNK         0.3000 
    211 H211       -3.6695  -17.1048  -47.1584 H         1 UNK         0.0600 
    212 H212       -6.5849  -16.3631  -47.7507 H         1 UNK         0.0600 
    213 H213       -5.3867  -15.3028  -47.0393 H         1 UNK         0.0600 
    214 H214       -5.9073  -16.7339  -46.1698 H         1 UNK         0.0600 
    215 H215       -5.7762  -17.1883  -50.0550 H         1 UNK         0.3000 
    216 H216       -4.4441  -14.9026  -51.2439 H         1 UNK         0.0600 
    217 H217       -6.1585  -15.2325  -53.0425 H         1 UNK         0.0600 
    218 H218       -6.8506  -15.1462  -51.4333 H         1 UNK         0.0600 
    219 H219       -6.6975  -16.7021  -52.2349 H         1 UNK         0.0600 
    220 H220       -2.4541  -16.5544  -50.9127 H         1 UNK         0.3000 
    221 H221       -0.5742  -17.2884  -51.8235 H         1 UNK         0.0600 
    222 H222       -1.5565  -16.1530  -54.4930 H         1 UNK         0.0600 
    223 H223       -0.8540  -15.1859  -53.1992 H         1 UNK         0.0600 
    224 H224        0.1148  -16.4028  -53.9994 H         1 UNK         0.0600 
    225 H225        0.2952  -18.4300  -54.1286 H         1 UNK         0.3000 
    226 H226       -0.3949  -21.1245  -53.8330 H         1 UNK         0.0600 
    227 H227        1.7851  -20.3386  -54.6980 H         1 UNK         0.0600 
    228 H228        1.0487  -21.4402  -55.8499 H         1 UNK         0.0600 
    229 H229        1.0152  -19.7075  -56.1551 H         1 UNK         0.0600 
    230 H230       -1.9159  -18.7177  -55.8579 H         1 UNK         0.3000 
    231 H231       -3.2781  -20.4058  -57.7116 H         1 UNK         0.0600 
    232 H232       -3.0222  -17.9574  -58.0384 H         1 UNK         0.0600 
    233 H233       -3.9975  -17.6369  -56.6030 H         1 UNK         0.0600 
    234 H234       -4.7255  -18.3862  -58.0193 H         1 UNK         0.0600 
    235 H235       -3.9503  -19.5306  -54.3352 H         1 UNK         0.3000 
    236 H236       -6.5985  -20.8963  -54.3958 H         1 UNK         0.0600 
    237 H237       -6.4878  -18.6417  -53.3741 H         1 UNK         0.0600 
    238 H238       -6.9006  -19.8612  -52.1808 H         1 UNK         0.0600 
    239 H239       -5.2707  -19.1963  -52.2227 H         1 UNK         0.0600 
    240 H240       -3.3957  -20.9324  -52.7478 H         1 UNK         0.3000 
    241 H241       -3.9857  -23.2415  -51.1493 H         1 UNK         0.0600 
    242 H242       -2.5506  -24.8522  -54.5975 H         1 UNK         0.3800 
    243 H243       -2.7546  -23.1249  -54.5371 H         1 UNK         0.3800 
    244 H244       -1.4831  -21.6382  -51.7275 H         1 UNK         0.0800 
    245 H245       -1.3066  -23.1893  -50.9623 H         1 UNK         0.0800 
    246 H246       -2.4371  -19.4910  -50.4404 H         1 UNK         0.0800 
    247 H247       -2.3417  -19.4474  -48.7101 H         1 UNK         0.0800 
@<TRIPOS>BOND
     1    1    2 1    
     2    1  127 1    
     3    1  128 1    
     4    1  129 1    
     5    2    3 2    
     6    2    4 am   BACKBONE|DICT|INTERRES
     7    4    5 1    
     8    4  130 1    
     9    5    6 1    
    10    5   65 1    
    11    5  131 1    
    12    6    7 1    
    13    6  132 1    
    14    6  133 1    
    15    7    8 1    
    16    8    9 1    
    17    8  134 1    
    18    8  135 1    
    19    9   10 ar   
    20    9   14 ar   
    21   10   11 ar   
    22   10  136 1    
    23   11   12 ar   
    24   11  126 1    
    25   12   13 ar   
    26   12  137 1    
    27   13   14 ar   
    28   13   15 1    
    29   14  138 1    
    30   15   16 1    
    31   15  139 1    
    32   15  140 1    
    33   16   17 1    
    34   17   18 1    
    35   17  141 1    
    36   17  142 1    
    37   18   19 1    
    38   18   67 1    
    39   18  143 1    
    40   19   20 am   BACKBONE|DICT|INTERRES
    41   19  144 1    
    42   20   21 2    
    43   20   22 1    
    44   22   23 1    
    45   22   24 1    
    46   22  145 1    
    47   23  146 1    
    48   23  147 1    
    49   23  148 1    
    50   24   25 am   BACKBONE|DICT|INTERRES
    51   24  149 1    
    52   25   26 2    
    53   25   27 1    
    54   27   28 1    
    55   27   29 1    
    56   27  150 1    
    57   28  151 1    
    58   28  152 1    
    59   28  153 1    
    60   29   30 am   BACKBONE|DICT|INTERRES
    61   29  154 1    
    62   30   31 2    
    63   30   32 1    
    64   32   33 1    
    65   32   34 1    
    66   32  155 1    
    67   33  156 1    
    68   33  157 1    
    69   33  158 1    
    70   34   35 am   BACKBONE|DICT|INTERRES
    71   34  159 1    
    72   35   36 2    
    73   35   37 1    
    74   37   38 1    
    75   37   39 1    
    76   37  160 1    
    77   38  161 1    
    78   38  162 1    
    79   38  163 1    
    80   39   40 am   BACKBONE|DICT|INTERRES
    81   39  164 1    
    82   40   41 2    
    83   40   42 1    
    84   42   43 1    
    85   42   44 1    
    86   42  165 1    
    87   43  166 1    
    88   43  167 1    
    89   43  168 1    
    90   44   45 am   BACKBONE|DICT|INTERRES
    91   44  169 1    
    92   45   46 2    
    93   45   47 1    
    94   47   48 1    
    95   47   49 1    
    96   47  170 1    
    97   48  171 1    
    98   48  172 1    
    99   48  173 1    
   100   49   50 am   BACKBONE|DICT|INTERRES
   101   49  174 1    
   102   50   51 2    
   103   50   52 1    
   104   52   53 1    
   105   52   54 1    
   106   52  175 1    
   107   53  176 1    
   108   53  177 1    
   109   53  178 1    
   110   54   55 am   BACKBONE|DICT|INTERRES
   111   54  179 1    
   112   55   56 2    
   113   55   57 1    
   114   57   58 1    
   115   57   59 1    
   116   57  180 1    
   117   58  181 1    
   118   58  182 1    
   119   58  183 1    
   120   59   60 am   BACKBONE|DICT|INTERRES
   121   59  184 1    
   122   60   61 2    
   123   60   62 1    
   124   62   63 1    
   125   62   64 1    
   126   62  185 1    
   127   63  186 1    
   128   63  187 1    
   129   63  188 1    
   130   64   65 am   BACKBONE|DICT|INTERRES
   131   64  189 1    
   132   65   66 2    
   133   67   68 2    
   134   67   69 am   BACKBONE|DICT|INTERRES
   135   69   70 1    
   136   69  190 1    
   137   70   71 1    
   138   70   72 1    
   139   70  191 1    
   140   71  192 1    
   141   71  193 1    
   142   71  194 1    
   143   72   73 2    
   144   72   74 am   BACKBONE|DICT|INTERRES
   145   74   75 1    
   146   74  195 1    
   147   75   76 1    
   148   75   77 1    
   149   75  196 1    
   150   76  197 1    
   151   76  198 1    
   152   76  199 1    
   153   77   78 2    
   154   77   79 am   BACKBONE|DICT|INTERRES
   155   79   80 1    
   156   79  200 1    
   157   80   81 1    
   158   80   82 1    
   159   80  201 1    
   160   81  202 1    
   161   81  203 1    
   162   81  204 1    
   163   82   83 2    
   164   82   84 am   BACKBONE|DICT|INTERRES
   165   84   85 1    
   166   84  205 1    
   167   85   86 1    
   168   85   87 1    
   169   85  206 1    
   170   86  207 1    
   171   86  208 1    
   172   86  209 1    
   173   87   88 2    
   174   87   89 am   BACKBONE|DICT|INTERRES
   175   89   90 1    
   176   89  210 1    
   177   90   91 1    
   178   90   92 1    
   179   90  211 1    
   180   91  212 1    
   181   91  213 1    
   182   91  214 1    
   183   92   93 2    
   184   92   94 am   BACKBONE|DICT|INTERRES
   185   94   95 1    
   186   94  215 1    
   187   95   96 1    
   188   95   97 1    
   189   95  216 1    
   190   96  217 1    
   191   96  218 1    
   192   96  219 1    
   193   97   98 2    
   194   97   99 am   BACKBONE|DICT|INTERRES
   195   99  100 1    
   196   99  220 1    
   197  100  101 1    
   198  100  102 1    
   199  100  221 1    
   200  101  222 1    
   201  101  223 1    
   202  101  224 1    
   203  102  103 2    
   204  102  104 am   BACKBONE|DICT|INTERRES
   205  104  105 1    
   206  104  225 1    
   207  105  106 1    
   208  105  107 1    
   209  105  226 1    
   210  106  227 1    
   211  106  228 1    
   212  106  229 1    
   213  107  108 2    
   214  107  109 am   BACKBONE|DICT|INTERRES
   215  109  110 1    
   216  109  230 1    
   217  110  111 1    
   218  110  112 1    
   219  110  231 1    
   220  111  232 1    
   221  111  233 1    
   222  111  234 1    
   223  112  113 2    
   224  112  114 am   BACKBONE|DICT|INTERRES
   225  114  115 1    
   226  114  235 1    
   227  115  116 1    
   228  115  117 1    
   229  115  236 1    
   230  116  237 1    
   231  116  238 1    
   232  116  239 1    
   233  117  118 2    
   234  117  119 am   BACKBONE|DICT|INTERRES
   235  119  120 1    
   236  119  240 1    
   237  120  121 1    
   238  120  124 1    
   239  120  241 1    
   240  121  122 am   BACKBONE|DICT|INTERRES
   241  121  123 2    
   242  122  242 1    
   243  122  243 1    
   244  124  125 1    
   245  124  244 1    
   246  124  245 1    
   247  125  126 1    
   248  126  246 1    
   249  126  247 1    
@<TRIPOS>SUBSTRUCTURE
     1 UNK         1 GROUP             0       ****    0 ROOT    
