@<TRIPOS>MOLECULE
3R540
247   249    1
SMALL
USER_CHARGES


@<TRIPOS>ATOM
      1 CA          3.9814   -9.7946  -47.0309 C.3       0 UNK        -0.1800 
      2 C           2.9265  -10.7895  -46.5724 C.2       0 UNK         0.5000 
      3 O           2.2724  -10.5643  -45.5536 O.2       0 UNK        -0.5000 
      4 N           2.7373  -11.8792  -47.3289 N.am      1 UNK        -0.5000 
      5 CA          1.8255  -12.9919  -47.0147 C.3       1 UNK         0.1400 
      6 C6          2.0403  -14.2155  -47.9352 C.3       23 UNK        -0.0398 
      7 S7          3.7692  -14.7965  -47.9724 S.3       23 UNK        -0.2404 
      8 C8          3.9974  -15.1337  -49.7444 C.3       23 UNK        -0.0205 
      9 C9          3.3459  -16.4430  -50.1676 C.ar      23 UNK        -0.0193 
     10 C10         2.0139  -16.4715  -50.5937 C.ar      23 UNK        -0.1150 
     11 C11         1.4321  -17.6621  -51.0396 C.ar      23 UNK        -0.0193 
     12 C12         2.2094  -18.8246  -51.0826 C.ar      23 UNK        -0.1150 
     13 C13         3.5319  -18.8181  -50.6323 C.ar      23 UNK        -0.0193 
     14 C14         4.0928  -17.6244  -50.1709 C.ar      23 UNK        -0.1150 
     15 C15         4.3627  -20.0925  -50.6701 C.3       23 UNK        -0.0205 
     16 S16         4.1007  -21.1199  -49.1902 S.3       23 UNK        -0.2404 
     17 C17         2.4553  -21.8218  -49.5408 C.3       23 UNK        -0.0398 
     18 CA          2.1382  -23.0510  -48.6595 C.3       11 UNK         0.1400 
     19 N           1.9831  -22.6925  -47.2487 N.am      11 UNK        -0.5000 
     20 C           2.0586  -23.5604  -46.2319 C.2       10 UNK         0.5000 
     21 O           2.3197  -24.7559  -46.3693 O.2       10 UNK        -0.5000 
     22 CA          1.7701  -23.0070  -44.8229 C.3       10 UNK         0.1400 
     23 CB          3.0452  -22.4257  -44.1940 C.3       10 UNK        -0.1800 
     24 N           0.7075  -21.9990  -44.8107 N.am      10 UNK        -0.5000 
     25 C          -0.5676  -22.2496  -45.1396 C.2       9 UNK         0.5000 
     26 O          -0.9797  -23.3675  -45.4379 O.2       9 UNK        -0.5000 
     27 CA         -1.5406  -21.0585  -45.1851 C.3       9 UNK         0.1400 
     28 CB         -2.1066  -20.7731  -43.7868 C.3       9 UNK        -0.1800 
     29 N          -0.9378  -19.8441  -45.7359 N.am      9 UNK        -0.5000 
     30 C          -0.4558  -19.7297  -46.9824 C.2       8 UNK         0.5000 
     31 O          -0.4945  -20.6371  -47.8120 O.2       8 UNK        -0.5000 
     32 CA          0.2383  -18.4032  -47.3390 C.3       8 UNK         0.1400 
     33 CB         -0.7860  -17.3153  -47.6963 C.3       8 UNK        -0.1800 
     34 N           1.1061  -17.9375  -46.2563 N.am      8 UNK        -0.5000 
     35 C           2.2201  -18.5746  -45.8672 C.2       7 UNK         0.5000 
     36 O           2.6625  -19.5794  -46.4223 O.2       7 UNK        -0.5000 
     37 CA          2.9171  -18.0397  -44.6047 C.3       7 UNK         0.1400 
     38 CB          3.8099  -16.8347  -44.9310 C.3       7 UNK        -0.1800 
     39 N           1.9552  -17.6762  -43.5630 N.am      7 UNK        -0.5000 
     40 C           1.2559  -18.5723  -42.8500 C.2       6 UNK         0.5000 
     41 O           1.3783  -19.7886  -42.9858 O.2       6 UNK        -0.5000 
     42 CA          0.2262  -18.0343  -41.8359 C.3       6 UNK         0.1400 
     43 CB          0.8798  -17.8470  -40.4589 C.3       6 UNK        -0.1800 
     44 N          -0.3975  -16.7766  -42.2431 N.am      6 UNK        -0.5000 
     45 C          -1.1129  -16.5917  -43.3610 C.2       5 UNK         0.5000 
     46 O          -1.3928  -17.4946  -44.1489 O.2       5 UNK        -0.5000 
     47 CA         -1.5391  -15.1467  -43.6827 C.3       5 UNK         0.1400 
     48 CB         -2.9826  -14.8964  -43.2238 C.3       5 UNK        -0.1800 
     49 N          -0.6690  -14.1087  -43.1153 N.am      5 UNK        -0.5000 
     50 C           0.6508  -13.9901  -43.3165 C.2       4 UNK         0.5000 
     51 O           1.3182  -14.8078  -43.9522 O.2       4 UNK        -0.5000 
     52 CA          1.3224  -12.7439  -42.7091 C.3       4 UNK         0.1400 
     53 CB          2.8537  -12.7595  -42.8678 C.3       4 UNK        -0.1800 
     54 N           0.7975  -11.5230  -43.3172 N.am      4 UNK        -0.5000 
     55 C          -0.3465  -10.9131  -42.9789 C.2       3 UNK         0.5000 
     56 O          -1.0946  -11.3156  -42.0867 O.2       3 UNK        -0.5000 
     57 CA         -0.7353   -9.6774  -43.8046 C.3       3 UNK         0.1400 
     58 CB          0.1744   -8.4838  -43.4721 C.3       3 UNK        -0.1800 
     59 N          -0.6385   -9.9816  -45.2303 N.am      3 UNK        -0.5000 
     60 C          -1.6661  -10.3644  -46.0014 C.2       2 UNK         0.5000 
     61 O          -2.8365  -10.3966  -45.6198 O.2       2 UNK        -0.5000 
     62 CA         -1.3291  -10.8027  -47.4418 C.3       2 UNK         0.1400 
     63 CB         -1.4060   -9.6067  -48.4027 C.3       2 UNK        -0.1800 
     64 N          -0.0046  -11.4168  -47.5462 N.am      2 UNK        -0.5000 
     65 C           0.3309  -12.5956  -47.0023 C.2       1 UNK         0.5000 
     66 O          -0.4886  -13.3552  -46.4891 O.2       1 UNK        -0.5000 
     67 C           0.8947  -23.7919  -49.1913 C.2       11 UNK         0.5000 
     68 O           1.0358  -24.8446  -49.8145 O.2       11 UNK        -0.5000 
     69 N          -0.2955  -23.2235  -48.9548 N.am      12 UNK        -0.5000 
     70 CA         -1.5762  -23.7322  -49.4515 C.3       12 UNK         0.1400 
     71 CB         -2.6263  -22.6242  -49.3076 C.3       12 UNK        -0.1800 
     72 C          -2.0608  -25.0092  -48.7394 C.2       12 UNK         0.5000 
     73 O          -2.8576  -25.7527  -49.3132 O.2       12 UNK        -0.5000 
     74 N          -1.6008  -25.2271  -47.4997 N.am      13 UNK        -0.5000 
     75 CA         -1.9977  -26.2929  -46.5807 C.3       13 UNK         0.1400 
     76 CB         -1.5371  -27.6734  -47.1020 C.3       13 UNK        -0.1800 
     77 C          -3.5021  -26.1941  -46.2588 C.2       13 UNK         0.5000 
     78 O          -3.9211  -25.2271  -45.6208 O.2       13 UNK        -0.5000 
     79 N          -4.2920  -27.1719  -46.7170 N.am      14 UNK        -0.5000 
     80 CA         -5.7439  -27.2140  -46.5483 C.3       14 UNK         0.1400 
     81 CB         -6.2296  -28.6449  -46.8269 C.3       14 UNK        -0.1800 
     82 C          -6.5032  -26.2080  -47.4373 C.2       14 UNK         0.5000 
     83 O          -7.6650  -25.9179  -47.1498 O.2       14 UNK        -0.5000 
     84 N          -5.8631  -25.6930  -48.4978 N.am      15 UNK        -0.5000 
     85 CA         -6.4776  -24.8613  -49.5377 C.3       15 UNK         0.1400 
     86 CB         -5.6927  -25.0525  -50.8440 C.3       15 UNK        -0.1800 
     87 C          -6.6566  -23.3759  -49.1414 C.2       15 UNK         0.5000 
     88 O          -6.3932  -22.4791  -49.9449 O.2       15 UNK        -0.5000 
     89 N          -7.1217  -23.1438  -47.9060 N.am      16 UNK        -0.5000 
     90 CA         -7.6788  -21.8996  -47.3536 C.3       16 UNK         0.1400 
     91 CB         -9.0360  -21.6129  -48.0299 C.3       16 UNK        -0.1800 
     92 C          -6.7705  -20.6485  -47.3798 C.2       16 UNK         0.5000 
     93 O          -7.2733  -19.5480  -47.1487 O.2       16 UNK        -0.5000 
     94 N          -5.4714  -20.8186  -47.6724 N.am      17 UNK        -0.5000 
     95 CA         -4.4780  -19.7586  -47.9102 C.3       17 UNK         0.1400 
     96 CB         -4.2637  -18.9103  -46.6379 C.3       17 UNK        -0.1800 
     97 C          -4.7966  -18.8907  -49.1508 C.2       17 UNK         0.5000 
     98 O          -4.3198  -17.7584  -49.2381 O.2       17 UNK        -0.5000 
     99 N          -5.6055  -19.4205  -50.0803 N.am      18 UNK        -0.5000 
    100 CA        -6.1604  -18.6791  -51.2162 C.3       18 UNK         0.1400 
    101 CB        -7.4589  -17.9782  -50.7725 C.3       18 UNK        -0.1800 
    102 C         -6.3825  -19.5657  -52.4556 C.2       18 UNK         0.5000 
    103 O         -7.0350  -19.1281  -53.4046 O.2       18 UNK        -0.5000 
    104 N         -5.8467  -20.7888  -52.4372 N.am      19 UNK        -0.5000 
    105 CA        -5.9143  -21.7689  -53.5123 C.3       19 UNK         0.1400 
    106 CB        -7.2559  -22.5254  -53.4454 C.3       19 UNK        -0.1800 
    107 C         -4.6810  -22.6841  -53.4262 C.2       19 UNK         0.5000 
    108 O         -3.8093  -22.4599  -52.5793 O.2       19 UNK        -0.5000 
    109 N         -4.6013  -23.6667  -54.3359 N.am      20 UNK        -0.5000 
    110 CA        -3.4619  -24.5643  -54.5615 C.3       20 UNK         0.1400 
    111 CB        -3.2681  -25.5329  -53.3726 C.3       20 UNK        -0.1800 
    112 C         -2.2062  -23.7479  -54.9254 C.2       20 UNK         0.5000 
    113 O         -2.1970  -23.1089  -55.9795 O.2       20 UNK        -0.5000 
    114 N         -1.2084  -23.7179  -54.0313 N.am      21 UNK        -0.5000 
    115 CA        -0.0030  -22.8896  -54.1336 C.3       21 UNK         0.1400 
    116 CB         0.9160  -23.2011  -52.9441 C.3       21 UNK        -0.1800 
    117 C         -0.2904  -21.3749  -54.1918 C.2       21 UNK         0.5000 
    118 O          0.5086  -20.6343  -54.7659 O.2       21 UNK        -0.5000 
    119 N         -1.4248  -20.9541  -53.6187 N.am      22 UNK        -0.5000 
    120 CA        -1.9318  -19.5753  -53.6499 C.3       22 UNK         0.1400 
    121 C         -3.0632  -19.3624  -54.6976 C.2       22 UNK         0.5000 
    122 N         -3.3223  -20.2963  -55.6071 N.am      22 UNK        -0.7600 
    123 O         -3.7072  -18.3176  -54.7057 O.2       22 UNK        -0.5000 
    124 C124       -2.3343  -19.0801  -52.2342 C.3       23 UNK        -0.0398 
    125 S125       -0.9502  -19.1523  -51.0478 S.3       23 UNK        -0.2404 
    126 C126       -0.0119  -17.6614  -51.5308 C.3       23 UNK        -0.0205 
    127 H127        4.7452   -9.6799  -46.2620 H         1 UNK         0.0600 
    128 H128        4.4695  -10.1163  -47.9511 H         1 UNK         0.0600 
    129 H129        3.5256   -8.8206  -47.2083 H         1 UNK         0.0600 
    130 H130        3.3089  -12.0111  -48.1513 H         1 UNK         0.3000 
    131 H131        2.0644  -13.3080  -45.9989 H         1 UNK         0.0600 
    132 H132        1.4296  -15.0536  -47.5980 H         1 UNK         0.0800 
    133 H133        1.7104  -13.9764  -48.9465 H         1 UNK         0.0800 
    134 H134        3.6104  -14.3048  -50.3388 H         1 UNK         0.0800 
    135 H135        5.0677  -15.1736  -49.9524 H         1 UNK         0.0800 
    136 H136        1.4327  -15.5612  -50.5995 H         1 UNK         0.1150 
    137 H137        1.7820  -19.7405  -51.4645 H         1 UNK         0.1150 
    138 H138        5.1198  -17.6100  -49.8336 H         1 UNK         0.1150 
    139 H139        4.1344  -20.6664  -51.5694 H         1 UNK         0.0800 
    140 H140        5.4225  -19.8418  -50.7352 H         1 UNK         0.0800 
    141 H141        2.4286  -22.0947  -50.5967 H         1 UNK         0.0800 
    142 H142        1.7025  -21.0447  -49.3991 H         1 UNK         0.0800 
    143 H143        2.9792  -23.7434  -48.7413 H         1 UNK         0.0600 
    144 H144        1.7965  -21.7184  -47.0460 H         1 UNK         0.3000 
    145 H145        1.4406  -23.8434  -44.2029 H         1 UNK         0.0600 
    146 H146        2.8717  -22.1201  -43.1622 H         1 UNK         0.0600 
    147 H147        3.8473  -23.1647  -44.1828 H         1 UNK         0.0600 
    148 H148        3.4071  -21.5572  -44.7444 H         1 UNK         0.0600 
    149 H149        0.9652  -21.0667  -44.5049 H         1 UNK         0.3000 
    150 H150       -2.3705  -21.3363  -45.8378 H         1 UNK         0.0600 
    151 H151       -2.6561  -21.6358  -43.4083 H         1 UNK         0.0600 
    152 H152       -2.7938  -19.9273  -43.7960 H         1 UNK         0.0600 
    153 H153       -1.3144  -20.5528  -43.0726 H         1 UNK         0.0600 
    154 H154       -0.9174  -19.0297  -45.1272 H         1 UNK         0.3000 
    155 H155        0.8581  -18.5856  -48.2198 H         1 UNK         0.0600 
    156 H156       -0.3032  -16.4558  -48.1581 H         1 UNK         0.0600 
    157 H157       -1.3314  -16.9640  -46.8205 H         1 UNK         0.0600 
    158 H158       -1.5196  -17.6880  -48.4122 H         1 UNK         0.0600 
    159 H159        0.7872  -17.1460  -45.7169 H         1 UNK         0.3000 
    160 H160        3.5583  -18.8346  -44.2174 H         1 UNK         0.0600 
    161 H161        3.2283  -15.9938  -45.3075 H         1 UNK         0.0600 
    162 H162        4.5468  -17.0901  -45.6936 H         1 UNK         0.0600 
    163 H163        4.3543  -16.4957  -44.0497 H         1 UNK         0.0600 
    164 H164        1.7622  -16.6857  -43.4502 H         1 UNK         0.3000 
    165 H165       -0.5657  -18.7783  -41.7379 H         1 UNK         0.0600 
    166 H166        1.6627  -17.0880  -40.4849 H         1 UNK         0.0600 
    167 H167        0.1457  -17.5483  -39.7103 H         1 UNK         0.0600 
    168 H168        1.3345  -18.7764  -40.1132 H         1 UNK         0.0600 
    169 H169       -0.2151  -15.9720  -41.6623 H         1 UNK         0.3000 
    170 H170       -1.5063  -15.0441  -44.7682 H         1 UNK         0.0600 
    171 H171       -3.6622  -15.6365  -43.6488 H         1 UNK         0.0600 
    172 H172       -3.0740  -14.9496  -42.1383 H         1 UNK         0.0600 
    173 H173       -3.3324  -13.9145  -43.5437 H         1 UNK         0.0600 
    174 H174       -1.1279  -13.3641  -42.6031 H         1 UNK         0.3000 
    175 H175        1.1004  -12.7386  -41.6399 H         1 UNK         0.0600 
    176 H176        3.2860  -13.6476  -42.4053 H         1 UNK         0.0600 
    177 H177        3.3070  -11.8911  -42.3897 H         1 UNK         0.0600 
    178 H178        3.1543  -12.7563  -43.9158 H         1 UNK         0.0600 
    179 H179        1.3442  -11.1413  -44.0859 H         1 UNK         0.3000 
    180 H180       -1.7593   -9.4023  -43.5431 H         1 UNK         0.0600 
    181 H181        1.2178   -8.6841  -43.7186 H         1 UNK         0.0600 
    182 H182        0.1278   -8.2425  -42.4094 H         1 UNK         0.0600 
    183 H183       -0.1322   -7.5935  -44.0213 H         1 UNK         0.0600 
    184 H184        0.2996  -10.0309  -45.6110 H         1 UNK         0.3000 
    185 H185       -2.0742  -11.5395  -47.7496 H         1 UNK         0.0600 
    186 H186       -1.2334   -9.9168  -49.4334 H         1 UNK         0.0600 
    187 H187       -2.3911   -9.1395  -48.3655 H         1 UNK         0.0600 
    188 H188       -0.6700   -8.8412  -48.1534 H         1 UNK         0.0600 
    189 H189        0.7262  -10.8590  -47.9631 H         1 UNK         0.3000 
    190 H190       -0.3288  -22.3344  -48.4577 H         1 UNK         0.3000 
    191 H191       -1.4670  -23.9636  -50.5129 H         1 UNK         0.0600 
    192 H192       -2.3137  -21.7133  -49.8185 H         1 UNK         0.0600 
    193 H193       -3.5808  -22.9211  -49.7387 H         1 UNK         0.0600 
    194 H194       -2.7958  -22.3885  -48.2571 H         1 UNK         0.0600 
    195 H195       -1.0440  -24.4961  -47.0689 H         1 UNK         0.3000 
    196 H196       -1.4718  -26.1047  -45.6438 H         1 UNK         0.0600 
    197 H197       -1.7816  -28.4626  -46.3898 H         1 UNK         0.0600 
    198 H198       -0.4558  -27.6910  -47.2393 H         1 UNK         0.0600 
    199 H199       -1.9910  -27.9350  -48.0580 H         1 UNK         0.0600 
    200 H200       -3.8745  -27.9159  -47.2572 H         1 UNK         0.3000 
    201 H201       -5.9780  -26.9721  -45.5093 H         1 UNK         0.0600 
    202 H202       -5.7546  -29.3609  -46.1559 H         1 UNK         0.0600 
    203 H203       -6.0149  -28.9502  -47.8519 H         1 UNK         0.0600 
    204 H204       -7.3071  -28.7289  -46.6783 H         1 UNK         0.0600 
    205 H205       -4.8893  -25.9355  -48.6441 H         1 UNK         0.3000 
    206 H206       -7.4831  -25.2463  -49.7193 H         1 UNK         0.0600 
    207 H207       -5.5250  -26.1087  -51.0547 H         1 UNK         0.0600 
    208 H208       -6.2359  -24.6445  -51.6930 H         1 UNK         0.0600 
    209 H209       -4.7220  -24.5623  -50.8084 H         1 UNK         0.0600 
    210 H210       -7.2876  -23.9710  -47.3415 H         1 UNK         0.3000 
    211 H211       -7.8712  -22.1024  -46.2992 H         1 UNK         0.0600 
    212 H212       -8.9125  -21.3499  -49.0813 H         1 UNK         0.0600 
    213 H213       -9.5565  -20.7864  -47.5446 H         1 UNK         0.0600 
    214 H214       -9.6947  -22.4798  -47.9765 H         1 UNK         0.0600 
    215 H215       -5.1715  -21.7613  -47.8751 H         1 UNK         0.3000 
    216 H216       -3.5320  -20.2510  -48.1271 H         1 UNK         0.0600 
    217 H217       -4.1261  -19.5397  -45.7603 H         1 UNK         0.0600 
    218 H218       -5.1062  -18.2469  -46.4425 H         1 UNK         0.0600 
    219 H219       -3.3776  -18.2836  -46.7294 H         1 UNK         0.0600 
    220 H220       -5.9608  -20.3608  -49.9402 H         1 UNK         0.3000 
    221 H221       -5.4467  -17.9147  -51.5302 H         1 UNK         0.0600 
    222 H222       -8.2130  -18.7011  -50.4588 H         1 UNK         0.0600 
    223 H223       -7.2777  -17.3020  -49.9368 H         1 UNK         0.0600 
    224 H224       -7.8860  -17.3828  -51.5802 H         1 UNK         0.0600 
    225 H225       -5.2911  -21.0914  -51.6471 H         1 UNK         0.3000 
    226 H226       -5.8485  -21.2524  -54.4718 H         1 UNK         0.0600 
    227 H227       -8.0842  -21.8616  -53.6937 H         1 UNK         0.0600 
    228 H228       -7.2952  -23.3579  -54.1478 H         1 UNK         0.0600 
    229 H229       -7.4487  -22.9186  -52.4484 H         1 UNK         0.0600 
    230 H230       -5.3466  -23.7485  -55.0127 H         1 UNK         0.3000 
    231 H231       -3.7034  -25.1646  -55.4398 H         1 UNK         0.0600 
    232 H232       -2.4570  -26.2353  -53.5681 H         1 UNK         0.0600 
    233 H233       -4.1677  -26.1252  -53.2077 H         1 UNK         0.0600 
    234 H234       -3.0397  -25.0156  -52.4408 H         1 UNK         0.0600 
    235 H235       -1.3182  -24.2494  -53.1807 H         1 UNK         0.3000 
    236 H236        0.5139  -23.1658  -55.0548 H         1 UNK         0.0600 
    237 H237        1.8545  -22.6506  -53.0216 H         1 UNK         0.0600 
    238 H238        0.4472  -22.9200  -52.0010 H         1 UNK         0.0600 
    239 H239        1.1638  -24.2616  -52.8959 H         1 UNK         0.0600 
    240 H240       -2.0403  -21.6332  -53.1831 H         1 UNK         0.3000 
    241 H241       -1.1362  -18.9191  -54.0019 H         1 UNK         0.0600 
    242 H242       -2.7822  -21.1522  -55.6555 H         1 UNK         0.3800 
    243 H243       -4.0369  -20.1208  -56.2952 H         1 UNK         0.3800 
    244 H244       -2.7083  -18.0552  -52.2626 H         1 UNK         0.0800 
    245 H245       -3.1463  -19.6922  -51.8408 H         1 UNK         0.0800 
    246 H246       -0.5444  -16.7874  -51.1527 H         1 UNK         0.0800 
    247 H247        0.0115  -17.5666  -52.6157 H         1 UNK         0.0800 
@<TRIPOS>BOND
     1    1    2 1    
     2    1  127 1    
     3    1  128 1    
     4    1  129 1    
     5    2    3 2    
     6    2    4 am   BACKBONE|DICT|INTERRES
     7    4    5 1    
     8    4  130 1    
     9    5    6 1    
    10    5   65 1    
    11    5  131 1    
    12    6    7 1    
    13    6  132 1    
    14    6  133 1    
    15    7    8 1    
    16    8    9 1    
    17    8  134 1    
    18    8  135 1    
    19    9   10 ar   
    20    9   14 ar   
    21   10   11 ar   
    22   10  136 1    
    23   11   12 ar   
    24   11  126 1    
    25   12   13 ar   
    26   12  137 1    
    27   13   14 ar   
    28   13   15 1    
    29   14  138 1    
    30   15   16 1    
    31   15  139 1    
    32   15  140 1    
    33   16   17 1    
    34   17   18 1    
    35   17  141 1    
    36   17  142 1    
    37   18   19 1    
    38   18   67 1    
    39   18  143 1    
    40   19   20 am   BACKBONE|DICT|INTERRES
    41   19  144 1    
    42   20   21 2    
    43   20   22 1    
    44   22   23 1    
    45   22   24 1    
    46   22  145 1    
    47   23  146 1    
    48   23  147 1    
    49   23  148 1    
    50   24   25 am   BACKBONE|DICT|INTERRES
    51   24  149 1    
    52   25   26 2    
    53   25   27 1    
    54   27   28 1    
    55   27   29 1    
    56   27  150 1    
    57   28  151 1    
    58   28  152 1    
    59   28  153 1    
    60   29   30 am   BACKBONE|DICT|INTERRES
    61   29  154 1    
    62   30   31 2    
    63   30   32 1    
    64   32   33 1    
    65   32   34 1    
    66   32  155 1    
    67   33  156 1    
    68   33  157 1    
    69   33  158 1    
    70   34   35 am   BACKBONE|DICT|INTERRES
    71   34  159 1    
    72   35   36 2    
    73   35   37 1    
    74   37   38 1    
    75   37   39 1    
    76   37  160 1    
    77   38  161 1    
    78   38  162 1    
    79   38  163 1    
    80   39   40 am   BACKBONE|DICT|INTERRES
    81   39  164 1    
    82   40   41 2    
    83   40   42 1    
    84   42   43 1    
    85   42   44 1    
    86   42  165 1    
    87   43  166 1    
    88   43  167 1    
    89   43  168 1    
    90   44   45 am   BACKBONE|DICT|INTERRES
    91   44  169 1    
    92   45   46 2    
    93   45   47 1    
    94   47   48 1    
    95   47   49 1    
    96   47  170 1    
    97   48  171 1    
    98   48  172 1    
    99   48  173 1    
   100   49   50 am   BACKBONE|DICT|INTERRES
   101   49  174 1    
   102   50   51 2    
   103   50   52 1    
   104   52   53 1    
   105   52   54 1    
   106   52  175 1    
   107   53  176 1    
   108   53  177 1    
   109   53  178 1    
   110   54   55 am   BACKBONE|DICT|INTERRES
   111   54  179 1    
   112   55   56 2    
   113   55   57 1    
   114   57   58 1    
   115   57   59 1    
   116   57  180 1    
   117   58  181 1    
   118   58  182 1    
   119   58  183 1    
   120   59   60 am   BACKBONE|DICT|INTERRES
   121   59  184 1    
   122   60   61 2    
   123   60   62 1    
   124   62   63 1    
   125   62   64 1    
   126   62  185 1    
   127   63  186 1    
   128   63  187 1    
   129   63  188 1    
   130   64   65 am   BACKBONE|DICT|INTERRES
   131   64  189 1    
   132   65   66 2    
   133   67   68 2    
   134   67   69 am   BACKBONE|DICT|INTERRES
   135   69   70 1    
   136   69  190 1    
   137   70   71 1    
   138   70   72 1    
   139   70  191 1    
   140   71  192 1    
   141   71  193 1    
   142   71  194 1    
   143   72   73 2    
   144   72   74 am   BACKBONE|DICT|INTERRES
   145   74   75 1    
   146   74  195 1    
   147   75   76 1    
   148   75   77 1    
   149   75  196 1    
   150   76  197 1    
   151   76  198 1    
   152   76  199 1    
   153   77   78 2    
   154   77   79 am   BACKBONE|DICT|INTERRES
   155   79   80 1    
   156   79  200 1    
   157   80   81 1    
   158   80   82 1    
   159   80  201 1    
   160   81  202 1    
   161   81  203 1    
   162   81  204 1    
   163   82   83 2    
   164   82   84 am   BACKBONE|DICT|INTERRES
   165   84   85 1    
   166   84  205 1    
   167   85   86 1    
   168   85   87 1    
   169   85  206 1    
   170   86  207 1    
   171   86  208 1    
   172   86  209 1    
   173   87   88 2    
   174   87   89 am   BACKBONE|DICT|INTERRES
   175   89   90 1    
   176   89  210 1    
   177   90   91 1    
   178   90   92 1    
   179   90  211 1    
   180   91  212 1    
   181   91  213 1    
   182   91  214 1    
   183   92   93 2    
   184   92   94 am   BACKBONE|DICT|INTERRES
   185   94   95 1    
   186   94  215 1    
   187   95   96 1    
   188   95   97 1    
   189   95  216 1    
   190   96  217 1    
   191   96  218 1    
   192   96  219 1    
   193   97   98 2    
   194   97   99 am   BACKBONE|DICT|INTERRES
   195   99  100 1    
   196   99  220 1    
   197  100  101 1    
   198  100  102 1    
   199  100  221 1    
   200  101  222 1    
   201  101  223 1    
   202  101  224 1    
   203  102  103 2    
   204  102  104 am   BACKBONE|DICT|INTERRES
   205  104  105 1    
   206  104  225 1    
   207  105  106 1    
   208  105  107 1    
   209  105  226 1    
   210  106  227 1    
   211  106  228 1    
   212  106  229 1    
   213  107  108 2    
   214  107  109 am   BACKBONE|DICT|INTERRES
   215  109  110 1    
   216  109  230 1    
   217  110  111 1    
   218  110  112 1    
   219  110  231 1    
   220  111  232 1    
   221  111  233 1    
   222  111  234 1    
   223  112  113 2    
   224  112  114 am   BACKBONE|DICT|INTERRES
   225  114  115 1    
   226  114  235 1    
   227  115  116 1    
   228  115  117 1    
   229  115  236 1    
   230  116  237 1    
   231  116  238 1    
   232  116  239 1    
   233  117  118 2    
   234  117  119 am   BACKBONE|DICT|INTERRES
   235  119  120 1    
   236  119  240 1    
   237  120  121 1    
   238  120  124 1    
   239  120  241 1    
   240  121  122 am   BACKBONE|DICT|INTERRES
   241  121  123 2    
   242  122  242 1    
   243  122  243 1    
   244  124  125 1    
   245  124  244 1    
   246  124  245 1    
   247  125  126 1    
   248  126  246 1    
   249  126  247 1    
@<TRIPOS>SUBSTRUCTURE
     1 UNK         1 GROUP             0       ****    0 ROOT    
