@<TRIPOS>MOLECULE
3R540
247   249    1
SMALL
USER_CHARGES


@<TRIPOS>ATOM
      1 CA          0.7248  -14.4059  -47.0120 C.3       0 UNK        -0.1800 
      2 C           1.9622  -13.5753  -47.3163 C.2       0 UNK         0.5000 
      3 O           2.2478  -12.6166  -46.5985 O.2       0 UNK        -0.5000 
      4 N           2.7042  -13.9407  -48.3692 N.am      1 UNK        -0.5000 
      5 CA          3.9673  -13.3105  -48.7714 C.3       1 UNK         0.1400 
      6 C6          4.2676  -13.4964  -50.2803 C.3       23 UNK        -0.0398 
      7 S7          3.0454  -12.6499  -51.3392 S.3       23 UNK        -0.2404 
      8 C8          2.3560  -14.0309  -52.3041 C.3       23 UNK        -0.0205 
      9 C9          1.5232  -14.9714  -51.4474 C.ar      23 UNK        -0.0193 
     10 C10         0.2571  -14.5794  -51.0084 C.ar      23 UNK        -0.1150 
     11 C11        -0.5286  -15.4466  -50.2467 C.ar      23 UNK        -0.0193 
     12 C12        -0.0349  -16.7117  -49.9185 C.ar      23 UNK        -0.1150 
     13 C13         1.2329  -17.1214  -50.3499 C.ar      23 UNK        -0.0193 
     14 C14         2.0041  -16.2406  -51.1147 C.ar      23 UNK        -0.1150 
     15 C15         1.7804  -18.5164  -50.0522 C.3       23 UNK        -0.0205 
     16 S16         1.3655  -19.1498  -48.3927 S.3       23 UNK        -0.2404 
     17 C17        -0.2229  -20.0037  -48.6871 C.3       23 UNK        -0.0398 
     18 CA         -0.2580  -21.4074  -48.0401 C.3       11 UNK         0.1400 
     19 N          -0.1092  -21.3605  -46.5813 N.am      11 UNK        -0.5000 
     20 C           0.0169  -22.4327  -45.7867 C.2       10 UNK         0.5000 
     21 O           0.0956  -23.5870  -46.2037 O.2       10 UNK        -0.5000 
     22 CA         -0.0158  -22.1815  -44.2696 C.3       10 UNK         0.1400 
     23 CB          1.3742  -21.8038  -43.7354 C.3       10 UNK        -0.1800 
     24 N          -0.9907  -21.1492  -43.9155 N.am      10 UNK        -0.5000 
     25 C          -2.3193  -21.3180  -43.9803 C.2       9 UNK         0.5000 
     26 O          -2.8553  -22.3815  -44.2904 O.2       9 UNK        -0.5000 
     27 CA         -3.1950  -20.0841  -43.6945 C.3       9 UNK         0.1400 
     28 CB         -3.4374  -19.9284  -42.1864 C.3       9 UNK        -0.1800 
     29 N          -2.6132  -18.8515  -44.2268 N.am      9 UNK        -0.5000 
     30 C          -2.4995  -18.5780  -45.5358 C.2       8 UNK         0.5000 
     31 O          -2.9239  -19.3175  -46.4230 O.2       8 UNK        -0.5000 
     32 CA         -1.7383  -17.2942  -45.9248 C.3       8 UNK         0.1400 
     33 CB         -2.7141  -16.1159  -46.0465 C.3       8 UNK        -0.1800 
     34 N          -0.6683  -16.9443  -44.9878 N.am      8 UNK        -0.5000 
     35 C           0.3633  -17.7441  -44.6724 C.2       7 UNK         0.5000 
     36 O           0.5400  -18.8466  -45.1866 O.2       7 UNK        -0.5000 
     37 CA          1.3234  -17.2858  -43.5568 C.3       7 UNK         0.1400 
     38 CB          2.6246  -16.7443  -44.1613 C.3       7 UNK        -0.1800 
     39 N           0.7594  -16.2801  -42.6554 N.am      7 UNK        -0.5000 
     40 C          -0.3423  -16.4368  -41.9044 C.2       6 UNK         0.5000 
     41 O          -0.9654  -17.4962  -41.8243 O.2       6 UNK        -0.5000 
     42 CA         -0.8775  -15.1880  -41.1729 C.3       6 UNK         0.1400 
     43 CB         -0.4601  -15.2142  -39.6950 C.3       6 UNK        -0.1800 
     44 N          -0.4463  -13.9167  -41.7632 N.am      6 UNK        -0.5000 
     45 C          -0.6525  -13.5189  -43.0283 C.2       5 UNK         0.5000 
     46 O          -1.2927  -14.1739  -43.8504 O.2       5 UNK        -0.5000 
     47 CA          0.0069  -12.1948  -43.4633 C.3       5 UNK         0.1400 
     48 CB         -1.0418  -11.0759  -43.5484 C.3       5 UNK        -0.1800 
     49 N           1.1022  -11.7585  -42.5894 N.am      5 UNK        -0.5000 
     50 C           2.2696  -12.3981  -42.4382 C.2       4 UNK         0.5000 
     51 O           2.5528  -13.4620  -42.9964 O.2       4 UNK        -0.5000 
     52 CA          3.2610  -11.7684  -41.4525 C.3       4 UNK         0.1400 
     53 CB          3.0182  -12.2863  -40.0246 C.3       4 UNK        -0.1800 
     54 N           4.6128  -12.1071  -41.8753 N.am      4 UNK        -0.5000 
     55 C           5.6926  -11.3313  -41.7273 C.2       3 UNK         0.5000 
     56 O           5.6827  -10.2580  -41.1226 O.2       3 UNK        -0.5000 
     57 CA          7.0087  -11.8243  -42.3663 C.3       3 UNK         0.1400 
     58 CB          7.9261  -12.4381  -41.2971 C.3       3 UNK        -0.1800 
     59 N           6.8211  -12.8004  -43.4448 N.am      3 UNK        -0.5000 
     60 C           6.2438  -12.5428  -44.6261 C.2       2 UNK         0.5000 
     61 O           5.8282  -11.4270  -44.9504 O.2       2 UNK        -0.5000 
     62 CA          6.1010  -13.7300  -45.5952 C.3       2 UNK         0.1400 
     63 CB          5.6621  -15.0248  -44.8841 C.3       2 UNK        -0.1800 
     64 N           5.1249  -13.3892  -46.6233 N.am      2 UNK        -0.5000 
     65 C           5.1154  -13.8332  -47.8821 C.2       1 UNK         0.5000 
     66 O           5.9389  -14.6335  -48.3306 O.2       1 UNK        -0.5000 
     67 C          -1.5375  -22.1645  -48.4515 C.2       11 UNK         0.5000 
     68 O          -1.4727  -23.0294  -49.3242 O.2       11 UNK        -0.5000 
     69 N          -2.6639  -21.8661  -47.7866 N.am      12 UNK        -0.5000 
     70 CA         -3.9394  -22.5602  -47.9679 C.3       12 UNK         0.1400 
     71 CB         -5.0440  -21.8373  -47.1846 C.3       12 UNK        -0.1800 
     72 C          -3.8712  -24.0471  -47.5774 C.2       12 UNK         0.5000 
     73 O          -4.4043  -24.8833  -48.3059 O.2       12 UNK        -0.5000 
     74 N          -3.1892  -24.3590  -46.4660 N.am      13 UNK        -0.5000 
     75 CA         -2.9391  -25.7277  -46.0102 C.3       13 UNK         0.1400 
     76 CB         -2.3202  -25.7090  -44.6049 C.3       13 UNK        -0.1800 
     77 C          -2.0608  -26.5263  -46.9910 C.2       13 UNK         0.5000 
     78 O          -2.3948  -27.6686  -47.3058 O.2       13 UNK        -0.5000 
     79 N          -0.9900  -25.8997  -47.5003 N.am      14 UNK        -0.5000 
     80 CA         -0.1003  -26.4576  -48.5235 C.3       14 UNK         0.1400 
     81 CB          1.1120  -25.5328  -48.7093 C.3       14 UNK        -0.1800 
     82 C          -0.8102  -26.7038  -49.8692 C.2       14 UNK         0.5000 
     83 O          -0.5186  -27.6943  -50.5399 O.2       14 UNK        -0.5000 
     84 N          -1.7611  -25.8257  -50.2134 N.am      15 UNK        -0.5000 
     85 CA         -2.6545  -25.9500  -51.3661 C.3       15 UNK         0.1400 
     86 CB         -3.2107  -24.5582  -51.7112 C.3       15 UNK        -0.1800 
     87 C          -3.8062  -26.9567  -51.1527 C.2       15 UNK         0.5000 
     88 O          -4.5993  -27.1503  -52.0729 O.2       15 UNK        -0.5000 
     89 N          -3.9065  -27.5589  -49.9570 N.am      16 UNK        -0.5000 
     90 CA         -4.9391  -28.5069  -49.5224 C.3       16 UNK         0.1400 
     91 CB         -4.8354  -29.8297  -50.3101 C.3       16 UNK        -0.1800 
     92 C          -6.3580  -27.8984  -49.5386 C.2       16 UNK         0.5000 
     93 O          -7.3229  -28.5808  -49.8874 O.2       16 UNK        -0.5000 
     94 N          -6.4453  -26.6133  -49.1652 N.am      17 UNK        -0.5000 
     95 CA         -7.6421  -25.7688  -49.1092 C.3       17 UNK         0.1400 
     96 CB         -8.6546  -26.3084  -48.0773 C.3       17 UNK        -0.1800 
     97 C          -8.2801  -25.4816  -50.4860 C.2       17 UNK         0.5000 
     98 O          -9.4533  -25.1071  -50.5448 O.2       17 UNK        -0.5000 
     99 N          -7.5050  -25.6325  -51.5697 N.am      18 UNK        -0.5000 
    100 CA        -7.9011  -25.2567  -52.9266 C.3       18 UNK         0.1400 
    101 CB        -6.9078  -25.8623  -53.9292 C.3       18 UNK        -0.1800 
    102 C         -7.9687  -23.7274  -53.0992 C.2       18 UNK         0.5000 
    103 O         -7.2801  -22.9889  -52.3890 O.2       18 UNK        -0.5000 
    104 N         -8.7855  -23.2842  -54.0617 N.am      19 UNK        -0.5000 
    105 CA        -8.9247  -21.8813  -54.4496 C.3       19 UNK         0.1400 
    106 CB       -10.1270  -21.7451  -55.3970 C.3       19 UNK        -0.1800 
    107 C         -7.6479  -21.3356  -55.1176 C.2       19 UNK         0.5000 
    108 O         -6.9268  -22.0905  -55.7751 O.2       19 UNK        -0.5000 
    109 N         -7.4213  -20.0246  -54.9551 N.am      20 UNK        -0.5000 
    110 CA        -6.3021  -19.2486  -55.5036 C.3       20 UNK         0.1400 
    111 CB        -6.3692  -19.1942  -57.0448 C.3       20 UNK        -0.1800 
    112 C         -4.9203  -19.6925  -54.9746 C.2       20 UNK         0.5000 
    113 O         -3.9260  -19.6060  -55.6981 O.2       20 UNK        -0.5000 
    114 N         -4.8689  -20.1171  -53.7019 N.am      21 UNK        -0.5000 
    115 CA        -3.6524  -20.5401  -52.9932 C.3       21 UNK         0.1400 
    116 CB        -4.0368  -21.0413  -51.5927 C.3       21 UNK        -0.1800 
    117 C         -2.5708  -19.4431  -52.8890 C.2       21 UNK         0.5000 
    118 O         -1.3852  -19.7629  -52.8000 O.2       21 UNK        -0.5000 
    119 N         -3.0043  -18.1777  -52.9267 N.am      22 UNK        -0.5000 
    120 CA        -2.1515  -16.9821  -53.0003 C.3       22 UNK         0.1400 
    121 C         -1.6229  -16.6592  -54.4308 C.2       22 UNK         0.5000 
    122 N         -1.9945  -17.3921  -55.4747 N.am      22 UNK        -0.7600 
    123 O         -0.8481  -15.7224  -54.6009 O.2       22 UNK        -0.5000 
    124 C124       -2.8582  -15.7520  -52.3713 C.3       23 UNK        -0.0398 
    125 S125       -3.2331  -16.0038  -50.6001 S.3       23 UNK        -0.2404 
    126 C126       -1.9207  -15.0247  -49.7998 C.3       23 UNK        -0.0205 
    127 H127        0.7823  -15.3956  -47.4650 H         1 UNK         0.0600 
    128 H128       -0.1667  -13.9026  -47.3849 H         1 UNK         0.0600 
    129 H129        0.6177  -14.5363  -45.9358 H         1 UNK         0.0600 
    130 H130        2.4114  -14.7266  -48.9327 H         1 UNK         0.3000 
    131 H131        3.8931  -12.2355  -48.5915 H         1 UNK         0.0600 
    132 H132        5.2453  -13.0774  -50.5251 H         1 UNK         0.0800 
    133 H133        4.3228  -14.5551  -50.5371 H         1 UNK         0.0800 
    134 H134        1.7285  -13.6261  -53.0995 H         1 UNK         0.0800 
    135 H135        3.1654  -14.5678  -52.8014 H         1 UNK         0.0800 
    136 H136       -0.1178  -13.6004  -51.2725 H         1 UNK         0.1150 
    137 H137       -0.6597  -17.3780  -49.3457 H         1 UNK         0.1150 
    138 H138        2.9782  -16.5502  -51.4670 H         1 UNK         0.1150 
    139 H139        1.4388  -19.2089  -50.8223 H         1 UNK         0.0800 
    140 H140        2.8690  -18.5014  -50.1238 H         1 UNK         0.0800 
    141 H141       -0.3976  -20.0795  -49.7620 H         1 UNK         0.0800 
    142 H142       -1.0294  -19.3853  -48.2950 H         1 UNK         0.0800 
    143 H143        0.5877  -21.9772  -48.4312 H         1 UNK         0.0600 
    144 H144       -0.0828  -20.4385  -46.1557 H         1 UNK         0.3000 
    145 H145       -0.3167  -23.1116  -43.7833 H         1 UNK         0.0600 
    146 H146        1.3510  -21.6350  -42.6588 H         1 UNK         0.0600 
    147 H147        2.0895  -22.6054  -43.9232 H         1 UNK         0.0600 
    148 H148        1.7660  -20.9039  -44.2084 H         1 UNK         0.0600 
    149 H149       -0.6253  -20.2270  -43.7253 H         1 UNK         0.3000 
    150 H150       -4.1610  -20.2407  -44.1790 H         1 UNK         0.0600 
    151 H151       -3.9154  -20.8184  -41.7751 H         1 UNK         0.0600 
    152 H152       -4.0910  -19.0815  -41.9768 H         1 UNK         0.0600 
    153 H153       -2.5052  -19.7755  -41.6413 H         1 UNK         0.0600 
    154 H154       -2.2043  -18.2139  -43.5543 H         1 UNK         0.3000 
    155 H155       -1.2765  -17.4584  -46.8995 H         1 UNK         0.0600 
    156 H156       -2.1980  -15.2020  -46.3389 H         1 UNK         0.0600 
    157 H157       -3.2245  -15.9191  -45.1028 H         1 UNK         0.0600 
    158 H158       -3.4772  -16.3166  -46.7997 H         1 UNK         0.0600 
    159 H159       -0.7628  -16.0521  -44.5139 H         1 UNK         0.3000 
    160 H160        1.5645  -18.1670  -42.9590 H         1 UNK         0.0600 
    161 H161        2.4560  -15.8246  -44.7228 H         1 UNK         0.0600 
    162 H162        3.0751  -17.4680  -44.8421 H         1 UNK         0.0600 
    163 H163        3.3555  -16.5342  -43.3807 H         1 UNK         0.0600 
    164 H164        1.2050  -15.3713  -42.6683 H         1 UNK         0.3000 
    165 H165       -1.9673  -15.2236  -41.2262 H         1 UNK         0.0600 
    166 H166        0.6229  -15.1477  -39.5822 H         1 UNK         0.0600 
    167 H167       -0.9073  -14.3872  -39.1432 H         1 UNK         0.0600 
    168 H168       -0.7848  -16.1373  -39.2130 H         1 UNK         0.0600 
    169 H169        0.0915  -13.3076  -41.1656 H         1 UNK         0.3000 
    170 H170        0.4190  -12.3535  -44.4618 H         1 UNK         0.0600 
    171 H171       -1.8580  -11.3553  -44.2162 H         1 UNK         0.0600 
    172 H172       -1.4765  -10.8563  -42.5724 H         1 UNK         0.0600 
    173 H173       -0.6066  -10.1559  -43.9388 H         1 UNK         0.0600 
    174 H174        0.9479  -10.8995  -42.0808 H         1 UNK         0.3000 
    175 H175        3.1287  -10.6844  -41.4758 H         1 UNK         0.0600 
    176 H176        3.7177  -11.8381  -39.3187 H         1 UNK         0.0600 
    177 H177        2.0119  -12.0414  -39.6830 H         1 UNK         0.0600 
    178 H178        3.1322  -13.3697  -39.9657 H         1 UNK         0.0600 
    179 H179        4.6798  -12.9539  -42.4244 H         1 UNK         0.3000 
    180 H180        7.5116  -10.9512  -42.7872 H         1 UNK         0.0600 
    181 H181        7.4834  -13.3297  -40.8513 H         1 UNK         0.0600 
    182 H182        8.1168  -11.7285  -40.4909 H         1 UNK         0.0600 
    183 H183        8.8928  -12.7159  -41.7177 H         1 UNK         0.0600 
    184 H184        7.1376  -13.7402  -43.2547 H         1 UNK         0.3000 
    185 H185        7.0762  -13.8865  -46.0605 H         1 UNK         0.0600 
    186 H186        5.4432  -15.8188  -45.5984 H         1 UNK         0.0600 
    187 H187        6.4395  -15.4019  -44.2193 H         1 UNK         0.0600 
    188 H188        4.7660  -14.8562  -44.2874 H         1 UNK         0.0600 
    189 H189        4.4052  -12.7339  -46.3346 H         1 UNK         0.3000 
    190 H190       -2.6562  -21.0997  -47.1193 H         1 UNK         0.3000 
    191 H191       -4.1955  -22.5127  -49.0276 H         1 UNK         0.0600 
    192 H192       -5.1490  -20.8041  -47.5163 H         1 UNK         0.0600 
    193 H193       -6.0086  -22.3255  -47.3293 H         1 UNK         0.0600 
    194 H194       -4.8384  -21.8252  -46.1143 H         1 UNK         0.0600 
    195 H195       -2.8311  -23.6103  -45.8820 H         1 UNK         0.3000 
    196 H196       -3.9042  -26.2344  -45.9443 H         1 UNK         0.0600 
    197 H197       -2.1672  -26.7229  -44.2334 H         1 UNK         0.0600 
    198 H198       -2.9699  -25.1970  -43.8949 H         1 UNK         0.0600 
    199 H199       -1.3529  -25.2077  -44.5950 H         1 UNK         0.0600 
    200 H200       -0.7532  -24.9738  -47.1512 H         1 UNK         0.3000 
    201 H201        0.2604  -27.4218  -48.1597 H         1 UNK         0.0600 
    202 H202        1.6649  -25.4164  -47.7771 H         1 UNK         0.0600 
    203 H203        0.8129  -24.5399  -49.0460 H         1 UNK         0.0600 
    204 H204        1.8031  -25.9373  -49.4497 H         1 UNK         0.0600 
    205 H205       -1.8833  -24.9978  -49.6389 H         1 UNK         0.3000 
    206 H206       -2.0724  -26.3026  -52.2197 H         1 UNK         0.0600 
    207 H207       -2.4063  -23.8465  -51.8976 H         1 UNK         0.0600 
    208 H208       -3.8283  -24.5889  -52.6094 H         1 UNK         0.0600 
    209 H209       -3.8273  -24.1626  -50.9043 H         1 UNK         0.0600 
    210 H210       -3.2226  -27.3214  -49.2488 H         1 UNK         0.3000 
    211 H211       -4.7222  -28.7316  -48.4774 H         1 UNK         0.0600 
    212 H212       -5.1023  -29.7002  -51.3593 H         1 UNK         0.0600 
    213 H213       -5.5032  -30.5851  -49.8945 H         1 UNK         0.0600 
    214 H214       -3.8240  -30.2340  -50.2683 H         1 UNK         0.0600 
    215 H215       -5.5840  -26.1321  -48.9084 H         1 UNK         0.3000 
    216 H216       -7.2956  -24.8011  -48.7437 H         1 UNK         0.0600 
    217 H217       -8.1774  -26.4888  -47.1140 H         1 UNK         0.0600 
    218 H218       -9.1119  -27.2416  -48.4066 H         1 UNK         0.0600 
    219 H219       -9.4604  -25.5934  -47.9083 H         1 UNK         0.0600 
    220 H220       -6.5532  -25.9517  -51.4492 H         1 UNK         0.3000 
    221 H221       -8.8905  -25.6758  -53.1222 H         1 UNK         0.0600 
    222 H222       -5.9053  -25.4539  -53.7966 H         1 UNK         0.0600 
    223 H223       -6.8467  -26.9454  -53.8210 H         1 UNK         0.0600 
    224 H224       -7.2106  -25.6547  -54.9562 H         1 UNK         0.0600 
    225 H225       -9.2860  -23.9547  -54.6262 H         1 UNK         0.3000 
    226 H226       -9.1244  -21.2993  -53.5472 H         1 UNK         0.0600 
    227 H227      -11.0458  -22.0893  -54.9218 H         1 UNK         0.0600 
    228 H228      -10.2826  -20.7048  -55.6859 H         1 UNK         0.0600 
    229 H229       -9.9851  -22.3213  -56.3123 H         1 UNK         0.0600 
    230 H230       -8.0797  -19.4942  -54.4009 H         1 UNK         0.3000 
    231 H231       -6.4398  -18.2289  -55.1412 H         1 UNK         0.0600 
    232 H232       -5.6371  -18.4910  -57.4437 H         1 UNK         0.0600 
    233 H233       -7.3508  -18.8653  -57.3858 H         1 UNK         0.0600 
    234 H234       -6.1653  -20.1659  -57.4954 H         1 UNK         0.0600 
    235 H235       -5.7330  -20.1748  -53.1829 H         1 UNK         0.3000 
    236 H236       -3.2201  -21.3744  -53.5493 H         1 UNK         0.0600 
    237 H237       -3.1594  -21.4060  -51.0573 H         1 UNK         0.0600 
    238 H238       -4.4843  -20.2508  -50.9890 H         1 UNK         0.0600 
    239 H239       -4.7483  -21.8655  -51.6488 H         1 UNK         0.0600 
    240 H240       -3.9981  -18.0170  -52.9838 H         1 UNK         0.3000 
    241 H241       -1.2544  -17.1818  -52.4133 H         1 UNK         0.0600 
    242 H242       -1.6318  -17.1613  -56.3858 H         1 UNK         0.3800 
    243 H243       -2.6252  -18.1815  -55.3793 H         1 UNK         0.3800 
    244 H244       -2.2522  -14.8512  -52.4799 H         1 UNK         0.0800 
    245 H245       -3.7929  -15.5449  -52.8944 H         1 UNK         0.0800 
    246 H246       -2.0909  -13.9665  -50.0037 H         1 UNK         0.0800 
    247 H247       -2.0001  -15.1447  -48.7203 H         1 UNK         0.0800 
@<TRIPOS>BOND
     1    1    2 1    
     2    1  127 1    
     3    1  128 1    
     4    1  129 1    
     5    2    3 2    
     6    2    4 am   BACKBONE|DICT|INTERRES
     7    4    5 1    
     8    4  130 1    
     9    5    6 1    
    10    5   65 1    
    11    5  131 1    
    12    6    7 1    
    13    6  132 1    
    14    6  133 1    
    15    7    8 1    
    16    8    9 1    
    17    8  134 1    
    18    8  135 1    
    19    9   10 ar   
    20    9   14 ar   
    21   10   11 ar   
    22   10  136 1    
    23   11   12 ar   
    24   11  126 1    
    25   12   13 ar   
    26   12  137 1    
    27   13   14 ar   
    28   13   15 1    
    29   14  138 1    
    30   15   16 1    
    31   15  139 1    
    32   15  140 1    
    33   16   17 1    
    34   17   18 1    
    35   17  141 1    
    36   17  142 1    
    37   18   19 1    
    38   18   67 1    
    39   18  143 1    
    40   19   20 am   BACKBONE|DICT|INTERRES
    41   19  144 1    
    42   20   21 2    
    43   20   22 1    
    44   22   23 1    
    45   22   24 1    
    46   22  145 1    
    47   23  146 1    
    48   23  147 1    
    49   23  148 1    
    50   24   25 am   BACKBONE|DICT|INTERRES
    51   24  149 1    
    52   25   26 2    
    53   25   27 1    
    54   27   28 1    
    55   27   29 1    
    56   27  150 1    
    57   28  151 1    
    58   28  152 1    
    59   28  153 1    
    60   29   30 am   BACKBONE|DICT|INTERRES
    61   29  154 1    
    62   30   31 2    
    63   30   32 1    
    64   32   33 1    
    65   32   34 1    
    66   32  155 1    
    67   33  156 1    
    68   33  157 1    
    69   33  158 1    
    70   34   35 am   BACKBONE|DICT|INTERRES
    71   34  159 1    
    72   35   36 2    
    73   35   37 1    
    74   37   38 1    
    75   37   39 1    
    76   37  160 1    
    77   38  161 1    
    78   38  162 1    
    79   38  163 1    
    80   39   40 am   BACKBONE|DICT|INTERRES
    81   39  164 1    
    82   40   41 2    
    83   40   42 1    
    84   42   43 1    
    85   42   44 1    
    86   42  165 1    
    87   43  166 1    
    88   43  167 1    
    89   43  168 1    
    90   44   45 am   BACKBONE|DICT|INTERRES
    91   44  169 1    
    92   45   46 2    
    93   45   47 1    
    94   47   48 1    
    95   47   49 1    
    96   47  170 1    
    97   48  171 1    
    98   48  172 1    
    99   48  173 1    
   100   49   50 am   BACKBONE|DICT|INTERRES
   101   49  174 1    
   102   50   51 2    
   103   50   52 1    
   104   52   53 1    
   105   52   54 1    
   106   52  175 1    
   107   53  176 1    
   108   53  177 1    
   109   53  178 1    
   110   54   55 am   BACKBONE|DICT|INTERRES
   111   54  179 1    
   112   55   56 2    
   113   55   57 1    
   114   57   58 1    
   115   57   59 1    
   116   57  180 1    
   117   58  181 1    
   118   58  182 1    
   119   58  183 1    
   120   59   60 am   BACKBONE|DICT|INTERRES
   121   59  184 1    
   122   60   61 2    
   123   60   62 1    
   124   62   63 1    
   125   62   64 1    
   126   62  185 1    
   127   63  186 1    
   128   63  187 1    
   129   63  188 1    
   130   64   65 am   BACKBONE|DICT|INTERRES
   131   64  189 1    
   132   65   66 2    
   133   67   68 2    
   134   67   69 am   BACKBONE|DICT|INTERRES
   135   69   70 1    
   136   69  190 1    
   137   70   71 1    
   138   70   72 1    
   139   70  191 1    
   140   71  192 1    
   141   71  193 1    
   142   71  194 1    
   143   72   73 2    
   144   72   74 am   BACKBONE|DICT|INTERRES
   145   74   75 1    
   146   74  195 1    
   147   75   76 1    
   148   75   77 1    
   149   75  196 1    
   150   76  197 1    
   151   76  198 1    
   152   76  199 1    
   153   77   78 2    
   154   77   79 am   BACKBONE|DICT|INTERRES
   155   79   80 1    
   156   79  200 1    
   157   80   81 1    
   158   80   82 1    
   159   80  201 1    
   160   81  202 1    
   161   81  203 1    
   162   81  204 1    
   163   82   83 2    
   164   82   84 am   BACKBONE|DICT|INTERRES
   165   84   85 1    
   166   84  205 1    
   167   85   86 1    
   168   85   87 1    
   169   85  206 1    
   170   86  207 1    
   171   86  208 1    
   172   86  209 1    
   173   87   88 2    
   174   87   89 am   BACKBONE|DICT|INTERRES
   175   89   90 1    
   176   89  210 1    
   177   90   91 1    
   178   90   92 1    
   179   90  211 1    
   180   91  212 1    
   181   91  213 1    
   182   91  214 1    
   183   92   93 2    
   184   92   94 am   BACKBONE|DICT|INTERRES
   185   94   95 1    
   186   94  215 1    
   187   95   96 1    
   188   95   97 1    
   189   95  216 1    
   190   96  217 1    
   191   96  218 1    
   192   96  219 1    
   193   97   98 2    
   194   97   99 am   BACKBONE|DICT|INTERRES
   195   99  100 1    
   196   99  220 1    
   197  100  101 1    
   198  100  102 1    
   199  100  221 1    
   200  101  222 1    
   201  101  223 1    
   202  101  224 1    
   203  102  103 2    
   204  102  104 am   BACKBONE|DICT|INTERRES
   205  104  105 1    
   206  104  225 1    
   207  105  106 1    
   208  105  107 1    
   209  105  226 1    
   210  106  227 1    
   211  106  228 1    
   212  106  229 1    
   213  107  108 2    
   214  107  109 am   BACKBONE|DICT|INTERRES
   215  109  110 1    
   216  109  230 1    
   217  110  111 1    
   218  110  112 1    
   219  110  231 1    
   220  111  232 1    
   221  111  233 1    
   222  111  234 1    
   223  112  113 2    
   224  112  114 am   BACKBONE|DICT|INTERRES
   225  114  115 1    
   226  114  235 1    
   227  115  116 1    
   228  115  117 1    
   229  115  236 1    
   230  116  237 1    
   231  116  238 1    
   232  116  239 1    
   233  117  118 2    
   234  117  119 am   BACKBONE|DICT|INTERRES
   235  119  120 1    
   236  119  240 1    
   237  120  121 1    
   238  120  124 1    
   239  120  241 1    
   240  121  122 am   BACKBONE|DICT|INTERRES
   241  121  123 2    
   242  122  242 1    
   243  122  243 1    
   244  124  125 1    
   245  124  244 1    
   246  124  245 1    
   247  125  126 1    
   248  126  246 1    
   249  126  247 1    
@<TRIPOS>SUBSTRUCTURE
     1 UNK         1 GROUP             0       ****    0 ROOT    
