@<TRIPOS>MOLECULE
3R540
247   249    1
SMALL
USER_CHARGES


@<TRIPOS>ATOM
      1 CA         -1.1504  -10.8876  -49.2025 C.3       0 UNK        -0.1800 
      2 C          -0.8976  -12.2800  -48.6420 C.2       0 UNK         0.5000 
      3 O           0.2465  -12.7314  -48.6221 O.2       0 UNK        -0.5000 
      4 N          -1.9621  -12.9622  -48.1995 N.am      1 UNK        -0.5000 
      5 CA         -1.9037  -14.2838  -47.5626 C.3       1 UNK         0.1400 
      6 C6         -3.3003  -14.9697  -47.5550 C.3       23 UNK        -0.0398 
      7 S7         -3.2445  -16.7484  -47.9508 S.3       23 UNK        -0.2404 
      8 C8         -4.8183  -17.2980  -47.2170 C.3       23 UNK        -0.0205 
      9 C9         -5.3141  -18.6109  -47.8092 C.ar      23 UNK        -0.0193 
     10 C10        -6.0469  -18.6027  -49.0011 C.ar      23 UNK        -0.1150 
     11 C11        -6.5771  -19.7882  -49.5187 C.ar      23 UNK        -0.0193 
     12 C12        -6.3457  -20.9915  -48.8502 C.ar      23 UNK        -0.1150 
     13 C13        -5.6129  -21.0184  -47.6608 C.ar      23 UNK        -0.0193 
     14 C14        -5.1019  -19.8230  -47.1413 C.ar      23 UNK        -0.1150 
     15 C15        -5.4376  -22.3359  -46.9188 C.3       23 UNK        -0.0205 
     16 S16        -3.8148  -23.1009  -47.2372 S.3       23 UNK        -0.2404 
     17 C17        -2.8670  -22.5952  -45.7624 C.3       23 UNK        -0.0398 
     18 CA         -1.9762  -21.3573  -46.0203 C.3       11 UNK         0.1400 
     19 N          -1.9812  -20.4346  -44.8837 N.am      11 UNK        -0.5000 
     20 C          -1.6315  -19.1443  -44.9605 C.2       10 UNK         0.5000 
     21 O          -1.1920  -18.6437  -45.9948 O.2       10 UNK        -0.5000 
     22 CA         -1.7369  -18.2782  -43.6886 C.3       10 UNK         0.1400 
     23 CB         -2.6047  -17.0223  -43.9048 C.3       10 UNK        -0.1800 
     24 N          -2.1355  -18.9980  -42.4727 N.am      10 UNK        -0.5000 
     25 C          -3.3232  -19.5408  -42.1696 C.2       9 UNK         0.5000 
     26 O          -4.3145  -19.4914  -42.8988 O.2       9 UNK        -0.5000 
     27 CA         -3.3627  -20.3283  -40.8425 C.3       9 UNK         0.1400 
     28 CB         -4.7294  -20.9893  -40.5660 C.3       9 UNK        -0.1800 
     29 N          -2.2786  -21.3169  -40.7672 N.am      9 UNK        -0.5000 
     30 C          -2.0454  -22.3236  -41.6259 C.2       8 UNK         0.5000 
     31 O          -2.7802  -22.5947  -42.5742 O.2       8 UNK        -0.5000 
     32 CA         -0.7491  -23.1334  -41.4041 C.3       8 UNK         0.1400 
     33 CB         -0.3394  -23.9591  -42.6435 C.3       8 UNK        -0.1800 
     34 N           0.3682  -22.2976  -40.9472 N.am      8 UNK        -0.5000 
     35 C           0.8974  -21.2495  -41.5939 C.2       7 UNK         0.5000 
     36 O           0.5376  -20.8727  -42.7130 O.2       7 UNK        -0.5000 
     37 CA          2.0124  -20.4973  -40.8398 C.3       7 UNK         0.1400 
     38 CB          3.3841  -21.1238  -41.1326 C.3       7 UNK        -0.1800 
     39 N           2.0662  -19.0727  -41.1663 N.am      7 UNK        -0.5000 
     40 C           1.0624  -18.1967  -41.0238 C.2       6 UNK         0.5000 
     41 O          -0.0268  -18.4851  -40.5236 O.2       6 UNK        -0.5000 
     42 CA          1.3019  -16.7555  -41.5236 C.3       6 UNK         0.1400 
     43 CB          1.3965  -15.7821  -40.3386 C.3       6 UNK        -0.1800 
     44 N           2.4916  -16.5849  -42.3644 N.am      6 UNK        -0.5000 
     45 C           2.6617  -17.0970  -43.5905 C.2       5 UNK         0.5000 
     46 O           1.8372  -17.8086  -44.1628 O.2       5 UNK        -0.5000 
     47 CA          3.9446  -16.6683  -44.3089 C.3       5 UNK         0.1400 
     48 CB          4.4226  -17.6857  -45.3634 C.3       5 UNK        -0.1800 
     49 N           3.6589  -15.3693  -44.9014 N.am      5 UNK        -0.5000 
     50 C           4.5534  -14.4971  -45.3753 C.2       4 UNK         0.5000 
     51 O           5.7626  -14.7165  -45.4557 O.2       4 UNK        -0.5000 
     52 CA          3.9928  -13.1228  -45.7858 C.3       4 UNK         0.1400 
     53 CB          3.3380  -13.1978  -47.1732 C.3       4 UNK        -0.1800 
     54 N           3.0211  -12.5978  -44.8218 N.am      4 UNK        -0.5000 
     55 C           3.2838  -12.2799  -43.5469 C.2       3 UNK         0.5000 
     56 O           4.4033  -12.3763  -43.0431 O.2       3 UNK        -0.5000 
     57 CA          2.1171  -11.7861  -42.6649 C.3       3 UNK         0.1400 
     58 CB          2.0589  -10.2465  -42.6397 C.3       3 UNK        -0.1800 
     59 N           0.7978  -12.3649  -42.9649 N.am      3 UNK        -0.5000 
     60 C           0.0339  -12.1986  -44.0526 C.2       2 UNK         0.5000 
     61 O           0.3646  -11.5283  -45.0333 O.2       2 UNK        -0.5000 
     62 CA         -1.3409  -12.8909  -44.0199 C.3       2 UNK         0.1400 
     63 CB         -2.3783  -11.9958  -43.3253 C.3       2 UNK        -0.1800 
     64 N          -1.8193  -13.2100  -45.3630 N.am      2 UNK        -0.5000 
     65 C          -1.3041  -14.1701  -46.1433 C.2       1 UNK         0.5000 
     66 O          -0.3901  -14.9128  -45.7870 O.2       1 UNK        -0.5000 
     67 C          -0.5579  -21.7318  -46.5029 C.2       11 UNK         0.5000 
     68 O          -0.4245  -22.2527  -47.6109 O.2       11 UNK        -0.5000 
     69 N           0.4830  -21.4247  -45.7128 N.am      12 UNK        -0.5000 
     70 CA          1.8796  -21.5046  -46.1417 C.3       12 UNK         0.1400 
     71 CB          2.8087  -21.3347  -44.9333 C.3       12 UNK        -0.1800 
     72 C           2.2186  -20.4814  -47.2437 C.2       12 UNK         0.5000 
     73 O           2.9689  -20.8187  -48.1591 O.2       12 UNK        -0.5000 
     74 N           1.6278  -19.2773  -47.1772 N.am      13 UNK        -0.5000 
     75 CA          1.7557  -18.2430  -48.2102 C.3       13 UNK         0.1400 
     76 CB          1.2562  -16.8973  -47.6680 C.3       13 UNK        -0.1800 
     77 C           0.9859  -18.6095  -49.4893 C.2       13 UNK         0.5000 
     78 O           1.4437  -18.3034  -50.5901 O.2       13 UNK        -0.5000 
     79 N          -0.1555  -19.2881  -49.3148 N.am      14 UNK        -0.5000 
     80 CA         -0.9861  -19.8210  -50.3941 C.3       14 UNK         0.1400 
     81 CB         -2.3851  -20.1110  -49.8300 C.3       14 UNK        -0.1800 
     82 C          -0.3954  -21.0893  -51.0443 C.2       14 UNK         0.5000 
     83 O          -0.8784  -21.4997  -52.1012 O.2       14 UNK        -0.5000 
     84 N           0.6051  -21.6939  -50.3844 N.am      15 UNK        -0.5000 
     85 CA          1.2768  -22.9586  -50.6913 C.3       15 UNK         0.1400 
     86 CB          2.1029  -22.8454  -51.9852 C.3       15 UNK        -0.1800 
     87 C           0.2815  -24.1315  -50.7173 C.2       15 UNK         0.5000 
     88 O           0.1643  -24.8256  -51.7275 O.2       15 UNK        -0.5000 
     89 N          -0.4709  -24.2821  -49.6176 N.am      16 UNK        -0.5000 
     90 CA         -1.5725  -25.2374  -49.4425 C.3       16 UNK         0.1400 
     91 CB         -1.0545  -26.6910  -49.4463 C.3       16 UNK        -0.1800 
     92 C          -2.7162  -24.9953  -50.4527 C.2       16 UNK         0.5000 
     93 O          -3.3300  -25.9455  -50.9398 O.2       16 UNK        -0.5000 
     94 N          -2.9448  -23.7092  -50.7593 N.am      17 UNK        -0.5000 
     95 CA         -3.9145  -23.1491  -51.7060 C.3       17 UNK         0.1400 
     96 CB         -5.3412  -23.6263  -51.3749 C.3       17 UNK        -0.1800 
     97 C          -3.5576  -23.3599  -53.1934 C.2       17 UNK         0.5000 
     98 O          -4.3368  -22.9459  -54.0549 O.2       17 UNK        -0.5000 
     99 N          -2.4030  -23.9767  -53.4868 N.am      18 UNK        -0.5000 
    100 CA        -1.9782  -24.3263  -54.8412 C.3       18 UNK         0.1400 
    101 CB        -0.9963  -25.5058  -54.7861 C.3       18 UNK        -0.1800 
    102 C         -1.3564  -23.1457  -55.6046 C.2       18 UNK         0.5000 
    103 O         -1.6329  -22.9961  -56.7949 O.2       18 UNK        -0.5000 
    104 N         -0.5416  -22.3231  -54.9265 N.am      19 UNK        -0.5000 
    105 CA         0.1148  -21.1576  -55.5327 C.3       19 UNK         0.1400 
    106 CB         1.3667  -20.7635  -54.7354 C.3       19 UNK        -0.1800 
    107 C         -0.8441  -19.9651  -55.6519 C.2       19 UNK         0.5000 
    108 O         -0.7712  -19.2172  -56.6274 O.2       19 UNK        -0.5000 
    109 N         -1.7502  -19.8349  -54.6742 N.am      20 UNK        -0.5000 
    110 CA        -2.8560  -18.8768  -54.7004 C.3       20 UNK         0.1400 
    111 CB        -3.3990  -18.7106  -53.2762 C.3       20 UNK        -0.1800 
    112 C         -3.9789  -19.2811  -55.6792 C.2       20 UNK         0.5000 
    113 O         -4.7752  -18.4231  -56.0617 O.2       20 UNK        -0.5000 
    114 N         -4.0080  -20.5662  -56.0695 N.am      21 UNK        -0.5000 
    115 CA        -4.9560  -21.2106  -56.9834 C.3       21 UNK         0.1400 
    116 CB        -4.7655  -20.6868  -58.4218 C.3       21 UNK        -0.1800 
    117 C         -6.4084  -21.1030  -56.4789 C.2       21 UNK         0.5000 
    118 O         -7.3026  -20.6973  -57.2246 O.2       21 UNK        -0.5000 
    119 N         -6.5980  -21.4456  -55.2012 N.am      22 UNK        -0.5000 
    120 CA        -7.8558  -21.2893  -54.4556 C.3       22 UNK         0.1400 
    121 C         -8.3313  -22.5853  -53.7391 C.2       22 UNK         0.5000 
    122 N         -7.6960  -23.7313  -53.9542 N.am      22 UNK        -0.7600 
    123 O         -9.3128  -22.5618  -53.0014 O.2       22 UNK        -0.5000 
    124 C124       -7.8131  -20.0414  -53.5335 C.3       23 UNK        -0.0398 
    125 S125       -6.4910  -20.0836  -52.2708 S.3       23 UNK        -0.2404 
    126 C126       -7.4513  -19.7689  -50.7632 C.3       23 UNK        -0.0205 
    127 H127       -0.8100  -10.8314  -50.2364 H         1 UNK         0.0600 
    128 H128       -2.2083  -10.6250  -49.1777 H         1 UNK         0.0600 
    129 H129       -0.6023  -10.1462  -48.6209 H         1 UNK         0.0600 
    130 H130       -2.8762  -12.5377  -48.2624 H         1 UNK         0.3000 
    131 H131       -1.2194  -14.8931  -48.1575 H         1 UNK         0.0600 
    132 H132       -3.8221  -14.8217  -46.6074 H         1 UNK         0.0800 
    133 H133       -3.9469  -14.5214  -48.3109 H         1 UNK         0.0800 
    134 H134       -5.5791  -16.5313  -47.3715 H         1 UNK         0.0800 
    135 H135       -4.6962  -17.3927  -46.1380 H         1 UNK         0.0800 
    136 H136       -6.2282  -17.6672  -49.5115 H         1 UNK         0.1150 
    137 H137       -6.7654  -21.9058  -49.2445 H         1 UNK         0.1150 
    138 H138       -4.5585  -19.8327  -46.2070 H         1 UNK         0.1150 
    139 H139       -5.6035  -22.1846  -45.8518 H         1 UNK         0.0800 
    140 H140       -6.2079  -23.0413  -47.2340 H         1 UNK         0.0800 
    141 H141       -3.5823  -22.3889  -44.9675 H         1 UNK         0.0800 
    142 H142       -2.2827  -23.4443  -45.4030 H         1 UNK         0.0800 
    143 H143       -2.4186  -20.7987  -46.8467 H         1 UNK         0.0600 
    144 H144       -2.2999  -20.8043  -43.9975 H         1 UNK         0.3000 
    145 H145       -0.7196  -17.9370  -43.5077 H         1 UNK         0.0600 
    146 H146       -2.4983  -16.3234  -43.0756 H         1 UNK         0.0600 
    147 H147       -2.3090  -16.4985  -44.8115 H         1 UNK         0.0600 
    148 H148       -3.6617  -17.2612  -44.0095 H         1 UNK         0.0600 
    149 H149       -1.3870  -19.1126  -41.7952 H         1 UNK         0.3000 
    150 H150       -3.1802  -19.6031  -40.0480 H         1 UNK         0.0600 
    151 H151       -5.5215  -20.2409  -40.5236 H         1 UNK         0.0600 
    152 H152       -4.7269  -21.5138  -39.6106 H         1 UNK         0.0600 
    153 H153       -5.0007  -21.7066  -41.3412 H         1 UNK         0.0600 
    154 H154       -1.5977  -21.1593  -40.0378 H         1 UNK         0.3000 
    155 H155       -0.9637  -23.8346  -40.5964 H         1 UNK         0.0600 
    156 H156        0.5763  -24.5202  -42.4582 H         1 UNK         0.0600 
    157 H157       -0.1735  -23.3283  -43.5171 H         1 UNK         0.0600 
    158 H158       -1.1135  -24.6809  -42.9062 H         1 UNK         0.0600 
    159 H159        0.7350  -22.5316  -40.0349 H         1 UNK         0.3000 
    160 H160        1.8151  -20.5776  -39.7689 H         1 UNK         0.0600 
    161 H161        3.6689  -21.0005  -42.1774 H         1 UNK         0.0600 
    162 H162        3.3844  -22.1929  -40.9161 H         1 UNK         0.0600 
    163 H163        4.1627  -20.6700  -40.5192 H         1 UNK         0.0600 
    164 H164        2.9089  -18.7476  -41.6135 H         1 UNK         0.3000 
    165 H165        0.4324  -16.4716  -42.1187 H         1 UNK         0.0600 
    166 H166        2.2565  -16.0033  -39.7053 H         1 UNK         0.0600 
    167 H167        1.4862  -14.7505  -40.6791 H         1 UNK         0.0600 
    168 H168        0.5051  -15.8387  -39.7123 H         1 UNK         0.0600 
    169 H169        3.2205  -15.9989  -41.9829 H         1 UNK         0.3000 
    170 H170        4.7328  -16.5530  -43.5621 H         1 UNK         0.0600 
    171 H171        4.5183  -18.6816  -44.9300 H         1 UNK         0.0600 
    172 H172        3.7327  -17.7559  -46.2002 H         1 UNK         0.0600 
    173 H173        5.3991  -17.4143  -45.7636 H         1 UNK         0.0600 
    174 H174        2.6865  -15.0914  -44.8759 H         1 UNK         0.3000 
    175 H175        4.8282  -12.4215  -45.8372 H         1 UNK         0.0600 
    176 H176        2.4678  -13.8561  -47.1734 H         1 UNK         0.0600 
    177 H177        3.0087  -12.2139  -47.5079 H         1 UNK         0.0600 
    178 H178        4.0383  -13.5778  -47.9180 H         1 UNK         0.0600 
    179 H179        2.0801  -12.4219  -45.1606 H         1 UNK         0.3000 
    180 H180        2.3482  -12.1145  -41.6502 H         1 UNK         0.0600 
    181 H181        3.0052   -9.8278  -42.2950 H         1 UNK         0.0600 
    182 H182        1.8613   -9.8285  -43.6271 H         1 UNK         0.0600 
    183 H183        1.2816   -9.8918  -41.9629 H         1 UNK         0.0600 
    184 H184        0.4275  -12.9480  -42.2278 H         1 UNK         0.3000 
    185 H185       -1.2512  -13.8232  -43.4577 H         1 UNK         0.0600 
    186 H186       -2.5128  -11.0511  -43.8538 H         1 UNK         0.0600 
    187 H187       -3.3488  -12.4891  -43.2662 H         1 UNK         0.0600 
    188 H188       -2.0731  -11.7597  -42.3051 H         1 UNK         0.0600 
    189 H189       -2.5174  -12.5926  -45.7489 H         1 UNK         0.3000 
    190 H190        0.3123  -21.0282  -44.7936 H         1 UNK         0.3000 
    191 H191        2.0476  -22.5014  -46.5550 H         1 UNK         0.0600 
    192 H192        3.8564  -21.3844  -45.2321 H         1 UNK         0.0600 
    193 H193        2.6413  -22.1226  -44.1989 H         1 UNK         0.0600 
    194 H194        2.6514  -20.3758  -44.4394 H         1 UNK         0.0600 
    195 H195        1.0097  -19.0665  -46.4017 H         1 UNK         0.3000 
    196 H196        2.8118  -18.1392  -48.4675 H         1 UNK         0.0600 
    197 H197        1.4277  -16.0958  -48.3874 H         1 UNK         0.0600 
    198 H198        1.7611  -16.6184  -46.7448 H         1 UNK         0.0600 
    199 H199        0.1862  -16.9250  -47.4621 H         1 UNK         0.0600 
    200 H200       -0.4690  -19.4555  -48.3685 H         1 UNK         0.3000 
    201 H201       -1.0706  -19.0556  -51.1665 H         1 UNK         0.0600 
    202 H202       -2.7414  -19.2956  -49.2037 H         1 UNK         0.0600 
    203 H203       -2.4055  -21.0209  -49.2304 H         1 UNK         0.0600 
    204 H204       -3.1123  -20.2247  -50.6304 H         1 UNK         0.0600 
    205 H205        0.8856  -21.2706  -49.5107 H         1 UNK         0.3000 
    206 H206        1.9690  -23.1468  -49.8693 H         1 UNK         0.0600 
    207 H207        2.7330  -21.9560  -51.9808 H         1 UNK         0.0600 
    208 H208        2.7559  -23.7106  -52.1033 H         1 UNK         0.0600 
    209 H209        1.4613  -22.8060  -52.8631 H         1 UNK         0.0600 
    210 H210       -0.3477  -23.6129  -48.8588 H         1 UNK         0.3000 
    211 H211       -1.9880  -25.0455  -48.4534 H         1 UNK         0.0600 
    212 H212       -0.6868  -26.9909  -50.4279 H         1 UNK         0.0600 
    213 H213       -1.8472  -27.3870  -49.1697 H         1 UNK         0.0600 
    214 H214       -0.2441  -26.8222  -48.7294 H         1 UNK         0.0600 
    215 H215       -2.3462  -23.0293  -50.3146 H         1 UNK         0.3000 
    216 H216       -3.8959  -22.0726  -51.5501 H         1 UNK         0.0600 
    217 H217       -5.5227  -24.6427  -51.7247 H         1 UNK         0.0600 
    218 H218       -6.0813  -22.9822  -51.8452 H         1 UNK         0.0600 
    219 H219       -5.5291  -23.6025  -50.3020 H         1 UNK         0.0600 
    220 H220       -1.7900  -24.2572  -52.7314 H         1 UNK         0.3000 
    221 H221       -2.8565  -24.6572  -55.4001 H         1 UNK         0.0600 
    222 H222       -0.0561  -25.2281  -54.3092 H         1 UNK         0.0600 
    223 H223       -1.4172  -26.3470  -54.2348 H         1 UNK         0.0600 
    224 H224       -0.7585  -25.8596  -55.7900 H         1 UNK         0.0600 
    225 H225       -0.4313  -22.4468  -53.9262 H         1 UNK         0.3000 
    226 H226        0.4386  -21.4219  -56.5419 H         1 UNK         0.0600 
    227 H227        2.1027  -21.5670  -54.7372 H         1 UNK         0.0600 
    228 H228        1.8485  -19.8900  -55.1763 H         1 UNK         0.0600 
    229 H229        1.1300  -20.5145  -53.7009 H         1 UNK         0.0600 
    230 H230       -1.7083  -20.4768  -53.8919 H         1 UNK         0.3000 
    231 H231       -2.4737  -17.9086  -55.0307 H         1 UNK         0.0600 
    232 H232       -3.6656  -19.6736  -52.8421 H         1 UNK         0.0600 
    233 H233       -2.6637  -18.2367  -52.6280 H         1 UNK         0.0600 
    234 H234       -4.2900  -18.0814  -53.2623 H         1 UNK         0.0600 
    235 H235       -3.3205  -21.1854  -55.6657 H         1 UNK         0.3000 
    236 H236       -4.7077  -22.2731  -56.9840 H         1 UNK         0.0600 
    237 H237       -3.7320  -20.8048  -58.7479 H         1 UNK         0.0600 
    238 H238       -5.3922  -21.2380  -59.1237 H         1 UNK         0.0600 
    239 H239       -5.0261  -19.6316  -58.5086 H         1 UNK         0.0600 
    240 H240       -5.8068  -21.7948  -54.6672 H         1 UNK         0.3000 
    241 H241       -8.6568  -21.1057  -55.1734 H         1 UNK         0.0600 
    242 H242       -6.8876  -23.7658  -54.5551 H         1 UNK         0.3800 
    243 H243       -8.0205  -24.5696  -53.4996 H         1 UNK         0.3800 
    244 H244       -8.7828  -19.8930  -53.0559 H         1 UNK         0.0800 
    245 H245       -7.6529  -19.1514  -54.1433 H         1 UNK         0.0800 
    246 H246       -8.2369  -20.5213  -50.6741 H         1 UNK         0.0800 
    247 H247       -7.9551  -18.8051  -50.8512 H         1 UNK         0.0800 
@<TRIPOS>BOND
     1    1    2 1    
     2    1  127 1    
     3    1  128 1    
     4    1  129 1    
     5    2    3 2    
     6    2    4 am   BACKBONE|DICT|INTERRES
     7    4    5 1    
     8    4  130 1    
     9    5    6 1    
    10    5   65 1    
    11    5  131 1    
    12    6    7 1    
    13    6  132 1    
    14    6  133 1    
    15    7    8 1    
    16    8    9 1    
    17    8  134 1    
    18    8  135 1    
    19    9   10 ar   
    20    9   14 ar   
    21   10   11 ar   
    22   10  136 1    
    23   11   12 ar   
    24   11  126 1    
    25   12   13 ar   
    26   12  137 1    
    27   13   14 ar   
    28   13   15 1    
    29   14  138 1    
    30   15   16 1    
    31   15  139 1    
    32   15  140 1    
    33   16   17 1    
    34   17   18 1    
    35   17  141 1    
    36   17  142 1    
    37   18   19 1    
    38   18   67 1    
    39   18  143 1    
    40   19   20 am   BACKBONE|DICT|INTERRES
    41   19  144 1    
    42   20   21 2    
    43   20   22 1    
    44   22   23 1    
    45   22   24 1    
    46   22  145 1    
    47   23  146 1    
    48   23  147 1    
    49   23  148 1    
    50   24   25 am   BACKBONE|DICT|INTERRES
    51   24  149 1    
    52   25   26 2    
    53   25   27 1    
    54   27   28 1    
    55   27   29 1    
    56   27  150 1    
    57   28  151 1    
    58   28  152 1    
    59   28  153 1    
    60   29   30 am   BACKBONE|DICT|INTERRES
    61   29  154 1    
    62   30   31 2    
    63   30   32 1    
    64   32   33 1    
    65   32   34 1    
    66   32  155 1    
    67   33  156 1    
    68   33  157 1    
    69   33  158 1    
    70   34   35 am   BACKBONE|DICT|INTERRES
    71   34  159 1    
    72   35   36 2    
    73   35   37 1    
    74   37   38 1    
    75   37   39 1    
    76   37  160 1    
    77   38  161 1    
    78   38  162 1    
    79   38  163 1    
    80   39   40 am   BACKBONE|DICT|INTERRES
    81   39  164 1    
    82   40   41 2    
    83   40   42 1    
    84   42   43 1    
    85   42   44 1    
    86   42  165 1    
    87   43  166 1    
    88   43  167 1    
    89   43  168 1    
    90   44   45 am   BACKBONE|DICT|INTERRES
    91   44  169 1    
    92   45   46 2    
    93   45   47 1    
    94   47   48 1    
    95   47   49 1    
    96   47  170 1    
    97   48  171 1    
    98   48  172 1    
    99   48  173 1    
   100   49   50 am   BACKBONE|DICT|INTERRES
   101   49  174 1    
   102   50   51 2    
   103   50   52 1    
   104   52   53 1    
   105   52   54 1    
   106   52  175 1    
   107   53  176 1    
   108   53  177 1    
   109   53  178 1    
   110   54   55 am   BACKBONE|DICT|INTERRES
   111   54  179 1    
   112   55   56 2    
   113   55   57 1    
   114   57   58 1    
   115   57   59 1    
   116   57  180 1    
   117   58  181 1    
   118   58  182 1    
   119   58  183 1    
   120   59   60 am   BACKBONE|DICT|INTERRES
   121   59  184 1    
   122   60   61 2    
   123   60   62 1    
   124   62   63 1    
   125   62   64 1    
   126   62  185 1    
   127   63  186 1    
   128   63  187 1    
   129   63  188 1    
   130   64   65 am   BACKBONE|DICT|INTERRES
   131   64  189 1    
   132   65   66 2    
   133   67   68 2    
   134   67   69 am   BACKBONE|DICT|INTERRES
   135   69   70 1    
   136   69  190 1    
   137   70   71 1    
   138   70   72 1    
   139   70  191 1    
   140   71  192 1    
   141   71  193 1    
   142   71  194 1    
   143   72   73 2    
   144   72   74 am   BACKBONE|DICT|INTERRES
   145   74   75 1    
   146   74  195 1    
   147   75   76 1    
   148   75   77 1    
   149   75  196 1    
   150   76  197 1    
   151   76  198 1    
   152   76  199 1    
   153   77   78 2    
   154   77   79 am   BACKBONE|DICT|INTERRES
   155   79   80 1    
   156   79  200 1    
   157   80   81 1    
   158   80   82 1    
   159   80  201 1    
   160   81  202 1    
   161   81  203 1    
   162   81  204 1    
   163   82   83 2    
   164   82   84 am   BACKBONE|DICT|INTERRES
   165   84   85 1    
   166   84  205 1    
   167   85   86 1    
   168   85   87 1    
   169   85  206 1    
   170   86  207 1    
   171   86  208 1    
   172   86  209 1    
   173   87   88 2    
   174   87   89 am   BACKBONE|DICT|INTERRES
   175   89   90 1    
   176   89  210 1    
   177   90   91 1    
   178   90   92 1    
   179   90  211 1    
   180   91  212 1    
   181   91  213 1    
   182   91  214 1    
   183   92   93 2    
   184   92   94 am   BACKBONE|DICT|INTERRES
   185   94   95 1    
   186   94  215 1    
   187   95   96 1    
   188   95   97 1    
   189   95  216 1    
   190   96  217 1    
   191   96  218 1    
   192   96  219 1    
   193   97   98 2    
   194   97   99 am   BACKBONE|DICT|INTERRES
   195   99  100 1    
   196   99  220 1    
   197  100  101 1    
   198  100  102 1    
   199  100  221 1    
   200  101  222 1    
   201  101  223 1    
   202  101  224 1    
   203  102  103 2    
   204  102  104 am   BACKBONE|DICT|INTERRES
   205  104  105 1    
   206  104  225 1    
   207  105  106 1    
   208  105  107 1    
   209  105  226 1    
   210  106  227 1    
   211  106  228 1    
   212  106  229 1    
   213  107  108 2    
   214  107  109 am   BACKBONE|DICT|INTERRES
   215  109  110 1    
   216  109  230 1    
   217  110  111 1    
   218  110  112 1    
   219  110  231 1    
   220  111  232 1    
   221  111  233 1    
   222  111  234 1    
   223  112  113 2    
   224  112  114 am   BACKBONE|DICT|INTERRES
   225  114  115 1    
   226  114  235 1    
   227  115  116 1    
   228  115  117 1    
   229  115  236 1    
   230  116  237 1    
   231  116  238 1    
   232  116  239 1    
   233  117  118 2    
   234  117  119 am   BACKBONE|DICT|INTERRES
   235  119  120 1    
   236  119  240 1    
   237  120  121 1    
   238  120  124 1    
   239  120  241 1    
   240  121  122 am   BACKBONE|DICT|INTERRES
   241  121  123 2    
   242  122  242 1    
   243  122  243 1    
   244  124  125 1    
   245  124  244 1    
   246  124  245 1    
   247  125  126 1    
   248  126  246 1    
   249  126  247 1    
@<TRIPOS>SUBSTRUCTURE
     1 UNK         1 GROUP             0       ****    0 ROOT    
