@<TRIPOS>MOLECULE
3R540
247   249    1
SMALL
USER_CHARGES


@<TRIPOS>ATOM
      1 CA         -1.8777  -13.3314  -45.6371 C.3       0 UNK        -0.1800 
      2 C          -0.5543  -12.9332  -46.2709 C.2       0 UNK         0.5000 
      3 O          -0.2935  -11.7423  -46.4452 O.2       0 UNK        -0.5000 
      4 N           0.2995  -13.9138  -46.5907 N.am      1 UNK        -0.5000 
      5 CA          1.6408  -13.7230  -47.1573 C.3       1 UNK         0.1400 
      6 C6          2.1018  -14.9547  -47.9803 C.3       23 UNK        -0.0398 
      7 S7          0.9976  -15.3100  -49.3912 S.3       23 UNK        -0.2404 
      8 C8          0.1378  -16.8234  -48.8508 C.3       23 UNK        -0.0205 
      9 C9         -1.3661  -16.6889  -49.0264 C.ar      23 UNK        -0.0193 
     10 C10        -1.9551  -16.9059  -50.2755 C.ar      23 UNK        -0.1150 
     11 C11        -3.3394  -16.7947  -50.4362 C.ar      23 UNK        -0.0193 
     12 C12        -4.1365  -16.4700  -49.3351 C.ar      23 UNK        -0.1150 
     13 C13        -3.5600  -16.2434  -48.0823 C.ar      23 UNK        -0.0193 
     14 C14        -2.1727  -16.3505  -47.9374 C.ar      23 UNK        -0.1150 
     15 C15        -4.4390  -15.8728  -46.8943 C.3       23 UNK        -0.0205 
     16 S16        -4.1595  -16.9438  -45.4480 S.3       23 UNK        -0.2404 
     17 C17        -4.7552  -18.5523  -46.0680 C.3       23 UNK        -0.0398 
     18 CA         -3.6302  -19.4539  -46.6361 C.3       11 UNK         0.1400 
     19 N          -2.4967  -19.5934  -45.7121 N.am      11 UNK        -0.5000 
     20 C          -1.3884  -20.3148  -45.9259 C.2       10 UNK         0.5000 
     21 O          -1.2197  -20.9988  -46.9348 O.2       10 UNK        -0.5000 
     22 CA         -0.2824  -20.2956  -44.8504 C.3       10 UNK         0.1400 
     23 CB          1.1075  -20.1556  -45.4936 C.3       10 UNK        -0.1800 
     24 N          -0.4422  -19.2720  -43.8107 N.am      10 UNK        -0.5000 
     25 C          -1.2864  -19.3546  -42.7718 C.2       9 UNK         0.5000 
     26 O          -2.1194  -20.2546  -42.6593 O.2       9 UNK        -0.5000 
     27 CA         -1.1966  -18.2796  -41.6681 C.3       9 UNK         0.1400 
     28 CB         -0.7940  -18.9169  -40.3280 C.3       9 UNK        -0.1800 
     29 N          -0.2448  -17.2109  -41.9672 N.am      9 UNK        -0.5000 
     30 C          -0.5167  -16.1038  -42.6694 C.2       8 UNK         0.5000 
     31 O          -1.6193  -15.8498  -43.1499 O.2       8 UNK        -0.5000 
     32 CA          0.6538  -15.1233  -42.8824 C.3       8 UNK         0.1400 
     33 CB          0.7152  -14.1197  -41.7197 C.3       8 UNK        -0.1800 
     34 N           1.9440  -15.8060  -43.0149 N.am      8 UNK        -0.5000 
     35 C           2.2539  -16.6642  -43.9983 C.2       7 UNK         0.5000 
     36 O           1.5072  -16.8968  -44.9489 O.2       7 UNK        -0.5000 
     37 CA          3.5749  -17.4461  -43.8601 C.3       7 UNK         0.1400 
     38 CB          4.7537  -16.7056  -44.5051 C.3       7 UNK        -0.1800 
     39 N           3.8984  -17.7385  -42.4642 N.am      7 UNK        -0.5000 
     40 C           3.3021  -18.6853  -41.7266 C.2       6 UNK         0.5000 
     41 O           2.4206  -19.4302  -42.1512 O.2       6 UNK        -0.5000 
     42 CA          3.7495  -18.7986  -40.2576 C.3       6 UNK         0.1400 
     43 CB          4.9752  -19.7162  -40.1356 C.3       6 UNK        -0.1800 
     44 N           4.0600  -17.4963  -39.6660 N.am      6 UNK        -0.5000 
     45 C           3.1455  -16.5548  -39.3951 C.2       5 UNK         0.5000 
     46 O           1.9367  -16.7090  -39.5690 O.2       5 UNK        -0.5000 
     47 CA          3.6801  -15.1990  -38.8927 C.3       5 UNK         0.1400 
     48 CB          3.8344  -15.2119  -37.3647 C.3       5 UNK        -0.1800 
     49 N           4.9555  -14.8111  -39.5086 N.am      5 UNK        -0.5000 
     50 C           5.1163  -14.5730  -40.8161 C.2       4 UNK         0.5000 
     51 O           4.2038  -14.6751  -41.6417 O.2       4 UNK        -0.5000 
     52 CA          6.5277  -14.1999  -41.2932 C.3       4 UNK         0.1400 
     53 CB          7.4338  -15.4417  -41.3613 C.3       4 UNK        -0.1800 
     54 N           6.3913  -13.6161  -42.6194 N.am      4 UNK        -0.5000 
     55 C           7.2291  -12.7768  -43.2374 C.2       3 UNK         0.5000 
     56 O           8.3152  -12.4259  -42.7754 O.2       3 UNK        -0.5000 
     57 CA          6.7564  -12.2243  -44.5999 C.3       3 UNK         0.1400 
     58 CB          7.3689  -13.0365  -45.7510 C.3       3 UNK        -0.1800 
     59 N           5.2972  -12.2604  -44.7224 N.am      3 UNK        -0.5000 
     60 C           4.4526  -11.4311  -44.1010 C.2       2 UNK         0.5000 
     61 O           4.8160  -10.3956  -43.5405 O.2       2 UNK        -0.5000 
     62 CA          2.9720  -11.8702  -44.0451 C.3       2 UNK         0.1400 
     63 CB          2.0599  -10.8220  -43.3833 C.3       2 UNK        -0.1800 
     64 N           2.3711  -12.2674  -45.3206 N.am      2 UNK        -0.5000 
     65 C           2.6342  -13.3737  -46.0274 C.2       1 UNK         0.5000 
     66 O           3.5748  -14.1254  -45.7769 O.2       1 UNK        -0.5000 
     67 C          -4.2240  -20.8069  -47.0763 C.2       11 UNK         0.5000 
     68 O          -4.4984  -20.9958  -48.2604 O.2       11 UNK        -0.5000 
     69 N          -4.3759  -21.7350  -46.1206 N.am      12 UNK        -0.5000 
     70 CA         -4.8873  -23.0851  -46.3595 C.3       12 UNK         0.1400 
     71 CB         -5.1772  -23.7647  -45.0131 C.3       12 UNK        -0.1800 
     72 C          -3.9321  -23.9442  -47.2069 C.2       12 UNK         0.5000 
     73 O          -4.3941  -24.6975  -48.0632 O.2       12 UNK        -0.5000 
     74 N          -2.6211  -23.7970  -46.9731 N.am      13 UNK        -0.5000 
     75 CA         -1.5673  -24.4834  -47.7202 C.3       13 UNK         0.1400 
     76 CB         -0.2453  -24.3956  -46.9416 C.3       13 UNK        -0.1800 
     77 C          -1.4070  -23.9207  -49.1429 C.2       13 UNK         0.5000 
     78 O          -1.1946  -24.6921  -50.0782 O.2       13 UNK        -0.5000 
     79 N          -1.5310  -22.5933  -49.2783 N.am      14 UNK        -0.5000 
     80 CA         -1.5001  -21.8755  -50.5502 C.3       14 UNK         0.1400 
     81 CB         -1.4021  -20.3660  -50.2836 C.3       14 UNK        -0.1800 
     82 C          -2.7132  -22.2028  -51.4378 C.2       14 UNK         0.5000 
     83 O          -2.5357  -22.4321  -52.6340 O.2       14 UNK        -0.5000 
     84 N          -3.9106  -22.2378  -50.8352 N.am      15 UNK        -0.5000 
     85 CA         -5.1592  -22.5769  -51.5146 C.3       15 UNK         0.1400 
     86 CB         -6.3516  -22.1314  -50.6561 C.3       15 UNK        -0.1800 
     87 C          -5.2687  -24.0749  -51.8457 C.2       15 UNK         0.5000 
     88 O          -5.8025  -24.4274  -52.8970 O.2       15 UNK        -0.5000 
     89 N          -4.8097  -24.9356  -50.9235 N.am      16 UNK        -0.5000 
     90 CA         -4.7493  -26.4028  -51.0123 C.3       16 UNK         0.1400 
     91 CB         -3.6995  -26.8167  -52.0628 C.3       16 UNK        -0.1800 
     92 C          -6.1082  -27.1002  -51.2627 C.2       16 UNK         0.5000 
     93 O          -6.1272  -28.2699  -51.6490 O.2       16 UNK        -0.5000 
     94 N          -7.2137  -26.3632  -51.0701 N.am      17 UNK        -0.5000 
     95 CA         -8.5936  -26.6967  -51.4416 C.3       17 UNK         0.1400 
     96 CB         -9.1236  -27.8659  -50.5853 C.3       17 UNK        -0.1800 
     97 C          -8.7875  -26.9275  -52.9608 C.2       17 UNK         0.5000 
     98 O          -9.7115  -27.6432  -53.3525 O.2       17 UNK        -0.5000 
     99 N          -7.9234  -26.3267  -53.7932 N.am      18 UNK        -0.5000 
    100 CA        -7.8811  -26.5369  -55.2435 C.3       18 UNK         0.1400 
    101 CB        -7.0287  -27.7847  -55.5496 C.3       18 UNK        -0.1800 
    102 C         -7.3786  -25.2897  -55.9966 C.2       18 UNK         0.5000 
    103 O         -6.8590  -25.4179  -57.1072 O.2       18 UNK        -0.5000 
    104 N         -7.5124  -24.1094  -55.3739 N.am      19 UNK        -0.5000 
    105 CA        -6.9794  -22.7951  -55.7615 C.3       19 UNK         0.1400 
    106 CB        -7.5136  -22.3257  -57.1286 C.3       19 UNK        -0.1800 
    107 C         -5.4417  -22.7180  -55.6861 C.2       19 UNK         0.5000 
    108 O         -4.9250  -21.8711  -54.9608 O.2       19 UNK        -0.5000 
    109 N         -4.7548  -23.6248  -56.3945 N.am      20 UNK        -0.5000 
    110 CA        -3.3119  -23.8734  -56.3928 C.3       20 UNK         0.1400 
    111 CB        -2.9272  -24.7131  -55.1587 C.3       20 UNK        -0.1800 
    112 C         -2.4626  -22.5986  -56.5833 C.2       20 UNK         0.5000 
    113 O         -2.3559  -22.1218  -57.7148 O.2       20 UNK        -0.5000 
    114 N         -1.8621  -22.0802  -55.5027 N.am      21 UNK        -0.5000 
    115 CA        -1.0222  -20.8818  -55.5296 C.3       21 UNK         0.1400 
    116 CB        -0.0311  -20.9310  -54.3557 C.3       21 UNK        -0.1800 
    117 C         -1.8351  -19.5738  -55.4934 C.2       21 UNK         0.5000 
    118 O         -1.3058  -18.5331  -55.8876 O.2       21 UNK        -0.5000 
    119 N         -3.0842  -19.6328  -55.0185 N.am      22 UNK        -0.5000 
    120 CA        -4.0065  -18.4929  -54.9566 C.3       22 UNK         0.1400 
    121 C         -4.7277  -18.2587  -56.3119 C.2       22 UNK         0.5000 
    122 N         -5.0410  -17.0132  -56.6434 N.am      22 UNK        -0.7600 
    123 O         -5.0427  -19.1888  -57.0507 O.2       22 UNK        -0.5000 
    124 C124       -5.0339  -18.6413  -53.8053 C.3       23 UNK        -0.0398 
    125 S125       -4.2510  -18.7576  -52.1605 S.3       23 UNK        -0.2404 
    126 C126       -3.9714  -16.9972  -51.8035 C.3       23 UNK        -0.0205 
    127 H127       -1.9511  -14.4080  -45.4881 H         1 UNK         0.0600 
    128 H128       -2.7048  -13.0127  -46.2708 H         1 UNK         0.0600 
    129 H129       -1.9867  -12.8512  -44.6646 H         1 UNK         0.0600 
    130 H130        0.0531  -14.8731  -46.3959 H         1 UNK         0.3000 
    131 H131        1.6190  -12.8674  -47.8358 H         1 UNK         0.0600 
    132 H132        3.0972  -14.7756  -48.3905 H         1 UNK         0.0800 
    133 H133        2.1996  -15.8364  -47.3456 H         1 UNK         0.0800 
    134 H134        0.5039  -17.6688  -49.4352 H         1 UNK         0.0800 
    135 H135        0.3669  -17.0556  -47.8097 H         1 UNK         0.0800 
    136 H136       -1.3351  -17.1596  -51.1239 H         1 UNK         0.1150 
    137 H137       -5.2071  -16.3852  -49.4584 H         1 UNK         0.1150 
    138 H138       -1.7229  -16.1884  -46.9693 H         1 UNK         0.1150 
    139 H139       -4.2340  -14.8403  -46.6135 H         1 UNK         0.0800 
    140 H140       -5.4959  -15.9094  -47.1625 H         1 UNK         0.0800 
    141 H141       -5.5238  -18.3803  -46.8240 H         1 UNK         0.0800 
    142 H142       -5.2577  -19.0489  -45.2359 H         1 UNK         0.0800 
    143 H143       -3.2364  -18.9824  -47.5377 H         1 UNK         0.0600 
    144 H144       -2.5548  -19.0568  -44.8590 H         1 UNK         0.3000 
    145 H145       -0.3144  -21.2721  -44.3630 H         1 UNK         0.0600 
    146 H146        1.8939  -20.1676  -44.7402 H         1 UNK         0.0600 
    147 H147        1.3104  -20.9812  -46.1768 H         1 UNK         0.0600 
    148 H148        1.1946  -19.2327  -46.0667 H         1 UNK         0.0600 
    149 H149        0.1916  -18.4853  -43.8571 H         1 UNK         0.3000 
    150 H150       -2.1936  -17.8494  -41.5527 H         1 UNK         0.0600 
    151 H151       -0.7665  -18.1738  -39.5306 H         1 UNK         0.0600 
    152 H152       -1.5049  -19.6878  -40.0282 H         1 UNK         0.0600 
    153 H153        0.1912  -19.3815  -40.3846 H         1 UNK         0.0600 
    154 H154        0.6862  -17.3201  -41.5869 H         1 UNK         0.3000 
    155 H155        0.4730  -14.5704  -43.8049 H         1 UNK         0.0600 
    156 H156        0.7909  -14.6233  -40.7562 H         1 UNK         0.0600 
    157 H157       -0.1842  -13.5035  -41.6943 H         1 UNK         0.0600 
    158 H158        1.5667  -13.4478  -41.8036 H         1 UNK         0.0600 
    159 H159        2.6464  -15.6023  -42.3106 H         1 UNK         0.3000 
    160 H160        3.4543  -18.3928  -44.3894 H         1 UNK         0.0600 
    161 H161        4.9120  -15.7260  -44.0555 H         1 UNK         0.0600 
    162 H162        4.5791  -16.5572  -45.5711 H         1 UNK         0.0600 
    163 H163        5.6793  -17.2727  -44.4068 H         1 UNK         0.0600 
    164 H164        4.5767  -17.1373  -42.0220 H         1 UNK         0.3000 
    165 H165        2.9289  -19.2465  -39.6926 H         1 UNK         0.0600 
    166 H166        5.2577  -19.8598  -39.0925 H         1 UNK         0.0600 
    167 H167        4.7670  -20.7021  -40.5535 H         1 UNK         0.0600 
    168 H168        5.8383  -19.3106  -40.6650 H         1 UNK         0.0600 
    169 H169        5.0318  -17.2928  -39.4853 H         1 UNK         0.3000 
    170 H170        2.9395  -14.4397  -39.1533 H         1 UNK         0.0600 
    171 H171        2.8942  -15.4784  -36.8797 H         1 UNK         0.0600 
    172 H172        4.5867  -15.9322  -37.0409 H         1 UNK         0.0600 
    173 H173        4.1248  -14.2305  -36.9893 H         1 UNK         0.0600 
    174 H174        5.7463  -14.7142  -38.8878 H         1 UNK         0.3000 
    175 H175        6.9483  -13.4607  -40.6086 H         1 UNK         0.0600 
    176 H176        7.0321  -16.1959  -42.0394 H         1 UNK         0.0600 
    177 H177        8.4337  -15.1815  -41.7088 H         1 UNK         0.0600 
    178 H178        7.5444  -15.9044  -40.3800 H         1 UNK         0.0600 
    179 H179        5.4962  -13.8142  -43.0482 H         1 UNK         0.3000 
    180 H180        7.0964  -11.1900  -44.6834 H         1 UNK         0.0600 
    181 H181        7.0518  -14.0800  -45.7197 H         1 UNK         0.0600 
    182 H182        8.4585  -13.0214  -45.7038 H         1 UNK         0.0600 
    183 H183        7.0793  -12.6274  -46.7191 H         1 UNK         0.0600 
    184 H184        4.8900  -13.0745  -45.1801 H         1 UNK         0.3000 
    185 H185        2.9658  -12.7548  -43.4077 H         1 UNK         0.0600 
    186 H186        2.4158  -10.5619  -42.3855 H         1 UNK         0.0600 
    187 H187        2.0153   -9.9036  -43.9696 H         1 UNK         0.0600 
    188 H188        1.0427  -11.1986  -43.2718 H         1 UNK         0.0600 
    189 H189        1.5680  -11.7234  -45.6182 H         1 UNK         0.3000 
    190 H190       -4.1068  -21.5069  -45.1742 H         1 UNK         0.3000 
    191 H191       -5.8283  -22.9990  -46.9073 H         1 UNK         0.0600 
    192 H192       -5.9161  -23.2045  -44.4398 H         1 UNK         0.0600 
    193 H193       -5.5759  -24.7693  -45.1612 H         1 UNK         0.0600 
    194 H194       -4.2770  -23.8550  -44.4038 H         1 UNK         0.0600 
    195 H195       -2.3234  -23.1084  -46.2980 H         1 UNK         0.3000 
    196 H196       -1.8391  -25.5377  -47.8070 H         1 UNK         0.0600 
    197 H197        0.5486  -24.9319  -47.4630 H         1 UNK         0.0600 
    198 H198       -0.3408  -24.8401  -45.9509 H         1 UNK         0.0600 
    199 H199        0.0853  -23.3642  -46.8163 H         1 UNK         0.0600 
    200 H200       -1.6335  -22.0273  -48.4394 H         1 UNK         0.3000 
    201 H201       -0.6008  -22.1834  -51.0875 H         1 UNK         0.0600 
    202 H202       -0.5111  -20.1229  -49.7048 H         1 UNK         0.0600 
    203 H203       -2.2678  -19.9962  -49.7329 H         1 UNK         0.0600 
    204 H204       -1.3478  -19.8076  -51.2187 H         1 UNK         0.0600 
    205 H205       -3.9819  -21.9634  -49.8596 H         1 UNK         0.3000 
    206 H206       -5.1980  -22.0187  -52.4496 H         1 UNK         0.0600 
    207 H207       -6.3245  -21.0558  -50.4791 H         1 UNK         0.0600 
    208 H208       -7.2969  -22.3554  -51.1519 H         1 UNK         0.0600 
    209 H209       -6.3590  -22.6297  -49.6857 H         1 UNK         0.0600 
    210 H210       -4.4661  -24.5583  -50.0458 H         1 UNK         0.3000 
    211 H211       -4.4023  -26.7501  -50.0384 H         1 UNK         0.0600 
    212 H212       -4.0385  -26.5924  -53.0740 H         1 UNK         0.0600 
    213 H213       -3.4957  -27.8869  -52.0161 H         1 UNK         0.0600 
    214 H214       -2.7533  -26.2992  -51.9030 H         1 UNK         0.0600 
    215 H215       -7.0705  -25.4178  -50.7460 H         1 UNK         0.3000 
    216 H216       -9.1905  -25.8170  -51.1977 H         1 UNK         0.0600 
    217 H217      -10.1933  -28.0116  -50.7399 H         1 UNK         0.0600 
    218 H218       -8.9749  -27.6753  -49.5224 H         1 UNK         0.0600 
    219 H219       -8.6282  -28.8056  -50.8304 H         1 UNK         0.0600 
    220 H220       -7.1769  -25.7541  -53.4055 H         1 UNK         0.3000 
    221 H221       -8.8936  -26.7137  -55.6116 H         1 UNK         0.0600 
    222 H222       -5.9959  -27.6481  -55.2264 H         1 UNK         0.0600 
    223 H223       -7.4218  -28.6672  -55.0446 H         1 UNK         0.0600 
    224 H224       -7.0160  -28.0061  -56.6174 H         1 UNK         0.0600 
    225 H225       -7.9247  -24.1338  -54.4523 H         1 UNK         0.3000 
    226 H226       -7.3601  -22.0976  -55.0136 H         1 UNK         0.0600 
    227 H227       -8.6033  -22.3293  -57.1477 H         1 UNK         0.0600 
    228 H228       -7.1871  -21.3061  -57.3379 H         1 UNK         0.0600 
    229 H229       -7.1611  -22.9509  -57.9487 H         1 UNK         0.0600 
    230 H230       -5.3120  -24.2792  -56.9358 H         1 UNK         0.3000 
    231 H231       -3.1119  -24.4911  -57.2695 H         1 UNK         0.0600 
    232 H232       -3.2785  -24.2622  -54.2325 H         1 UNK         0.0600 
    233 H233       -1.8474  -24.8459  -55.0819 H         1 UNK         0.0600 
    234 H234       -3.3693  -25.7071  -55.2216 H         1 UNK         0.0600 
    235 H235       -2.0744  -22.4617  -54.5844 H         1 UNK         0.3000 
    236 H236       -0.4404  -20.8816  -56.4537 H         1 UNK         0.0600 
    237 H237        0.6790  -20.1052  -54.4127 H         1 UNK         0.0600 
    238 H238       -0.5397  -20.8543  -53.3954 H         1 UNK         0.0600 
    239 H239        0.5447  -21.8566  -54.3599 H         1 UNK         0.0600 
    240 H240       -3.4904  -20.5379  -54.7981 H         1 UNK         0.3000 
    241 H241       -3.4164  -17.5982  -54.7503 H         1 UNK         0.0600 
    242 H242       -4.7997  -16.2290  -56.0571 H         1 UNK         0.3800 
    243 H243       -5.5215  -16.8471  -57.5143 H         1 UNK         0.3800 
    244 H244       -5.7304  -17.8011  -53.7978 H         1 UNK         0.0800 
    245 H245       -5.6445  -19.5331  -53.9523 H         1 UNK         0.0800 
    246 H246       -3.3242  -16.5674  -52.5690 H         1 UNK         0.0800 
    247 H247       -4.9190  -16.4596  -51.8627 H         1 UNK         0.0800 
@<TRIPOS>BOND
     1    1    2 1    
     2    1  127 1    
     3    1  128 1    
     4    1  129 1    
     5    2    3 2    
     6    2    4 am   BACKBONE|DICT|INTERRES
     7    4    5 1    
     8    4  130 1    
     9    5    6 1    
    10    5   65 1    
    11    5  131 1    
    12    6    7 1    
    13    6  132 1    
    14    6  133 1    
    15    7    8 1    
    16    8    9 1    
    17    8  134 1    
    18    8  135 1    
    19    9   10 ar   
    20    9   14 ar   
    21   10   11 ar   
    22   10  136 1    
    23   11   12 ar   
    24   11  126 1    
    25   12   13 ar   
    26   12  137 1    
    27   13   14 ar   
    28   13   15 1    
    29   14  138 1    
    30   15   16 1    
    31   15  139 1    
    32   15  140 1    
    33   16   17 1    
    34   17   18 1    
    35   17  141 1    
    36   17  142 1    
    37   18   19 1    
    38   18   67 1    
    39   18  143 1    
    40   19   20 am   BACKBONE|DICT|INTERRES
    41   19  144 1    
    42   20   21 2    
    43   20   22 1    
    44   22   23 1    
    45   22   24 1    
    46   22  145 1    
    47   23  146 1    
    48   23  147 1    
    49   23  148 1    
    50   24   25 am   BACKBONE|DICT|INTERRES
    51   24  149 1    
    52   25   26 2    
    53   25   27 1    
    54   27   28 1    
    55   27   29 1    
    56   27  150 1    
    57   28  151 1    
    58   28  152 1    
    59   28  153 1    
    60   29   30 am   BACKBONE|DICT|INTERRES
    61   29  154 1    
    62   30   31 2    
    63   30   32 1    
    64   32   33 1    
    65   32   34 1    
    66   32  155 1    
    67   33  156 1    
    68   33  157 1    
    69   33  158 1    
    70   34   35 am   BACKBONE|DICT|INTERRES
    71   34  159 1    
    72   35   36 2    
    73   35   37 1    
    74   37   38 1    
    75   37   39 1    
    76   37  160 1    
    77   38  161 1    
    78   38  162 1    
    79   38  163 1    
    80   39   40 am   BACKBONE|DICT|INTERRES
    81   39  164 1    
    82   40   41 2    
    83   40   42 1    
    84   42   43 1    
    85   42   44 1    
    86   42  165 1    
    87   43  166 1    
    88   43  167 1    
    89   43  168 1    
    90   44   45 am   BACKBONE|DICT|INTERRES
    91   44  169 1    
    92   45   46 2    
    93   45   47 1    
    94   47   48 1    
    95   47   49 1    
    96   47  170 1    
    97   48  171 1    
    98   48  172 1    
    99   48  173 1    
   100   49   50 am   BACKBONE|DICT|INTERRES
   101   49  174 1    
   102   50   51 2    
   103   50   52 1    
   104   52   53 1    
   105   52   54 1    
   106   52  175 1    
   107   53  176 1    
   108   53  177 1    
   109   53  178 1    
   110   54   55 am   BACKBONE|DICT|INTERRES
   111   54  179 1    
   112   55   56 2    
   113   55   57 1    
   114   57   58 1    
   115   57   59 1    
   116   57  180 1    
   117   58  181 1    
   118   58  182 1    
   119   58  183 1    
   120   59   60 am   BACKBONE|DICT|INTERRES
   121   59  184 1    
   122   60   61 2    
   123   60   62 1    
   124   62   63 1    
   125   62   64 1    
   126   62  185 1    
   127   63  186 1    
   128   63  187 1    
   129   63  188 1    
   130   64   65 am   BACKBONE|DICT|INTERRES
   131   64  189 1    
   132   65   66 2    
   133   67   68 2    
   134   67   69 am   BACKBONE|DICT|INTERRES
   135   69   70 1    
   136   69  190 1    
   137   70   71 1    
   138   70   72 1    
   139   70  191 1    
   140   71  192 1    
   141   71  193 1    
   142   71  194 1    
   143   72   73 2    
   144   72   74 am   BACKBONE|DICT|INTERRES
   145   74   75 1    
   146   74  195 1    
   147   75   76 1    
   148   75   77 1    
   149   75  196 1    
   150   76  197 1    
   151   76  198 1    
   152   76  199 1    
   153   77   78 2    
   154   77   79 am   BACKBONE|DICT|INTERRES
   155   79   80 1    
   156   79  200 1    
   157   80   81 1    
   158   80   82 1    
   159   80  201 1    
   160   81  202 1    
   161   81  203 1    
   162   81  204 1    
   163   82   83 2    
   164   82   84 am   BACKBONE|DICT|INTERRES
   165   84   85 1    
   166   84  205 1    
   167   85   86 1    
   168   85   87 1    
   169   85  206 1    
   170   86  207 1    
   171   86  208 1    
   172   86  209 1    
   173   87   88 2    
   174   87   89 am   BACKBONE|DICT|INTERRES
   175   89   90 1    
   176   89  210 1    
   177   90   91 1    
   178   90   92 1    
   179   90  211 1    
   180   91  212 1    
   181   91  213 1    
   182   91  214 1    
   183   92   93 2    
   184   92   94 am   BACKBONE|DICT|INTERRES
   185   94   95 1    
   186   94  215 1    
   187   95   96 1    
   188   95   97 1    
   189   95  216 1    
   190   96  217 1    
   191   96  218 1    
   192   96  219 1    
   193   97   98 2    
   194   97   99 am   BACKBONE|DICT|INTERRES
   195   99  100 1    
   196   99  220 1    
   197  100  101 1    
   198  100  102 1    
   199  100  221 1    
   200  101  222 1    
   201  101  223 1    
   202  101  224 1    
   203  102  103 2    
   204  102  104 am   BACKBONE|DICT|INTERRES
   205  104  105 1    
   206  104  225 1    
   207  105  106 1    
   208  105  107 1    
   209  105  226 1    
   210  106  227 1    
   211  106  228 1    
   212  106  229 1    
   213  107  108 2    
   214  107  109 am   BACKBONE|DICT|INTERRES
   215  109  110 1    
   216  109  230 1    
   217  110  111 1    
   218  110  112 1    
   219  110  231 1    
   220  111  232 1    
   221  111  233 1    
   222  111  234 1    
   223  112  113 2    
   224  112  114 am   BACKBONE|DICT|INTERRES
   225  114  115 1    
   226  114  235 1    
   227  115  116 1    
   228  115  117 1    
   229  115  236 1    
   230  116  237 1    
   231  116  238 1    
   232  116  239 1    
   233  117  118 2    
   234  117  119 am   BACKBONE|DICT|INTERRES
   235  119  120 1    
   236  119  240 1    
   237  120  121 1    
   238  120  124 1    
   239  120  241 1    
   240  121  122 am   BACKBONE|DICT|INTERRES
   241  121  123 2    
   242  122  242 1    
   243  122  243 1    
   244  124  125 1    
   245  124  244 1    
   246  124  245 1    
   247  125  126 1    
   248  126  246 1    
   249  126  247 1    
@<TRIPOS>SUBSTRUCTURE
     1 UNK         1 GROUP             0       ****    0 ROOT    
