@<TRIPOS>MOLECULE
3R540
247   249    1
SMALL
USER_CHARGES


@<TRIPOS>ATOM
      1 CA          1.0210  -17.5538  -47.7203 C.3       0 UNK        -0.1800 
      2 C           1.2644  -16.0621  -47.8816 C.2       0 UNK         0.5000 
      3 O           2.3890  -15.6020  -47.6795 O.2       0 UNK        -0.5000 
      4 N           0.2354  -15.2990  -48.2820 N.am      1 UNK        -0.5000 
      5 CA          0.2973  -13.8412  -48.4920 C.3       1 UNK         0.1400 
      6 C6         -1.0883  -13.2090  -48.7776 C.3       23 UNK        -0.0398 
      7 S7         -2.1195  -13.0987  -47.2758 S.3       23 UNK        -0.2404 
      8 C8         -3.5523  -14.1342  -47.7078 C.3       23 UNK        -0.0205 
      9 C9         -3.1648  -15.5996  -47.7853 C.ar      23 UNK        -0.0193 
     10 C10        -3.0914  -16.2518  -49.0177 C.ar      23 UNK        -0.1150 
     11 C11        -2.6718  -17.5825  -49.0899 C.ar      23 UNK        -0.0193 
     12 C12        -2.3535  -18.2690  -47.9131 C.ar      23 UNK        -0.1150 
     13 C13        -2.4409  -17.6282  -46.6737 C.ar      23 UNK        -0.0193 
     14 C14        -2.8525  -16.2961  -46.6173 C.ar      23 UNK        -0.1150 
     15 C15        -2.0436  -18.3425  -45.3950 C.3       23 UNK        -0.0205 
     16 S16        -3.4676  -19.1456  -44.5834 S.3       23 UNK        -0.2404 
     17 C17        -3.4251  -20.9330  -44.9920 C.3       23 UNK        -0.0398 
     18 CA         -2.1040  -21.5482  -45.5150 C.3       11 UNK         0.1400 
     19 N          -0.9506  -21.3087  -44.6383 N.am      11 UNK        -0.5000 
     20 C           0.3208  -21.5360  -45.0009 C.2       10 UNK         0.5000 
     21 O           0.6401  -21.9501  -46.1130 O.2       10 UNK        -0.5000 
     22 CA          1.4138  -21.3178  -43.9436 C.3       10 UNK         0.1400 
     23 CB          1.9244  -19.8720  -43.9675 C.3       10 UNK        -0.1800 
     24 N           0.9367  -21.6540  -42.6048 N.am      10 UNK        -0.5000 
     25 C           0.8064  -22.9081  -42.1513 C.2       9 UNK         0.5000 
     26 O           1.1457  -23.9034  -42.7918 O.2       9 UNK        -0.5000 
     27 CA          0.1511  -23.0797  -40.7674 C.3       9 UNK         0.1400 
     28 CB          1.2064  -22.9888  -39.6552 C.3       9 UNK        -0.1800 
     29 N          -0.9057  -22.0984  -40.5117 N.am      9 UNK        -0.5000 
     30 C          -2.0599  -22.0342  -41.1897 C.2       8 UNK         0.5000 
     31 O          -2.3710  -22.8222  -42.0826 O.2       8 UNK        -0.5000 
     32 CA         -3.0045  -20.8655  -40.8504 C.3       8 UNK         0.1400 
     33 CB         -3.9689  -21.2660  -39.7244 C.3       8 UNK        -0.1800 
     34 N          -2.3253  -19.6166  -40.4855 N.am      8 UNK        -0.5000 
     35 C          -1.4568  -18.9558  -41.2624 C.2       7 UNK         0.5000 
     36 O          -1.0281  -19.3899  -42.3331 O.2       7 UNK        -0.5000 
     37 CA         -0.9512  -17.6065  -40.7396 C.3       7 UNK         0.1400 
     38 CB          0.3872  -17.7821  -40.0049 C.3       7 UNK        -0.1800 
     39 N          -0.7615  -16.7029  -41.8698 N.am      7 UNK        -0.5000 
     40 C          -1.1193  -15.4153  -41.9132 C.2       6 UNK         0.5000 
     41 O          -1.6312  -14.8200  -40.9630 O.2       6 UNK        -0.5000 
     42 CA         -0.8236  -14.6648  -43.2311 C.3       6 UNK         0.1400 
     43 CB         -1.3958  -13.2364  -43.2515 C.3       6 UNK        -0.1800 
     44 N           0.6131  -14.5965  -43.4986 N.am      6 UNK        -0.5000 
     45 C           1.3473  -15.5982  -43.9934 C.2       5 UNK         0.5000 
     46 O           0.8684  -16.6836  -44.3207 O.2       5 UNK        -0.5000 
     47 CA          2.8501  -15.3230  -44.1627 C.3       5 UNK         0.1400 
     48 CB          3.6468  -16.5853  -44.5386 C.3       5 UNK        -0.1800 
     49 N           3.0532  -14.3184  -45.2000 N.am      5 UNK        -0.5000 
     50 C           3.1408  -12.9969  -45.0049 C.2       4 UNK         0.5000 
     51 O           3.0120  -12.4724  -43.8972 O.2       4 UNK        -0.5000 
     52 CA          3.3931  -12.1173  -46.2522 C.3       4 UNK         0.1400 
     53 CB          4.1817  -10.8325  -45.9255 C.3       4 UNK        -0.1800 
     54 N           4.0099  -12.8426  -47.3712 N.am      4 UNK        -0.5000 
     55 C           5.2102  -13.4462  -47.4020 C.2       3 UNK         0.5000 
     56 O           6.0310  -13.3794  -46.4863 O.2       3 UNK        -0.5000 
     57 CA          5.5377  -14.2990  -48.6464 C.3       3 UNK         0.1400 
     58 CB          6.0278  -15.6992  -48.2372 C.3       3 UNK        -0.1800 
     59 N           4.3663  -14.4627  -49.5087 N.am      3 UNK        -0.5000 
     60 C           4.2035  -13.9221  -50.7235 C.2       2 UNK         0.5000 
     61 O           5.0657  -13.2584  -51.2999 O.2       2 UNK        -0.5000 
     62 CA          2.8343  -14.1408  -51.4046 C.3       2 UNK         0.1400 
     63 CB          2.8992  -15.3570  -52.3411 C.3       2 UNK        -0.1800 
     64 N           1.7288  -14.3228  -50.4567 N.am      2 UNK        -0.5000 
     65 C           1.3238  -13.4065  -49.5641 C.2       1 UNK         0.5000 
     66 O           1.7831  -12.2657  -49.5153 O.2       1 UNK        -0.5000 
     67 C          -2.2809  -23.0577  -45.7876 C.2       11 UNK         0.5000 
     68 O          -2.5629  -23.4448  -46.9208 O.2       11 UNK        -0.5000 
     69 N          -2.0508  -23.8877  -44.7601 N.am      12 UNK        -0.5000 
     70 CA         -2.0228  -25.3474  -44.8574 C.3       12 UNK         0.1400 
     71 CB         -1.9192  -25.9477  -43.4475 C.3       12 UNK        -0.1800 
     72 C          -0.8873  -25.8711  -45.7590 C.2       12 UNK         0.5000 
     73 O          -1.0809  -26.8725  -46.4480 O.2       12 UNK        -0.5000 
     74 N           0.2609  -25.1782  -45.7587 N.am      13 UNK        -0.5000 
     75 CA          1.3909  -25.4560  -46.6465 C.3       13 UNK         0.1400 
     76 CB          2.6640  -24.8060  -46.0831 C.3       13 UNK        -0.1800 
     77 C           1.1229  -24.9931  -48.0919 C.2       13 UNK         0.5000 
     78 O           1.4968  -25.6985  -49.0296 O.2       13 UNK        -0.5000 
     79 N           0.4682  -23.8317  -48.2462 N.am      14 UNK        -0.5000 
     80 CA          0.0247  -23.2696  -49.5252 C.3       14 UNK         0.1400 
     81 CB         -0.5002  -21.8413  -49.3021 C.3       14 UNK        -0.1800 
     82 C          -1.0300  -24.1500  -50.2241 C.2       14 UNK         0.5000 
     83 O          -0.9789  -24.2956  -51.4463 O.2       14 UNK        -0.5000 
     84 N          -1.9303  -24.7490  -49.4284 N.am      15 UNK        -0.5000 
     85 CA         -2.8907  -25.7985  -49.7807 C.3       15 UNK         0.1400 
     86 CB         -2.1498  -27.1324  -50.0184 C.3       15 UNK        -0.1800 
     87 C          -3.8079  -25.3910  -50.9487 C.2       15 UNK         0.5000 
     88 O          -4.7532  -24.6316  -50.7372 O.2       15 UNK        -0.5000 
     89 N          -3.4975  -25.8579  -52.1656 N.am      16 UNK        -0.5000 
     90 CA         -4.1898  -25.5045  -53.4059 C.3       16 UNK         0.1400 
     91 CB         -3.5828  -26.3015  -54.5695 C.3       16 UNK        -0.1800 
     92 C          -4.1630  -23.9947  -53.7122 C.2       16 UNK         0.5000 
     93 O          -5.1396  -23.4716  -54.2470 O.2       16 UNK        -0.5000 
     94 N          -3.0799  -23.3068  -53.3233 N.am      17 UNK        -0.5000 
     95 CA         -2.9665  -21.8533  -53.4380 C.3       17 UNK         0.1400 
     96 CB         -1.4922  -21.4347  -53.3576 C.3       17 UNK        -0.1800 
     97 C          -3.8213  -21.1054  -52.3981 C.2       17 UNK         0.5000 
     98 O          -4.2406  -19.9861  -52.6746 O.2       17 UNK        -0.5000 
     99 N          -4.1001  -21.7230  -51.2405 N.am      18 UNK        -0.5000 
    100 CA        -5.0286  -21.1804  -50.2437 C.3       18 UNK         0.1400 
    101 CB        -4.7079  -21.7526  -48.8552 C.3       18 UNK        -0.1800 
    102 C         -6.4974  -21.4241  -50.6335 C.2       18 UNK         0.5000 
    103 O         -7.3491  -20.5919  -50.3209 O.2       18 UNK        -0.5000 
    104 N         -6.7665  -22.5388  -51.3292 N.am      19 UNK        -0.5000 
    105 CA        -8.0656  -22.8476  -51.9300 C.3       19 UNK         0.1400 
    106 CB        -8.0921  -24.3201  -52.3675 C.3       19 UNK        -0.1800 
    107 C         -8.4012  -21.9119  -53.1095 C.2       19 UNK         0.5000 
    108 O         -9.5547  -21.5024  -53.2481 O.2       19 UNK        -0.5000 
    109 N         -7.3852  -21.5816  -53.9186 N.am      20 UNK        -0.5000 
    110 CA        -7.4256  -20.5662  -54.9688 C.3       20 UNK         0.1400 
    111 CB        -6.4636  -20.9863  -56.0986 C.3       20 UNK        -0.1800 
    112 C         -7.1166  -19.1798  -54.3614 C.2       20 UNK         0.5000 
    113 O         -7.8862  -18.7008  -53.5264 O.2       20 UNK        -0.5000 
    114 N         -6.0081  -18.5554  -54.7744 N.am      21 UNK        -0.5000 
    115 CA        -5.4658  -17.3332  -54.1922 C.3       21 UNK         0.1400 
    116 CB        -6.1262  -16.1022  -54.8375 C.3       21 UNK        -0.1800 
    117 C         -3.9439  -17.3171  -54.3974 C.2       21 UNK         0.5000 
    118 O         -3.4574  -17.8504  -55.3987 O.2       21 UNK        -0.5000 
    119 N         -3.2307  -16.6840  -53.4587 N.am      22 UNK        -0.5000 
    120 CA        -1.7714  -16.4805  -53.5026 C.3       22 UNK         0.1400 
    121 C         -1.3384  -15.2551  -54.3640 C.2       22 UNK         0.5000 
    122 N         -2.2471  -14.4152  -54.8456 N.am      22 UNK        -0.7600 
    123 O         -0.1512  -15.0681  -54.6123 O.2       22 UNK        -0.5000 
    124 C124       -1.1652  -16.4034  -52.0728 C.3       23 UNK        -0.0398 
    125 S125       -0.9903  -18.0371  -51.2746 S.3       23 UNK        -0.2404 
    126 C126       -2.5844  -18.2880  -50.4327 C.3       23 UNK        -0.0205 
    127 H127        1.9604  -18.1024  -47.7873 H         1 UNK         0.0600 
    128 H128        0.3591  -17.9296  -48.4988 H         1 UNK         0.0600 
    129 H129        0.5772  -17.7621  -46.7483 H         1 UNK         0.0600 
    130 H130       -0.6744  -15.7242  -48.4018 H         1 UNK         0.3000 
    131 H131        0.6654  -13.4159  -47.5558 H         1 UNK         0.0600 
    132 H132       -0.9832  -12.1854  -49.1429 H         1 UNK         0.0800 
    133 H133       -1.6081  -13.7527  -49.5673 H         1 UNK         0.0800 
    134 H134       -4.3240  -14.0068  -46.9473 H         1 UNK         0.0800 
    135 H135       -3.9864  -13.7887  -48.6473 H         1 UNK         0.0800 
    136 H136       -3.3576  -15.7194  -49.9186 H         1 UNK         0.1150 
    137 H137       -2.0236  -19.2961  -47.9657 H         1 UNK         0.1150 
    138 H138       -2.9116  -15.7905  -45.6643 H         1 UNK         0.1150 
    139 H139       -1.2187  -19.0168  -45.5982 H         1 UNK         0.0800 
    140 H140       -1.6367  -17.6160  -44.6918 H         1 UNK         0.0800 
    141 H141       -4.2137  -21.0986  -45.7281 H         1 UNK         0.0800 
    142 H142       -3.7496  -21.4647  -44.0963 H         1 UNK         0.0800 
    143 H143       -1.8857  -21.0835  -46.4766 H         1 UNK         0.0600 
    144 H144       -1.1351  -20.8969  -43.7299 H         1 UNK         0.3000 
    145 H145        2.2529  -21.9709  -44.1927 H         1 UNK         0.0600 
    146 H146        2.2922  -19.6012  -44.9581 H         1 UNK         0.0600 
    147 H147        2.7446  -19.7315  -43.2638 H         1 UNK         0.0600 
    148 H148        1.1379  -19.1656  -43.7093 H         1 UNK         0.0600 
    149 H149        0.5578  -20.8912  -42.0593 H         1 UNK         0.3000 
    150 H150       -0.2966  -24.0753  -40.7347 H         1 UNK         0.0600 
    151 H151        1.6731  -22.0035  -39.6215 H         1 UNK         0.0600 
    152 H152        1.9988  -23.7227  -39.8086 H         1 UNK         0.0600 
    153 H153        0.7668  -23.1865  -38.6774 H         1 UNK         0.0600 
    154 H154       -0.7280  -21.4072  -39.7980 H         1 UNK         0.3000 
    155 H155       -3.5965  -20.6603  -41.7441 H         1 UNK         0.0600 
    156 H156       -3.4413  -21.4430  -38.7863 H         1 UNK         0.0600 
    157 H157       -4.5063  -22.1812  -39.9769 H         1 UNK         0.0600 
    158 H158       -4.7157  -20.4912  -39.5498 H         1 UNK         0.0600 
    159 H159       -2.6036  -19.2017  -39.6079 H         1 UNK         0.3000 
    160 H160       -1.6935  -17.2014  -40.0488 H         1 UNK         0.0600 
    161 H161        1.1555  -18.1919  -40.6624 H         1 UNK         0.0600 
    162 H162        0.2837  -18.4586  -39.1557 H         1 UNK         0.0600 
    163 H163        0.7513  -16.8296  -39.6196 H         1 UNK         0.0600 
    164 H164       -0.3536  -17.1250  -42.6991 H         1 UNK         0.3000 
    165 H165       -1.3059  -15.2202  -44.0370 H         1 UNK         0.0600 
    166 H166       -1.2197  -12.7568  -44.2146 H         1 UNK         0.0600 
    167 H167       -2.4740  -13.2449  -43.0877 H         1 UNK         0.0600 
    168 H168       -0.9482  -12.6103  -42.4788 H         1 UNK         0.0600 
    169 H169        1.0816  -13.7346  -43.2525 H         1 UNK         0.3000 
    170 H170        3.2346  -14.9592  -43.2076 H         1 UNK         0.0600 
    171 H171        4.7078  -16.3616  -44.6508 H         1 UNK         0.0600 
    172 H172        3.2983  -17.0234  -45.4745 H         1 UNK         0.0600 
    173 H173        3.5549  -17.3468  -43.7638 H         1 UNK         0.0600 
    174 H174        3.0695  -14.6739  -46.1518 H         1 UNK         0.3000 
    175 H175        2.4068  -11.8112  -46.6030 H         1 UNK         0.0600 
    176 H176        3.6398  -10.2115  -45.2113 H         1 UNK         0.0600 
    177 H177        5.1564  -11.0535  -45.4898 H         1 UNK         0.0600 
    178 H178        4.3418  -10.2302  -46.8197 H         1 UNK         0.0600 
    179 H179        3.4323  -12.9240  -48.1976 H         1 UNK         0.3000 
    180 H180        6.3440  -13.7932  -49.1808 H         1 UNK         0.0600 
    181 H181        5.2766  -16.2308  -47.6510 H         1 UNK         0.0600 
    182 H182        6.9350  -15.6404  -47.6347 H         1 UNK         0.0600 
    183 H183        6.2606  -16.3059  -49.1124 H         1 UNK         0.0600 
    184 H184        3.5969  -14.9800  -49.0930 H         1 UNK         0.3000 
    185 H185        2.6208  -13.2543  -52.0054 H         1 UNK         0.0600 
    186 H186        3.7313  -15.2685  -53.0409 H         1 UNK         0.0600 
    187 H187        3.0340  -16.2867  -51.7868 H         1 UNK         0.0600 
    188 H188        1.9918  -15.4469  -52.9364 H         1 UNK         0.0600 
    189 H189        1.3258  -15.2463  -50.4042 H         1 UNK         0.3000 
    190 H190       -1.8950  -23.4904  -43.8378 H         1 UNK         0.3000 
    191 H191       -2.9689  -25.6699  -45.2971 H         1 UNK         0.0600 
    192 H192       -2.7589  -25.6383  -42.8248 H         1 UNK         0.0600 
    193 H193       -1.9256  -27.0377  -43.4851 H         1 UNK         0.0600 
    194 H194       -1.0010  -25.6411  -42.9459 H         1 UNK         0.0600 
    195 H195        0.3467  -24.3804  -45.1446 H         1 UNK         0.3000 
    196 H196        1.5511  -26.5361  -46.6676 H         1 UNK         0.0600 
    197 H197        3.5322  -25.0652  -46.6901 H         1 UNK         0.0600 
    198 H198        2.8637  -25.1458  -45.0665 H         1 UNK         0.0600 
    199 H199        2.5934  -23.7190  -46.0641 H         1 UNK         0.0600 
    200 H200        0.2845  -23.2698  -47.4197 H         1 UNK         0.3000 
    201 H201        0.8954  -23.2125  -50.1813 H         1 UNK         0.0600 
    202 H202       -0.7794  -21.3651  -50.2403 H         1 UNK         0.0600 
    203 H203        0.2562  -21.2101  -48.8351 H         1 UNK         0.0600 
    204 H204       -1.3804  -21.8330  -48.6632 H         1 UNK         0.0600 
    205 H205       -1.9526  -24.4579  -48.4547 H         1 UNK         0.3000 
    206 H206       -3.5375  -25.9291  -48.9119 H         1 UNK         0.0600 
    207 H207       -1.6247  -27.4475  -49.1168 H         1 UNK         0.0600 
    208 H208       -2.8468  -27.9300  -50.2788 H         1 UNK         0.0600 
    209 H209       -1.4092  -27.0605  -50.8156 H         1 UNK         0.0600 
    210 H210       -2.6781  -26.4407  -52.2559 H         1 UNK         0.3000 
    211 H211       -5.2348  -25.8004  -53.2965 H         1 UNK         0.0600 
    212 H212       -2.5258  -26.0701  -54.7073 H         1 UNK         0.0600 
    213 H213       -4.0938  -26.0748  -55.5062 H         1 UNK         0.0600 
    214 H214       -3.6735  -27.3750  -54.4027 H         1 UNK         0.0600 
    215 H215       -2.3243  -23.7931  -52.8488 H         1 UNK         0.3000 
    216 H216       -3.3330  -21.5571  -54.4232 H         1 UNK         0.0600 
    217 H217       -1.3898  -20.3501  -53.4171 H         1 UNK         0.0600 
    218 H218       -0.9194  -21.8604  -54.1815 H         1 UNK         0.0600 
    219 H219       -1.0276  -21.7598  -52.4295 H         1 UNK         0.0600 
    220 H220       -3.7864  -22.6732  -51.0971 H         1 UNK         0.3000 
    221 H221       -4.8981  -20.0985  -50.1844 H         1 UNK         0.0600 
    222 H222       -4.7686  -22.8403  -48.8328 H         1 UNK         0.0600 
    223 H223       -3.7067  -21.4654  -48.5380 H         1 UNK         0.0600 
    224 H224       -5.4033  -21.3709  -48.1069 H         1 UNK         0.0600 
    225 H225       -6.0236  -23.2162  -51.4593 H         1 UNK         0.3000 
    226 H226       -8.8322  -22.7094  -51.1647 H         1 UNK         0.0600 
    227 H227       -9.0771  -24.5938  -52.7473 H         1 UNK         0.0600 
    228 H228       -7.3707  -24.5205  -53.1591 H         1 UNK         0.0600 
    229 H229       -7.8676  -24.9848  -51.5330 H         1 UNK         0.0600 
    230 H230       -6.4874  -22.0268  -53.7651 H         1 UNK         0.3000 
    231 H231       -8.4318  -20.5171  -55.3898 H         1 UNK         0.0600 
    232 H232       -5.4340  -21.0720  -55.7494 H         1 UNK         0.0600 
    233 H233       -6.4832  -20.2713  -56.9221 H         1 UNK         0.0600 
    234 H234       -6.7491  -21.9549  -56.5098 H         1 UNK         0.0600 
    235 H235       -5.3873  -19.0106  -55.4310 H         1 UNK         0.3000 
    236 H236       -5.6639  -17.3320  -53.1178 H         1 UNK         0.0600 
    237 H237       -7.2042  -16.1006  -54.6753 H         1 UNK         0.0600 
    238 H238       -5.7344  -15.1781  -54.4116 H         1 UNK         0.0600 
    239 H239       -5.9500  -16.0714  -55.9135 H         1 UNK         0.0600 
    240 H240       -3.7144  -16.2602  -52.6818 H         1 UNK         0.3000 
    241 H241       -1.3248  -17.3438  -54.0002 H         1 UNK         0.0600 
    242 H242       -1.9475  -13.6331  -55.4067 H         1 UNK         0.3800 
    243 H243       -3.2274  -14.5543  -54.6649 H         1 UNK         0.3800 
    244 H244       -1.7301  -15.7197  -51.4426 H         1 UNK         0.0800 
    245 H245       -0.1564  -15.9923  -52.1073 H         1 UNK         0.0800 
    246 H246       -2.6969  -19.3599  -50.2764 H         1 UNK         0.0800 
    247 H247       -3.4108  -17.9864  -51.0752 H         1 UNK         0.0800 
@<TRIPOS>BOND
     1    1    2 1    
     2    1  127 1    
     3    1  128 1    
     4    1  129 1    
     5    2    3 2    
     6    2    4 am   BACKBONE|DICT|INTERRES
     7    4    5 1    
     8    4  130 1    
     9    5    6 1    
    10    5   65 1    
    11    5  131 1    
    12    6    7 1    
    13    6  132 1    
    14    6  133 1    
    15    7    8 1    
    16    8    9 1    
    17    8  134 1    
    18    8  135 1    
    19    9   10 ar   
    20    9   14 ar   
    21   10   11 ar   
    22   10  136 1    
    23   11   12 ar   
    24   11  126 1    
    25   12   13 ar   
    26   12  137 1    
    27   13   14 ar   
    28   13   15 1    
    29   14  138 1    
    30   15   16 1    
    31   15  139 1    
    32   15  140 1    
    33   16   17 1    
    34   17   18 1    
    35   17  141 1    
    36   17  142 1    
    37   18   19 1    
    38   18   67 1    
    39   18  143 1    
    40   19   20 am   BACKBONE|DICT|INTERRES
    41   19  144 1    
    42   20   21 2    
    43   20   22 1    
    44   22   23 1    
    45   22   24 1    
    46   22  145 1    
    47   23  146 1    
    48   23  147 1    
    49   23  148 1    
    50   24   25 am   BACKBONE|DICT|INTERRES
    51   24  149 1    
    52   25   26 2    
    53   25   27 1    
    54   27   28 1    
    55   27   29 1    
    56   27  150 1    
    57   28  151 1    
    58   28  152 1    
    59   28  153 1    
    60   29   30 am   BACKBONE|DICT|INTERRES
    61   29  154 1    
    62   30   31 2    
    63   30   32 1    
    64   32   33 1    
    65   32   34 1    
    66   32  155 1    
    67   33  156 1    
    68   33  157 1    
    69   33  158 1    
    70   34   35 am   BACKBONE|DICT|INTERRES
    71   34  159 1    
    72   35   36 2    
    73   35   37 1    
    74   37   38 1    
    75   37   39 1    
    76   37  160 1    
    77   38  161 1    
    78   38  162 1    
    79   38  163 1    
    80   39   40 am   BACKBONE|DICT|INTERRES
    81   39  164 1    
    82   40   41 2    
    83   40   42 1    
    84   42   43 1    
    85   42   44 1    
    86   42  165 1    
    87   43  166 1    
    88   43  167 1    
    89   43  168 1    
    90   44   45 am   BACKBONE|DICT|INTERRES
    91   44  169 1    
    92   45   46 2    
    93   45   47 1    
    94   47   48 1    
    95   47   49 1    
    96   47  170 1    
    97   48  171 1    
    98   48  172 1    
    99   48  173 1    
   100   49   50 am   BACKBONE|DICT|INTERRES
   101   49  174 1    
   102   50   51 2    
   103   50   52 1    
   104   52   53 1    
   105   52   54 1    
   106   52  175 1    
   107   53  176 1    
   108   53  177 1    
   109   53  178 1    
   110   54   55 am   BACKBONE|DICT|INTERRES
   111   54  179 1    
   112   55   56 2    
   113   55   57 1    
   114   57   58 1    
   115   57   59 1    
   116   57  180 1    
   117   58  181 1    
   118   58  182 1    
   119   58  183 1    
   120   59   60 am   BACKBONE|DICT|INTERRES
   121   59  184 1    
   122   60   61 2    
   123   60   62 1    
   124   62   63 1    
   125   62   64 1    
   126   62  185 1    
   127   63  186 1    
   128   63  187 1    
   129   63  188 1    
   130   64   65 am   BACKBONE|DICT|INTERRES
   131   64  189 1    
   132   65   66 2    
   133   67   68 2    
   134   67   69 am   BACKBONE|DICT|INTERRES
   135   69   70 1    
   136   69  190 1    
   137   70   71 1    
   138   70   72 1    
   139   70  191 1    
   140   71  192 1    
   141   71  193 1    
   142   71  194 1    
   143   72   73 2    
   144   72   74 am   BACKBONE|DICT|INTERRES
   145   74   75 1    
   146   74  195 1    
   147   75   76 1    
   148   75   77 1    
   149   75  196 1    
   150   76  197 1    
   151   76  198 1    
   152   76  199 1    
   153   77   78 2    
   154   77   79 am   BACKBONE|DICT|INTERRES
   155   79   80 1    
   156   79  200 1    
   157   80   81 1    
   158   80   82 1    
   159   80  201 1    
   160   81  202 1    
   161   81  203 1    
   162   81  204 1    
   163   82   83 2    
   164   82   84 am   BACKBONE|DICT|INTERRES
   165   84   85 1    
   166   84  205 1    
   167   85   86 1    
   168   85   87 1    
   169   85  206 1    
   170   86  207 1    
   171   86  208 1    
   172   86  209 1    
   173   87   88 2    
   174   87   89 am   BACKBONE|DICT|INTERRES
   175   89   90 1    
   176   89  210 1    
   177   90   91 1    
   178   90   92 1    
   179   90  211 1    
   180   91  212 1    
   181   91  213 1    
   182   91  214 1    
   183   92   93 2    
   184   92   94 am   BACKBONE|DICT|INTERRES
   185   94   95 1    
   186   94  215 1    
   187   95   96 1    
   188   95   97 1    
   189   95  216 1    
   190   96  217 1    
   191   96  218 1    
   192   96  219 1    
   193   97   98 2    
   194   97   99 am   BACKBONE|DICT|INTERRES
   195   99  100 1    
   196   99  220 1    
   197  100  101 1    
   198  100  102 1    
   199  100  221 1    
   200  101  222 1    
   201  101  223 1    
   202  101  224 1    
   203  102  103 2    
   204  102  104 am   BACKBONE|DICT|INTERRES
   205  104  105 1    
   206  104  225 1    
   207  105  106 1    
   208  105  107 1    
   209  105  226 1    
   210  106  227 1    
   211  106  228 1    
   212  106  229 1    
   213  107  108 2    
   214  107  109 am   BACKBONE|DICT|INTERRES
   215  109  110 1    
   216  109  230 1    
   217  110  111 1    
   218  110  112 1    
   219  110  231 1    
   220  111  232 1    
   221  111  233 1    
   222  111  234 1    
   223  112  113 2    
   224  112  114 am   BACKBONE|DICT|INTERRES
   225  114  115 1    
   226  114  235 1    
   227  115  116 1    
   228  115  117 1    
   229  115  236 1    
   230  116  237 1    
   231  116  238 1    
   232  116  239 1    
   233  117  118 2    
   234  117  119 am   BACKBONE|DICT|INTERRES
   235  119  120 1    
   236  119  240 1    
   237  120  121 1    
   238  120  124 1    
   239  120  241 1    
   240  121  122 am   BACKBONE|DICT|INTERRES
   241  121  123 2    
   242  122  242 1    
   243  122  243 1    
   244  124  125 1    
   245  124  244 1    
   246  124  245 1    
   247  125  126 1    
   248  126  246 1    
   249  126  247 1    
@<TRIPOS>SUBSTRUCTURE
     1 UNK         1 GROUP             0       ****    0 ROOT    
