@<TRIPOS>MOLECULE
3R540
247   249    1
SMALL
USER_CHARGES


@<TRIPOS>ATOM
      1 CA         -8.0928  -21.9813  -44.9726 C.3       0 UNK        -0.1800 
      2 C          -7.6057  -20.6658  -45.5625 C.2       0 UNK         0.5000 
      3 O          -8.4004  -19.9272  -46.1442 O.2       0 UNK        -0.5000 
      4 N          -6.3041  -20.3817  -45.4304 N.am      1 UNK        -0.5000 
      5 CA         -5.6453  -19.1610  -45.9079 C.3       1 UNK         0.1400 
      6 C6         -4.1038  -19.2635  -45.8268 C.3       23 UNK        -0.0398 
      7 S7         -3.4163  -20.5235  -46.9470 S.3       23 UNK        -0.2404 
      8 C8         -2.5413  -19.4960  -48.1803 C.3       23 UNK        -0.0205 
      9 C9         -1.7864  -20.2789  -49.2560 C.ar      23 UNK        -0.0193 
     10 C10        -1.4205  -19.6208  -50.4361 C.ar      23 UNK        -0.1150 
     11 C11        -0.6884  -20.2781  -51.4308 C.ar      23 UNK        -0.0193 
     12 C12        -0.3418  -21.6199  -51.2458 C.ar      23 UNK        -0.1150 
     13 C13        -0.6817  -22.2889  -50.0686 C.ar      23 UNK        -0.0193 
     14 C14        -1.4066  -21.6170  -49.0831 C.ar      23 UNK        -0.1150 
     15 C15        -0.2495  -23.7319  -49.8582 C.3       23 UNK        -0.0205 
     16 S16         1.2672  -23.8385  -48.8503 S.3       23 UNK        -0.2404 
     17 C17         0.5638  -23.9229  -47.1694 C.3       23 UNK        -0.0398 
     18 CA          1.5867  -24.4027  -46.1128 C.3       11 UNK         0.1400 
     19 N           2.6365  -23.3997  -45.8980 N.am      11 UNK        -0.5000 
     20 C           3.8696  -23.6622  -45.4475 C.2       10 UNK         0.5000 
     21 O           4.2542  -24.7848  -45.1188 O.2       10 UNK        -0.5000 
     22 CA          4.8283  -22.4645  -45.3316 C.3       10 UNK         0.1400 
     23 CB          5.4106  -22.0911  -46.7041 C.3       10 UNK        -0.1800 
     24 N           4.1677  -21.2974  -44.7477 N.am      10 UNK        -0.5000 
     25 C           3.9755  -21.1188  -43.4336 C.2       9 UNK         0.5000 
     26 O           4.3663  -21.9086  -42.5736 O.2       9 UNK        -0.5000 
     27 CA          3.2073  -19.8539  -43.0002 C.3       9 UNK         0.1400 
     28 CB          4.1803  -18.6868  -42.7744 C.3       9 UNK        -0.1800 
     29 N           2.1757  -19.4377  -43.9504 N.am      9 UNK        -0.5000 
     30 C           1.1000  -20.1657  -44.2789 C.2       8 UNK         0.5000 
     31 O           0.8397  -21.2612  -43.7893 O.2       8 UNK        -0.5000 
     32 CA          0.1838  -19.6008  -45.3755 C.3       8 UNK         0.1400 
     33 CB         -0.7923  -18.5878  -44.7613 C.3       8 UNK        -0.1800 
     34 N           0.9307  -18.9790  -46.4694 N.am      8 UNK        -0.5000 
     35 C           1.8621  -19.5916  -47.2163 C.2       7 UNK         0.5000 
     36 O           2.1862  -20.7707  -47.0724 O.2       7 UNK        -0.5000 
     37 CA          2.6028  -18.7233  -48.2450 C.3       7 UNK         0.1400 
     38 CB          1.7997  -18.6031  -49.5439 C.3       7 UNK        -0.1800 
     39 N           2.8658  -17.3883  -47.7134 N.am      7 UNK        -0.5000 
     40 C           3.9120  -17.0795  -46.9364 C.2       6 UNK         0.5000 
     41 O           4.8046  -17.8745  -46.6410 O.2       6 UNK        -0.5000 
     42 CA          3.9596  -15.6431  -46.3795 C.3       6 UNK         0.1400 
     43 CB          4.6745  -14.7078  -47.3663 C.3       6 UNK        -0.1800 
     44 N           2.6353  -15.0965  -46.0740 N.am      6 UNK        -0.5000 
     45 C           1.8267  -15.5640  -45.1132 C.2       5 UNK         0.5000 
     46 O           2.1197  -16.5015  -44.3713 O.2       5 UNK        -0.5000 
     47 CA          0.4419  -14.8987  -44.9834 C.3       5 UNK         0.1400 
     48 CB          0.5255  -13.6680  -44.0684 C.3       5 UNK        -0.1800 
     49 N          -0.1925  -14.5137  -46.2498 N.am      5 UNK        -0.5000 
     50 C          -0.3882  -15.3059  -47.3144 C.2       4 UNK         0.5000 
     51 O           0.0600  -16.4488  -47.4094 O.2       4 UNK        -0.5000 
     52 CA         -1.2415  -14.7071  -48.4497 C.3       4 UNK         0.1400 
     53 CB         -1.5128  -15.7146  -49.5868 C.3       4 UNK        -0.1800 
     54 N          -2.4966  -14.1321  -47.9458 N.am      4 UNK        -0.5000 
     55 C          -3.5042  -14.8079  -47.3729 C.2       3 UNK         0.5000 
     56 O          -3.5064  -16.0315  -47.2101 O.2       3 UNK        -0.5000 
     57 CA         -4.7243  -13.9868  -46.9187 C.3       3 UNK         0.1400 
     58 CB         -5.2950  -13.1048  -48.0462 C.3       3 UNK        -0.1800 
     59 N          -5.7444  -14.9249  -46.4692 N.am      3 UNK        -0.5000 
     60 C          -6.7008  -14.7157  -45.5606 C.2       2 UNK         0.5000 
     61 O          -6.8800  -13.6376  -44.9928 O.2       2 UNK        -0.5000 
     62 CA         -7.6190  -15.9138  -45.2357 C.3       2 UNK         0.1400 
     63 CB         -9.0191  -15.6923  -45.8294 C.3       2 UNK        -0.1800 
     64 N          -7.0948  -17.1875  -45.7407 N.am      2 UNK        -0.5000 
     65 C          -6.1456  -17.9174  -45.1409 C.2       1 UNK         0.5000 
     66 O          -5.6646  -17.6405  -44.0406 O.2       1 UNK        -0.5000 
     67 C           0.8649  -24.8252  -44.8099 C.2       11 UNK         0.5000 
     68 O           0.0657  -25.7615  -44.8486 O.2       11 UNK        -0.5000 
     69 N           1.1263  -24.1279  -43.6935 N.am      12 UNK        -0.5000 
     70 CA          0.4712  -24.2592  -42.3840 C.3       12 UNK         0.1400 
     71 CB          0.7731  -25.6307  -41.7450 C.3       12 UNK        -0.1800 
     72 C          -1.0382  -23.9328  -42.4482 C.2       12 UNK         0.5000 
     73 O          -1.8502  -24.5900  -41.7960 O.2       12 UNK        -0.5000 
     74 N          -1.3710  -22.9280  -43.2712 N.am      13 UNK        -0.5000 
     75 CA         -2.6934  -22.3785  -43.5963 C.3       13 UNK         0.1400 
     76 CB         -3.3386  -21.7410  -42.3507 C.3       13 UNK        -0.1800 
     77 C          -3.6678  -23.3388  -44.3161 C.2       13 UNK         0.5000 
     78 O          -4.7829  -22.9218  -44.6345 O.2       13 UNK        -0.5000 
     79 N          -3.2458  -24.5818  -44.5742 N.am      14 UNK        -0.5000 
     80 CA         -3.9929  -25.6013  -45.3059 C.3       14 UNK         0.1400 
     81 CB         -3.5866  -26.9781  -44.7554 C.3       14 UNK        -0.1800 
     82 C          -3.6985  -25.5164  -46.8134 C.2       14 UNK         0.5000 
     83 O          -2.7259  -24.8737  -47.2107 O.2       14 UNK        -0.5000 
     84 N          -4.5348  -26.1872  -47.6232 N.am      15 UNK        -0.5000 
     85 CA         -4.4325  -26.3038  -49.0888 C.3       15 UNK         0.1400 
     86 CB         -3.2487  -27.2187  -49.4676 C.3       15 UNK        -0.1800 
     87 C          -4.3773  -24.9308  -49.7955 C.2       15 UNK         0.5000 
     88 O          -3.5655  -24.7229  -50.6990 O.2       15 UNK        -0.5000 
     89 N          -5.2134  -24.0076  -49.3046 N.am      16 UNK        -0.5000 
     90 CA         -5.1644  -22.5786  -49.5882 C.3       16 UNK         0.1400 
     91 CB         -6.2186  -21.8728  -48.7246 C.3       16 UNK        -0.1800 
     92 C          -5.3559  -22.2154  -51.0692 C.2       16 UNK         0.5000 
     93 O          -6.2474  -22.7501  -51.7326 O.2       16 UNK        -0.5000 
     94 N          -4.5477  -21.2557  -51.5221 N.am      17 UNK        -0.5000 
     95 CA         -4.6302  -20.6022  -52.8228 C.3       17 UNK         0.1400 
     96 CB         -3.6886  -21.3014  -53.8193 C.3       17 UNK        -0.1800 
     97 C          -4.3174  -19.1133  -52.6065 C.2       17 UNK         0.5000 
     98 O          -3.4288  -18.5540  -53.2490 O.2       17 UNK        -0.5000 
     99 N          -5.0394  -18.5091  -51.6520 N.am      18 UNK        -0.5000 
    100 CA        -4.8408  -17.1700  -51.0867 C.3       18 UNK         0.1400 
    101 CB        -5.6335  -17.0897  -49.7681 C.3       18 UNK        -0.1800 
    102 C         -5.1654  -15.9875  -52.0313 C.2       18 UNK         0.5000 
    103 O         -5.6105  -14.9372  -51.5661 O.2       18 UNK        -0.5000 
    104 N         -4.9378  -16.1617  -53.3375 N.am      19 UNK        -0.5000 
    105 CA        -5.0952  -15.1293  -54.3622 C.3       19 UNK         0.1400 
    106 CB        -5.1678  -15.8025  -55.7412 C.3       19 UNK        -0.1800 
    107 C         -3.9572  -14.0915  -54.3255 C.2       19 UNK         0.5000 
    108 O         -4.1851  -12.9266  -54.6540 O.2       19 UNK        -0.5000 
    109 N         -2.7618  -14.5320  -53.9185 N.am      20 UNK        -0.5000 
    110 CA        -1.5450  -13.7438  -53.7712 C.3       20 UNK         0.1400 
    111 CB        -0.9572  -13.4057  -55.1553 C.3       20 UNK        -0.1800 
    112 C         -0.5448  -14.5624  -52.9438 C.2       20 UNK         0.5000 
    113 O         -0.7211  -15.7751  -52.7948 O.2       20 UNK        -0.5000 
    114 N          0.5002  -13.8950  -52.4390 N.am      21 UNK        -0.5000 
    115 CA         1.6470  -14.5155  -51.7753 C.3       21 UNK         0.1400 
    116 CB         2.4319  -13.4364  -51.0102 C.3       21 UNK        -0.1800 
    117 C          2.5184  -15.2562  -52.8075 C.2       21 UNK         0.5000 
    118 O          3.4347  -14.6665  -53.3824 O.2       21 UNK        -0.5000 
    119 N          2.1637  -16.5192  -53.0621 N.am      22 UNK        -0.5000 
    120 CA         2.7538  -17.3901  -54.0899 C.3       22 UNK         0.1400 
    121 C          4.2242  -17.8474  -53.8414 C.2       22 UNK         0.5000 
    122 N          4.8041  -17.6298  -52.6672 N.am      22 UNK        -0.7600 
    123 O          4.8550  -18.3981  -54.7399 O.2       22 UNK        -0.5000 
    124 C124        1.8146  -18.5831  -54.4106 C.3       23 UNK        -0.0398 
    125 S125        1.5421  -19.6944  -52.9859 S.3       23 UNK        -0.2404 
    126 C126       -0.2508  -19.5330  -52.6891 C.3       23 UNK        -0.0205 
    127 H127       -7.3815  -22.3890  -44.2545 H         1 UNK         0.0600 
    128 H128       -8.2402  -22.7150  -45.7649 H         1 UNK         0.0600 
    129 H129       -9.0426  -21.8359  -44.4580 H         1 UNK         0.0600 
    130 H130       -5.6991  -21.0719  -44.9980 H         1 UNK         0.3000 
    131 H131       -5.9100  -19.0335  -46.9593 H         1 UNK         0.0600 
    132 H132       -3.6432  -18.3039  -46.0592 H         1 UNK         0.0800 
    133 H133       -3.7951  -19.5049  -44.8090 H         1 UNK         0.0800 
    134 H134       -3.2666  -18.8357  -48.6548 H         1 UNK         0.0800 
    135 H135       -1.8258  -18.8507  -47.6707 H         1 UNK         0.0800 
    136 H136       -1.6870  -18.5828  -50.5747 H         1 UNK         0.1150 
    137 H137        0.2253  -22.1349  -52.0081 H         1 UNK         0.1150 
    138 H138       -1.6579  -22.1492  -48.1779 H         1 UNK         0.1150 
    139 H139       -1.0586  -24.3015  -49.3985 H         1 UNK         0.0800 
    140 H140       -0.0617  -24.2069  -50.8221 H         1 UNK         0.0800 
    141 H141        0.1516  -22.9502  -46.8970 H         1 UNK         0.0800 
    142 H142       -0.2720  -24.6183  -47.2154 H         1 UNK         0.0800 
    143 H143        2.0578  -25.3097  -46.4979 H         1 UNK         0.0600 
    144 H144        2.4221  -22.4537  -46.2052 H         1 UNK         0.3000 
    145 H145        5.6595  -22.7600  -44.6875 H         1 UNK         0.0600 
    146 H146        6.1152  -21.2635  -46.6209 H         1 UNK         0.0600 
    147 H147        4.6340  -21.7983  -47.4112 H         1 UNK         0.0600 
    148 H148        5.9479  -22.9341  -47.1403 H         1 UNK         0.0600 
    149 H149        3.7717  -20.6284  -45.3942 H         1 UNK         0.3000 
    150 H150        2.7144  -20.0773  -42.0519 H         1 UNK         0.0600 
    151 H151        4.9630  -18.9592  -42.0653 H         1 UNK         0.0600 
    152 H152        3.6637  -17.8165  -42.3693 H         1 UNK         0.0600 
    153 H153        4.6661  -18.3845  -43.7032 H         1 UNK         0.0600 
    154 H154        2.2760  -18.5115  -44.3540 H         1 UNK         0.3000 
    155 H155       -0.3909  -20.4248  -45.8035 H         1 UNK         0.0600 
    156 H156       -1.5080  -19.0901  -44.1103 H         1 UNK         0.0600 
    157 H157       -1.3548  -18.0493  -45.5224 H         1 UNK         0.0600 
    158 H158       -0.2717  -17.8513  -44.1513 H         1 UNK         0.0600 
    159 H159        0.6948  -18.0151  -46.6924 H         1 UNK         0.3000 
    160 H160        3.5495  -19.2143  -48.4808 H         1 UNK         0.0600 
    161 H161        0.8330  -18.1257  -49.3841 H         1 UNK         0.0600 
    162 H162        1.6141  -19.5923  -49.9618 H         1 UNK         0.0600 
    163 H163        2.3407  -18.0280  -50.2948 H         1 UNK         0.0600 
    164 H164        2.1271  -16.7066  -47.8304 H         1 UNK         0.3000 
    165 H165        4.5361  -15.6679  -45.4522 H         1 UNK         0.0600 
    166 H166        4.7850  -13.7058  -46.9514 H         1 UNK         0.0600 
    167 H167        5.6754  -15.0751  -47.5970 H         1 UNK         0.0600 
    168 H168        4.1305  -14.6245  -48.3075 H         1 UNK         0.0600 
    169 H169        2.3144  -14.3253  -46.6403 H         1 UNK         0.3000 
    170 H170       -0.2230  -15.6189  -44.5066 H         1 UNK         0.0600 
    171 H171        1.1323  -12.8774  -44.5116 H         1 UNK         0.0600 
    172 H172       -0.4641  -13.2586  -43.8649 H         1 UNK         0.0600 
    173 H173        0.9721  -13.9248  -43.1067 H         1 UNK         0.0600 
    174 H174       -0.6004  -13.5908  -46.2718 H         1 UNK         0.3000 
    175 H175       -0.6630  -13.8842  -48.8720 H         1 UNK         0.0600 
    176 H176       -0.5834  -16.0643  -50.0332 H         1 UNK         0.0600 
    177 H177       -2.0390  -16.5992  -49.2312 H         1 UNK         0.0600 
    178 H178       -2.1098  -15.2633  -50.3787 H         1 UNK         0.0600 
    179 H179       -2.5850  -13.1301  -48.0395 H         1 UNK         0.3000 
    180 H180       -4.4128  -13.3602  -46.0808 H         1 UNK         0.0600 
    181 H181       -4.5806  -12.3430  -48.3587 H         1 UNK         0.0600 
    182 H182       -6.1945  -12.5820  -47.7208 H         1 UNK         0.0600 
    183 H183       -5.5543  -13.6945  -48.9263 H         1 UNK         0.0600 
    184 H184       -5.6062  -15.8641  -46.8173 H         1 UNK         0.3000 
    185 H185       -7.7137  -15.9727  -44.1494 H         1 UNK         0.0600 
    186 H186       -9.4649  -14.7723  -45.4490 H         1 UNK         0.0600 
    187 H187       -8.9878  -15.6168  -46.9171 H         1 UNK         0.0600 
    188 H188       -9.6916  -16.5099  -45.5684 H         1 UNK         0.0600 
    189 H189       -7.4975  -17.5281  -46.6028 H         1 UNK         0.3000 
    190 H190        1.7411  -23.3295  -43.7857 H         1 UNK         0.3000 
    191 H191        0.9177  -23.4949  -41.7462 H         1 UNK         0.0600 
    192 H192        0.4118  -25.6688  -40.7167 H         1 UNK         0.0600 
    193 H193        1.8452  -25.8254  -41.7192 H         1 UNK         0.0600 
    194 H194        0.2962  -26.4475  -42.2873 H         1 UNK         0.0600 
    195 H195       -0.5883  -22.4325  -43.6922 H         1 UNK         0.3000 
    196 H196       -2.4969  -21.5757  -44.3063 H         1 UNK         0.0600 
    197 H197       -3.5963  -22.4899  -41.6015 H         1 UNK         0.0600 
    198 H198       -2.6680  -21.0174  -41.8871 H         1 UNK         0.0600 
    199 H199       -4.2554  -21.2103  -42.6105 H         1 UNK         0.0600 
    200 H200       -2.2971  -24.8241  -44.3256 H         1 UNK         0.3000 
    201 H201       -5.0638  -25.4578  -45.1482 H         1 UNK         0.0600 
    202 H202       -4.1448  -27.7796  -45.2404 H         1 UNK         0.0600 
    203 H203       -3.7839  -27.0475  -43.6854 H         1 UNK         0.0600 
    204 H204       -2.5249  -27.1750  -44.9122 H         1 UNK         0.0600 
    205 H205       -5.3099  -26.6821  -47.2044 H         1 UNK         0.3000 
    206 H206       -5.3484  -26.7882  -49.4304 H         1 UNK         0.0600 
    207 H207       -3.3251  -28.1871  -48.9735 H         1 UNK         0.0600 
    208 H208       -3.2251  -27.4041  -50.5420 H         1 UNK         0.0600 
    209 H209       -2.2913  -26.7758  -49.1905 H         1 UNK         0.0600 
    210 H210       -5.8474  -24.2911  -48.5733 H         1 UNK         0.3000 
    211 H211       -4.1788  -22.2352  -49.2718 H         1 UNK         0.0600 
    212 H212       -7.2309  -22.1846  -48.9846 H         1 UNK         0.0600 
    213 H213       -6.1644  -20.7901  -48.8437 H         1 UNK         0.0600 
    214 H214       -6.0604  -22.0917  -47.6692 H         1 UNK         0.0600 
    215 H215       -3.8376  -20.8852  -50.9045 H         1 UNK         0.3000 
    216 H216       -5.6499  -20.6581  -53.2095 H         1 UNK         0.0600 
    217 H217       -4.0042  -22.3294  -53.9975 H         1 UNK         0.0600 
    218 H218       -2.6645  -21.3312  -53.4494 H         1 UNK         0.0600 
    219 H219       -3.6821  -20.7907  -54.7828 H         1 UNK         0.0600 
    220 H220       -5.7740  -19.0505  -51.2208 H         1 UNK         0.3000 
    221 H221       -3.7818  -17.0787  -50.8432 H         1 UNK         0.0600 
    222 H222       -5.3526  -17.8881  -49.0830 H         1 UNK         0.0600 
    223 H223       -5.4482  -16.1480  -49.2531 H         1 UNK         0.0600 
    224 H224       -6.7076  -17.1606  -49.9428 H         1 UNK         0.0600 
    225 H225       -4.5073  -17.0370  -53.6208 H         1 UNK         0.3000 
    226 H226       -6.0359  -14.6027  -54.1878 H         1 UNK         0.0600 
    227 H227       -6.0089  -16.4936  -55.7985 H         1 UNK         0.0600 
    228 H228       -5.3012  -15.0619  -56.5309 H         1 UNK         0.0600 
    229 H229       -4.2581  -16.3616  -55.9644 H         1 UNK         0.0600 
    230 H230       -2.6530  -15.4992  -53.6359 H         1 UNK         0.3000 
    231 H231       -1.7777  -12.8256  -53.2284 H         1 UNK         0.0600 
    232 H232       -0.0315  -12.8365  -55.0635 H         1 UNK         0.0600 
    233 H233       -1.6455  -12.8018  -55.7464 H         1 UNK         0.0600 
    234 H234       -0.7321  -14.3086  -55.7246 H         1 UNK         0.0600 
    235 H235        0.5827  -12.9069  -52.6296 H         1 UNK         0.3000 
    236 H236        1.2921  -15.2437  -51.0447 H         1 UNK         0.0600 
    237 H237        3.3149  -13.8625  -50.5329 H         1 UNK         0.0600 
    238 H238        2.7702  -12.6361  -51.6694 H         1 UNK         0.0600 
    239 H239        1.8219  -12.9887  -50.2254 H         1 UNK         0.0600 
    240 H240        1.3528  -16.8942  -52.5890 H         1 UNK         0.3000 
    241 H241        2.8038  -16.7874  -54.9987 H         1 UNK         0.0600 
    242 H242        4.2992  -17.1738  -51.9261 H         1 UNK         0.3800 
    243 H243        5.7566  -17.9246  -52.5221 H         1 UNK         0.3800 
    244 H244        0.8534  -18.2064  -54.7637 H         1 UNK         0.0800 
    245 H245        2.2159  -19.1742  -55.2354 H         1 UNK         0.0800 
    246 H246       -0.5070  -18.4754  -52.6123 H         1 UNK         0.0800 
    247 H247       -0.7948  -19.9224  -53.5495 H         1 UNK         0.0800 
@<TRIPOS>BOND
     1    1    2 1    
     2    1  127 1    
     3    1  128 1    
     4    1  129 1    
     5    2    3 2    
     6    2    4 am   BACKBONE|DICT|INTERRES
     7    4    5 1    
     8    4  130 1    
     9    5    6 1    
    10    5   65 1    
    11    5  131 1    
    12    6    7 1    
    13    6  132 1    
    14    6  133 1    
    15    7    8 1    
    16    8    9 1    
    17    8  134 1    
    18    8  135 1    
    19    9   10 ar   
    20    9   14 ar   
    21   10   11 ar   
    22   10  136 1    
    23   11   12 ar   
    24   11  126 1    
    25   12   13 ar   
    26   12  137 1    
    27   13   14 ar   
    28   13   15 1    
    29   14  138 1    
    30   15   16 1    
    31   15  139 1    
    32   15  140 1    
    33   16   17 1    
    34   17   18 1    
    35   17  141 1    
    36   17  142 1    
    37   18   19 1    
    38   18   67 1    
    39   18  143 1    
    40   19   20 am   BACKBONE|DICT|INTERRES
    41   19  144 1    
    42   20   21 2    
    43   20   22 1    
    44   22   23 1    
    45   22   24 1    
    46   22  145 1    
    47   23  146 1    
    48   23  147 1    
    49   23  148 1    
    50   24   25 am   BACKBONE|DICT|INTERRES
    51   24  149 1    
    52   25   26 2    
    53   25   27 1    
    54   27   28 1    
    55   27   29 1    
    56   27  150 1    
    57   28  151 1    
    58   28  152 1    
    59   28  153 1    
    60   29   30 am   BACKBONE|DICT|INTERRES
    61   29  154 1    
    62   30   31 2    
    63   30   32 1    
    64   32   33 1    
    65   32   34 1    
    66   32  155 1    
    67   33  156 1    
    68   33  157 1    
    69   33  158 1    
    70   34   35 am   BACKBONE|DICT|INTERRES
    71   34  159 1    
    72   35   36 2    
    73   35   37 1    
    74   37   38 1    
    75   37   39 1    
    76   37  160 1    
    77   38  161 1    
    78   38  162 1    
    79   38  163 1    
    80   39   40 am   BACKBONE|DICT|INTERRES
    81   39  164 1    
    82   40   41 2    
    83   40   42 1    
    84   42   43 1    
    85   42   44 1    
    86   42  165 1    
    87   43  166 1    
    88   43  167 1    
    89   43  168 1    
    90   44   45 am   BACKBONE|DICT|INTERRES
    91   44  169 1    
    92   45   46 2    
    93   45   47 1    
    94   47   48 1    
    95   47   49 1    
    96   47  170 1    
    97   48  171 1    
    98   48  172 1    
    99   48  173 1    
   100   49   50 am   BACKBONE|DICT|INTERRES
   101   49  174 1    
   102   50   51 2    
   103   50   52 1    
   104   52   53 1    
   105   52   54 1    
   106   52  175 1    
   107   53  176 1    
   108   53  177 1    
   109   53  178 1    
   110   54   55 am   BACKBONE|DICT|INTERRES
   111   54  179 1    
   112   55   56 2    
   113   55   57 1    
   114   57   58 1    
   115   57   59 1    
   116   57  180 1    
   117   58  181 1    
   118   58  182 1    
   119   58  183 1    
   120   59   60 am   BACKBONE|DICT|INTERRES
   121   59  184 1    
   122   60   61 2    
   123   60   62 1    
   124   62   63 1    
   125   62   64 1    
   126   62  185 1    
   127   63  186 1    
   128   63  187 1    
   129   63  188 1    
   130   64   65 am   BACKBONE|DICT|INTERRES
   131   64  189 1    
   132   65   66 2    
   133   67   68 2    
   134   67   69 am   BACKBONE|DICT|INTERRES
   135   69   70 1    
   136   69  190 1    
   137   70   71 1    
   138   70   72 1    
   139   70  191 1    
   140   71  192 1    
   141   71  193 1    
   142   71  194 1    
   143   72   73 2    
   144   72   74 am   BACKBONE|DICT|INTERRES
   145   74   75 1    
   146   74  195 1    
   147   75   76 1    
   148   75   77 1    
   149   75  196 1    
   150   76  197 1    
   151   76  198 1    
   152   76  199 1    
   153   77   78 2    
   154   77   79 am   BACKBONE|DICT|INTERRES
   155   79   80 1    
   156   79  200 1    
   157   80   81 1    
   158   80   82 1    
   159   80  201 1    
   160   81  202 1    
   161   81  203 1    
   162   81  204 1    
   163   82   83 2    
   164   82   84 am   BACKBONE|DICT|INTERRES
   165   84   85 1    
   166   84  205 1    
   167   85   86 1    
   168   85   87 1    
   169   85  206 1    
   170   86  207 1    
   171   86  208 1    
   172   86  209 1    
   173   87   88 2    
   174   87   89 am   BACKBONE|DICT|INTERRES
   175   89   90 1    
   176   89  210 1    
   177   90   91 1    
   178   90   92 1    
   179   90  211 1    
   180   91  212 1    
   181   91  213 1    
   182   91  214 1    
   183   92   93 2    
   184   92   94 am   BACKBONE|DICT|INTERRES
   185   94   95 1    
   186   94  215 1    
   187   95   96 1    
   188   95   97 1    
   189   95  216 1    
   190   96  217 1    
   191   96  218 1    
   192   96  219 1    
   193   97   98 2    
   194   97   99 am   BACKBONE|DICT|INTERRES
   195   99  100 1    
   196   99  220 1    
   197  100  101 1    
   198  100  102 1    
   199  100  221 1    
   200  101  222 1    
   201  101  223 1    
   202  101  224 1    
   203  102  103 2    
   204  102  104 am   BACKBONE|DICT|INTERRES
   205  104  105 1    
   206  104  225 1    
   207  105  106 1    
   208  105  107 1    
   209  105  226 1    
   210  106  227 1    
   211  106  228 1    
   212  106  229 1    
   213  107  108 2    
   214  107  109 am   BACKBONE|DICT|INTERRES
   215  109  110 1    
   216  109  230 1    
   217  110  111 1    
   218  110  112 1    
   219  110  231 1    
   220  111  232 1    
   221  111  233 1    
   222  111  234 1    
   223  112  113 2    
   224  112  114 am   BACKBONE|DICT|INTERRES
   225  114  115 1    
   226  114  235 1    
   227  115  116 1    
   228  115  117 1    
   229  115  236 1    
   230  116  237 1    
   231  116  238 1    
   232  116  239 1    
   233  117  118 2    
   234  117  119 am   BACKBONE|DICT|INTERRES
   235  119  120 1    
   236  119  240 1    
   237  120  121 1    
   238  120  124 1    
   239  120  241 1    
   240  121  122 am   BACKBONE|DICT|INTERRES
   241  121  123 2    
   242  122  242 1    
   243  122  243 1    
   244  124  125 1    
   245  124  244 1    
   246  124  245 1    
   247  125  126 1    
   248  126  246 1    
   249  126  247 1    
@<TRIPOS>SUBSTRUCTURE
     1 UNK         1 GROUP             0       ****    0 ROOT    
