@<TRIPOS>MOLECULE
3R540
247   249    1
SMALL
USER_CHARGES


@<TRIPOS>ATOM
      1 CA          4.6422  -16.7534  -42.0550 C.3       0 UNK        -0.1800 
      2 C           3.5582  -16.1877  -42.9611 C.2       0 UNK         0.5000 
      3 O           2.3976  -16.5954  -42.8668 O.2       0 UNK        -0.5000 
      4 N           3.9436  -15.2678  -43.8507 N.am      1 UNK        -0.5000 
      5 CA          3.0456  -14.5732  -44.7694 C.3       1 UNK         0.1400 
      6 C6          3.7292  -14.2930  -46.1375 C.3       23 UNK        -0.0398 
      7 S7          2.6600  -14.7410  -47.5433 S.3       23 UNK        -0.2404 
      8 C8          3.2700  -16.4336  -47.8676 C.3       23 UNK        -0.0205 
      9 C9          2.5403  -17.2192  -48.9586 C.ar      23 UNK        -0.0193 
     10 C10         1.3390  -16.7889  -49.5374 C.ar      23 UNK        -0.1150 
     11 C11         0.6877  -17.5724  -50.4935 C.ar      23 UNK        -0.0193 
     12 C12         1.2564  -18.7800  -50.9023 C.ar      23 UNK        -0.1150 
     13 C13         2.4408  -19.2370  -50.3209 C.ar      23 UNK        -0.0193 
     14 C14         3.0776  -18.4490  -49.3564 C.ar      23 UNK        -0.1150 
     15 C15         3.0072  -20.6027  -50.6979 C.3       23 UNK        -0.0205 
     16 S16         1.8546  -21.9805  -50.3526 S.3       23 UNK        -0.2404 
     17 C17         1.2937  -21.5752  -48.6682 C.3       23 UNK        -0.0398 
     18 CA          0.4320  -22.6561  -47.9712 C.3       11 UNK         0.1400 
     19 N           0.3978  -22.4010  -46.5254 N.am      11 UNK        -0.5000 
     20 C          -0.2038  -23.1469  -45.5904 C.2       10 UNK         0.5000 
     21 O          -0.8321  -24.1726  -45.8481 O.2       10 UNK        -0.5000 
     22 CA         -0.1506  -22.6311  -44.1364 C.3       10 UNK         0.1400 
     23 CB          0.0315  -23.7750  -43.1180 C.3       10 UNK        -0.1800 
     24 N           0.8183  -21.5515  -43.8974 N.am      10 UNK        -0.5000 
     25 C           2.1583  -21.6255  -43.9499 C.2       9 UNK         0.5000 
     26 O           2.7772  -22.6263  -44.3104 O.2       9 UNK        -0.5000 
     27 CA          2.9471  -20.3692  -43.5284 C.3       9 UNK         0.1400 
     28 CB          3.3339  -19.5244  -44.7537 C.3       9 UNK        -0.1800 
     29 N           2.2364  -19.5263  -42.5637 N.am      9 UNK        -0.5000 
     30 C           1.9683  -19.8697  -41.2945 C.2       8 UNK         0.5000 
     31 O           2.3203  -20.9367  -40.7907 O.2       8 UNK        -0.5000 
     32 CA          1.1628  -18.8709  -40.4447 C.3       8 UNK         0.1400 
     33 CB          2.0840  -18.0557  -39.5250 C.3       8 UNK        -0.1800 
     34 N           0.3817  -17.9543  -41.2784 N.am      8 UNK        -0.5000 
     35 C          -0.9548  -17.9547  -41.3503 C.2       7 UNK         0.5000 
     36 O          -1.6814  -18.6839  -40.6735 O.2       7 UNK        -0.5000 
     37 CA         -1.5979  -16.9870  -42.3604 C.3       7 UNK         0.1400 
     38 CB         -1.6597  -15.5667  -41.7807 C.3       7 UNK        -0.1800 
     39 N          -0.9465  -16.9366  -43.6709 N.am      7 UNK        -0.5000 
     40 C          -0.7128  -17.9696  -44.4886 C.2       6 UNK         0.5000 
     41 O          -0.9076  -19.1465  -44.1770 O.2       6 UNK        -0.5000 
     42 CA         -0.1851  -17.6256  -45.9001 C.3       6 UNK         0.1400 
     43 CB         -0.0936  -18.8713  -46.7921 C.3       6 UNK        -0.1800 
     44 N          -0.9950  -16.6282  -46.6068 N.am      6 UNK        -0.5000 
     45 C          -0.9896  -15.3128  -46.3714 C.2       5 UNK         0.5000 
     46 O          -0.3506  -14.7936  -45.4558 O.2       5 UNK        -0.5000 
     47 CA         -1.8572  -14.4303  -47.2756 C.3       5 UNK         0.1400 
     48 CB         -3.0881  -13.9283  -46.5059 C.3       5 UNK        -0.1800 
     49 N          -1.0650  -13.2802  -47.7085 N.am      5 UNK        -0.5000 
     50 C          -0.6328  -13.0882  -48.9630 C.2       4 UNK         0.5000 
     51 O          -0.9295  -13.8329  -49.8961 O.2       4 UNK        -0.5000 
     52 CA          0.2740  -11.8766  -49.2541 C.3       4 UNK         0.1400 
     53 CB         -0.2946  -11.0030  -50.3881 C.3       4 UNK        -0.1800 
     54 N           0.5099  -11.0441  -48.0767 N.am      4 UNK        -0.5000 
     55 C           1.6255  -10.3539  -47.8231 C.2       3 UNK         0.5000 
     56 O           2.6143  -10.3535  -48.5571 O.2       3 UNK        -0.5000 
     57 CA          1.6466   -9.5233  -46.5248 C.3       3 UNK         0.1400 
     58 CB          0.6561   -8.3436  -46.5871 C.3       3 UNK        -0.1800 
     59 N           1.4602  -10.3243  -45.3088 N.am      3 UNK        -0.5000 
     60 C           0.3843  -11.0189  -44.9154 C.2       2 UNK         0.5000 
     61 O          -0.6710  -11.0873  -45.5509 O.2       2 UNK        -0.5000 
     62 CA          0.5716  -11.8588  -43.6443 C.3       2 UNK         0.1400 
     63 CB         -0.7649  -12.2001  -42.9644 C.3       2 UNK        -0.1800 
     64 N           1.2383  -13.0941  -44.0349 N.am      2 UNK        -0.5000 
     65 C           2.5590  -13.2765  -44.0977 C.2       1 UNK         0.5000 
     66 O           3.3832  -12.4585  -43.6818 O.2       1 UNK        -0.5000 
     67 C          -0.9867  -22.7438  -48.5843 C.2       11 UNK         0.5000 
     68 O          -1.2354  -23.5839  -49.4503 O.2       11 UNK        -0.5000 
     69 N          -1.9018  -21.8985  -48.0890 N.am      12 UNK        -0.5000 
     70 CA         -3.3137  -21.8803  -48.4675 C.3       12 UNK         0.1400 
     71 CB         -3.9408  -20.5639  -47.9898 C.3       12 UNK        -0.1800 
     72 C          -4.0899  -23.0856  -47.9103 C.2       12 UNK         0.5000 
     73 O          -4.8942  -23.6744  -48.6310 O.2       12 UNK        -0.5000 
     74 N          -3.8162  -23.4480  -46.6488 N.am      13 UNK        -0.5000 
     75 CA         -4.4382  -24.5768  -45.9505 C.3       13 UNK         0.1400 
     76 CB         -4.1245  -24.4838  -44.4494 C.3       13 UNK        -0.1800 
     77 C          -3.9969  -25.9373  -46.5197 C.2       13 UNK         0.5000 
     78 O          -4.8160  -26.8496  -46.6316 O.2       13 UNK        -0.5000 
     79 N          -2.7186  -26.0293  -46.9088 N.am      14 UNK        -0.5000 
     80 CA         -2.1248  -27.1696  -47.6080 C.3       14 UNK         0.1400 
     81 CB         -0.5948  -27.0458  -47.5223 C.3       14 UNK        -0.1800 
     82 C          -2.5648  -27.2795  -49.0829 C.2       14 UNK         0.5000 
     83 O          -2.3158  -28.3113  -49.7067 O.2       14 UNK        -0.5000 
     84 N          -3.1728  -26.2085  -49.6170 N.am      15 UNK        -0.5000 
     85 CA         -3.5935  -26.0034  -51.0072 C.3       15 UNK         0.1400 
     86 CB         -4.6599  -27.0323  -51.4332 C.3       15 UNK        -0.1800 
     87 C          -2.4169  -25.9151  -52.0020 C.2       15 UNK         0.5000 
     88 O          -2.6283  -26.0128  -53.2111 O.2       15 UNK        -0.5000 
     89 N          -1.2045  -25.6660  -51.4895 N.am      16 UNK        -0.5000 
     90 CA          0.0093  -25.4073  -52.2643 C.3       16 UNK         0.1400 
     91 CB          1.2268  -25.5188  -51.3353 C.3       16 UNK        -0.1800 
     92 C          -0.0364  -24.0397  -52.9738 C.2       16 UNK         0.5000 
     93 O           0.5746  -23.8801  -54.0304 O.2       16 UNK        -0.5000 
     94 N          -0.8171  -23.1035  -52.4145 N.am      17 UNK        -0.5000 
     95 CA         -1.1657  -21.8153  -53.0177 C.3       17 UNK         0.1400 
     96 CB         -1.6821  -20.8813  -51.9134 C.3       17 UNK        -0.1800 
     97 C          -2.2159  -21.9323  -54.1468 C.2       17 UNK         0.5000 
     98 O          -2.5522  -20.9176  -54.7556 O.2       17 UNK        -0.5000 
     99 N          -2.7357  -23.1484  -54.3808 N.am      18 UNK        -0.5000 
    100 CA        -3.7510  -23.5496  -55.3629 C.3       18 UNK         0.1400 
    101 CB        -3.3599  -23.1320  -56.7956 C.3       18 UNK        -0.1800 
    102 C         -5.1929  -23.1327  -55.0073 C.2       18 UNK         0.5000 
    103 O         -6.1134  -23.4870  -55.7457 O.2       18 UNK        -0.5000 
    104 N         -5.3869  -22.4340  -53.8829 N.am      19 UNK        -0.5000 
    105 CA        -6.6810  -22.0163  -53.3584 C.3       19 UNK         0.1400 
    106 CB        -7.2201  -20.8167  -54.1609 C.3       19 UNK        -0.1800 
    107 C         -6.5228  -21.6360  -51.8826 C.2       19 UNK         0.5000 
    108 O         -5.4635  -21.1418  -51.4877 O.2       19 UNK        -0.5000 
    109 N         -7.6051  -21.8005  -51.1110 N.am      20 UNK        -0.5000 
    110 CA        -7.7023  -21.3858  -49.7064 C.3       20 UNK         0.1400 
    111 CB        -8.9603  -22.0105  -49.0850 C.3       20 UNK        -0.1800 
    112 C         -7.7102  -19.8529  -49.5237 C.2       20 UNK         0.5000 
    113 O         -7.3850  -19.3655  -48.4418 O.2       20 UNK        -0.5000 
    114 N         -8.0562  -19.1230  -50.5927 N.am      21 UNK        -0.5000 
    115 CA        -7.9867  -17.6641  -50.6858 C.3       21 UNK         0.1400 
    116 CB        -8.9901  -17.2015  -51.7553 C.3       21 UNK        -0.1800 
    117 C         -6.5686  -17.1415  -51.0077 C.2       21 UNK         0.5000 
    118 O         -6.3796  -15.9260  -51.0601 O.2       21 UNK        -0.5000 
    119 N         -5.6069  -18.0487  -51.2374 N.am      22 UNK        -0.5000 
    120 CA        -4.2138  -17.7742  -51.6329 C.3       22 UNK         0.1400 
    121 C         -4.0339  -17.3102  -53.1124 C.2       22 UNK         0.5000 
    122 N         -5.0583  -17.3601  -53.9554 N.am      22 UNK        -0.7600 
    123 O         -2.9435  -16.9187  -53.5168 O.2       22 UNK        -0.5000 
    124 C124       -3.4448  -16.8754  -50.6115 C.3       23 UNK        -0.0398 
    125 S125       -1.9800  -17.6944  -49.9043 S.3       23 UNK        -0.2404 
    126 C126       -0.6640  -17.1434  -51.0317 C.3       23 UNK        -0.0205 
    127 H127        4.5123  -17.8280  -41.9294 H         1 UNK         0.0600 
    128 H128        5.6371  -16.5829  -42.4669 H         1 UNK         0.0600 
    129 H129        4.5950  -16.2823  -41.0737 H         1 UNK         0.0600 
    130 H130        4.8985  -14.9382  -43.8412 H         1 UNK         0.3000 
    131 H131        2.1806  -15.2167  -44.9397 H         1 UNK         0.0600 
    132 H132        4.6616  -14.8521  -46.2292 H         1 UNK         0.0800 
    133 H133        4.0216  -13.2472  -46.2530 H         1 UNK         0.0800 
    134 H134        3.2125  -17.0056  -46.9403 H         1 UNK         0.0800 
    135 H135        4.3268  -16.3712  -48.1318 H         1 UNK         0.0800 
    136 H136        0.8743  -15.8658  -49.2252 H         1 UNK         0.1150 
    137 H137        0.7538  -19.3908  -51.6377 H         1 UNK         0.1150 
    138 H138        3.9902  -18.8026  -48.8970 H         1 UNK         0.1150 
    139 H139        3.2533  -20.6058  -51.7604 H         1 UNK         0.0800 
    140 H140        3.9410  -20.7908  -50.1661 H         1 UNK         0.0800 
    141 H141        2.1895  -21.3760  -48.0775 H         1 UNK         0.0800 
    142 H142        0.7449  -20.6366  -48.7164 H         1 UNK         0.0800 
    143 H143        0.9107  -23.6274  -48.1107 H         1 UNK         0.0600 
    144 H144        0.9029  -21.5916  -46.2007 H         1 UNK         0.3000 
    145 H145       -1.1296  -22.1874  -43.9504 H         1 UNK         0.0600 
    146 H146        0.0427  -23.3945  -42.0965 H         1 UNK         0.0600 
    147 H147       -0.7839  -24.4959  -43.1849 H         1 UNK         0.0600 
    148 H148        0.9603  -24.3215  -43.2830 H         1 UNK         0.0600 
    149 H149        0.4009  -20.6597  -43.6500 H         1 UNK         0.3000 
    150 H150        3.8687  -20.7158  -43.0561 H         1 UNK         0.0600 
    151 H151        3.7782  -20.1409  -45.5365 H         1 UNK         0.0600 
    152 H152        4.0701  -18.7661  -44.4888 H         1 UNK         0.0600 
    153 H153        2.4741  -19.0137  -45.1831 H         1 UNK         0.0600 
    154 H154        1.9723  -18.5998  -42.8741 H         1 UNK         0.3000 
    155 H155        0.5071  -19.4669  -39.8068 H         1 UNK         0.0600 
    156 H156        1.5027  -17.4455  -38.8337 H         1 UNK         0.0600 
    157 H157        2.7309  -17.3882  -40.0905 H         1 UNK         0.0600 
    158 H158        2.7215  -18.7075  -38.9263 H         1 UNK         0.0600 
    159 H159        0.9093  -17.3156  -41.8675 H         1 UNK         0.3000 
    160 H160       -2.6214  -17.3282  -42.5277 H         1 UNK         0.0600 
    161 H161       -0.6618  -15.1463  -41.6503 H         1 UNK         0.0600 
    162 H162       -2.1502  -15.5603  -40.8065 H         1 UNK         0.0600 
    163 H163       -2.2248  -14.9003  -42.4323 H         1 UNK         0.0600 
    164 H164       -0.7376  -16.0133  -44.0369 H         1 UNK         0.3000 
    165 H165        0.8233  -17.2254  -45.7772 H         1 UNK         0.0600 
    166 H166       -1.0725  -19.3256  -46.9451 H         1 UNK         0.0600 
    167 H167        0.3098  -18.6185  -47.7693 H         1 UNK         0.0600 
    168 H168        0.5619  -19.6219  -46.3550 H         1 UNK         0.0600 
    169 H169       -1.5576  -16.9815  -47.3682 H         1 UNK         0.3000 
    170 H170       -2.2007  -15.0205  -48.1275 H         1 UNK         0.0600 
    171 H171       -3.6921  -14.7623  -46.1462 H         1 UNK         0.0600 
    172 H172       -2.8063  -13.3270  -45.6404 H         1 UNK         0.0600 
    173 H173       -3.7251  -13.3155  -47.1437 H         1 UNK         0.0600 
    174 H174       -0.7554  -12.6668  -46.9653 H         1 UNK         0.3000 
    175 H175        1.2259  -12.2966  -49.5862 H         1 UNK         0.0600 
    176 H176        0.3893  -10.1941  -50.6455 H         1 UNK         0.0600 
    177 H177       -0.4563  -11.5871  -51.2949 H         1 UNK         0.0600 
    178 H178       -1.2498  -10.5582  -50.1073 H         1 UNK         0.0600 
    179 H179       -0.2336  -10.9936  -47.3861 H         1 UNK         0.3000 
    180 H180        2.6479   -9.0970  -46.4443 H         1 UNK         0.0600 
    181 H181        0.7396   -7.7142  -45.7011 H         1 UNK         0.0600 
    182 H182        0.8593   -7.7130  -47.4535 H         1 UNK         0.0600 
    183 H183       -0.3795   -8.6752  -46.6641 H         1 UNK         0.0600 
    184 H184        2.2899  -10.4122  -44.7363 H         1 UNK         0.3000 
    185 H185        1.1820  -11.2969  -42.9341 H         1 UNK         0.0600 
    186 H186       -1.3970  -12.8220  -43.5991 H         1 UNK         0.0600 
    187 H187       -0.6005  -12.7328  -42.0284 H         1 UNK         0.0600 
    188 H188       -1.3247  -11.2946  -42.7277 H         1 UNK         0.0600 
    189 H189        0.6357  -13.7886  -44.4784 H         1 UNK         0.3000 
    190 H190       -1.6174  -21.2480  -47.3735 H         1 UNK         0.3000 
    191 H191       -3.3867  -21.9185  -49.5549 H         1 UNK         0.0600 
    192 H192       -4.9929  -20.5140  -48.2636 H         1 UNK         0.0600 
    193 H193       -3.4518  -19.7062  -48.4474 H         1 UNK         0.0600 
    194 H194       -3.8767  -20.4494  -46.9071 H         1 UNK         0.0600 
    195 H195       -3.1071  -22.9412  -46.1424 H         1 UNK         0.3000 
    196 H196       -5.5202  -24.4987  -46.0772 H         1 UNK         0.0600 
    197 H197       -4.6072  -25.2932  -43.9003 H         1 UNK         0.0600 
    198 H198       -4.4853  -23.5455  -44.0277 H         1 UNK         0.0600 
    199 H199       -3.0540  -24.5502  -44.2550 H         1 UNK         0.0600 
    200 H200       -2.0924  -25.2552  -46.6979 H         1 UNK         0.3000 
    201 H201       -2.4290  -28.0873  -47.1007 H         1 UNK         0.0600 
    202 H202       -0.2592  -27.0178  -46.4854 H         1 UNK         0.0600 
    203 H203       -0.2377  -26.1390  -48.0127 H         1 UNK         0.0600 
    204 H204       -0.1031  -27.8941  -48.0001 H         1 UNK         0.0600 
    205 H205       -3.3293  -25.4173  -49.0068 H         1 UNK         0.3000 
    206 H206       -4.0669  -25.0206  -51.0269 H         1 UNK         0.0600 
    207 H207       -5.4791  -27.0699  -50.7152 H         1 UNK         0.0600 
    208 H208       -5.0900  -26.7709  -52.4008 H         1 UNK         0.0600 
    209 H209       -4.2443  -28.0360  -51.5234 H         1 UNK         0.0600 
    210 H210       -1.1443  -25.4936  -50.4941 H         1 UNK         0.3000 
    211 H211        0.0960  -26.1751  -53.0359 H         1 UNK         0.0600 
    212 H212        1.1447  -24.8454  -50.4825 H         1 UNK         0.0600 
    213 H213        2.1492  -25.2735  -51.8632 H         1 UNK         0.0600 
    214 H214        1.3319  -26.5323  -50.9479 H         1 UNK         0.0600 
    215 H215       -1.2178  -23.3059  -51.5052 H         1 UNK         0.3000 
    216 H216       -0.2606  -21.3780  -53.4440 H         1 UNK         0.0600 
    217 H217       -1.7620  -19.8600  -52.2851 H         1 UNK         0.0600 
    218 H218       -1.0158  -20.8613  -51.0516 H         1 UNK         0.0600 
    219 H219       -2.6708  -21.1795  -51.5674 H         1 UNK         0.0600 
    220 H220       -2.3921  -23.9142  -53.8150 H         1 UNK         0.3000 
    221 H221       -3.7522  -24.6402  -55.3406 H         1 UNK         0.0600 
    222 H222       -3.4298  -22.0539  -56.9407 H         1 UNK         0.0600 
    223 H223       -2.3417  -23.4400  -57.0333 H         1 UNK         0.0600 
    224 H224       -4.0182  -23.5982  -57.5296 H         1 UNK         0.0600 
    225 H225       -4.5945  -22.1726  -53.3116 H         1 UNK         0.3000 
    226 H226       -7.3803  -22.8520  -53.4305 H         1 UNK         0.0600 
    227 H227       -8.1723  -20.4676  -53.7599 H         1 UNK         0.0600 
    228 H228       -6.5238  -19.9778  -54.1391 H         1 UNK         0.0600 
    229 H229       -7.3906  -21.0791  -55.2049 H         1 UNK         0.0600 
    230 H230       -8.4365  -22.2106  -51.5126 H         1 UNK         0.3000 
    231 H231       -6.8320  -21.7764  -49.1766 H         1 UNK         0.0600 
    232 H232       -9.0477  -21.7456  -48.0304 H         1 UNK         0.0600 
    233 H233       -8.9292  -23.0987  -49.1427 H         1 UNK         0.0600 
    234 H234       -9.8683  -21.6715  -49.5853 H         1 UNK         0.0600 
    235 H235       -8.3350  -19.6128  -51.4293 H         1 UNK         0.3000 
    236 H236       -8.2837  -17.2313  -49.7282 H         1 UNK         0.0600 
    237 H237       -8.7395  -17.5955  -52.7410 H         1 UNK         0.0600 
    238 H238      -10.0024  -17.5249  -51.5119 H         1 UNK         0.0600 
    239 H239       -9.0101  -16.1136  -51.8320 H         1 UNK         0.0600 
    240 H240       -5.8401  -19.0317  -51.1737 H         1 UNK         0.3000 
    241 H241       -3.7605  -18.7647  -51.6221 H         1 UNK         0.0600 
    242 H242       -4.9237  -17.0674  -54.9103 H         1 UNK         0.3800 
    243 H243       -5.9643  -17.6689  -53.6471 H         1 UNK         0.3800 
    244 H244       -4.0791  -16.6237  -49.7614 H         1 UNK         0.0800 
    245 H245       -3.1584  -15.9117  -51.0369 H         1 UNK         0.0800 
    246 H246       -0.6946  -16.0608  -51.1492 H         1 UNK         0.0800 
    247 H247       -0.8283  -17.5672  -52.0227 H         1 UNK         0.0800 
@<TRIPOS>BOND
     1    1    2 1    
     2    1  127 1    
     3    1  128 1    
     4    1  129 1    
     5    2    3 2    
     6    2    4 am   BACKBONE|DICT|INTERRES
     7    4    5 1    
     8    4  130 1    
     9    5    6 1    
    10    5   65 1    
    11    5  131 1    
    12    6    7 1    
    13    6  132 1    
    14    6  133 1    
    15    7    8 1    
    16    8    9 1    
    17    8  134 1    
    18    8  135 1    
    19    9   10 ar   
    20    9   14 ar   
    21   10   11 ar   
    22   10  136 1    
    23   11   12 ar   
    24   11  126 1    
    25   12   13 ar   
    26   12  137 1    
    27   13   14 ar   
    28   13   15 1    
    29   14  138 1    
    30   15   16 1    
    31   15  139 1    
    32   15  140 1    
    33   16   17 1    
    34   17   18 1    
    35   17  141 1    
    36   17  142 1    
    37   18   19 1    
    38   18   67 1    
    39   18  143 1    
    40   19   20 am   BACKBONE|DICT|INTERRES
    41   19  144 1    
    42   20   21 2    
    43   20   22 1    
    44   22   23 1    
    45   22   24 1    
    46   22  145 1    
    47   23  146 1    
    48   23  147 1    
    49   23  148 1    
    50   24   25 am   BACKBONE|DICT|INTERRES
    51   24  149 1    
    52   25   26 2    
    53   25   27 1    
    54   27   28 1    
    55   27   29 1    
    56   27  150 1    
    57   28  151 1    
    58   28  152 1    
    59   28  153 1    
    60   29   30 am   BACKBONE|DICT|INTERRES
    61   29  154 1    
    62   30   31 2    
    63   30   32 1    
    64   32   33 1    
    65   32   34 1    
    66   32  155 1    
    67   33  156 1    
    68   33  157 1    
    69   33  158 1    
    70   34   35 am   BACKBONE|DICT|INTERRES
    71   34  159 1    
    72   35   36 2    
    73   35   37 1    
    74   37   38 1    
    75   37   39 1    
    76   37  160 1    
    77   38  161 1    
    78   38  162 1    
    79   38  163 1    
    80   39   40 am   BACKBONE|DICT|INTERRES
    81   39  164 1    
    82   40   41 2    
    83   40   42 1    
    84   42   43 1    
    85   42   44 1    
    86   42  165 1    
    87   43  166 1    
    88   43  167 1    
    89   43  168 1    
    90   44   45 am   BACKBONE|DICT|INTERRES
    91   44  169 1    
    92   45   46 2    
    93   45   47 1    
    94   47   48 1    
    95   47   49 1    
    96   47  170 1    
    97   48  171 1    
    98   48  172 1    
    99   48  173 1    
   100   49   50 am   BACKBONE|DICT|INTERRES
   101   49  174 1    
   102   50   51 2    
   103   50   52 1    
   104   52   53 1    
   105   52   54 1    
   106   52  175 1    
   107   53  176 1    
   108   53  177 1    
   109   53  178 1    
   110   54   55 am   BACKBONE|DICT|INTERRES
   111   54  179 1    
   112   55   56 2    
   113   55   57 1    
   114   57   58 1    
   115   57   59 1    
   116   57  180 1    
   117   58  181 1    
   118   58  182 1    
   119   58  183 1    
   120   59   60 am   BACKBONE|DICT|INTERRES
   121   59  184 1    
   122   60   61 2    
   123   60   62 1    
   124   62   63 1    
   125   62   64 1    
   126   62  185 1    
   127   63  186 1    
   128   63  187 1    
   129   63  188 1    
   130   64   65 am   BACKBONE|DICT|INTERRES
   131   64  189 1    
   132   65   66 2    
   133   67   68 2    
   134   67   69 am   BACKBONE|DICT|INTERRES
   135   69   70 1    
   136   69  190 1    
   137   70   71 1    
   138   70   72 1    
   139   70  191 1    
   140   71  192 1    
   141   71  193 1    
   142   71  194 1    
   143   72   73 2    
   144   72   74 am   BACKBONE|DICT|INTERRES
   145   74   75 1    
   146   74  195 1    
   147   75   76 1    
   148   75   77 1    
   149   75  196 1    
   150   76  197 1    
   151   76  198 1    
   152   76  199 1    
   153   77   78 2    
   154   77   79 am   BACKBONE|DICT|INTERRES
   155   79   80 1    
   156   79  200 1    
   157   80   81 1    
   158   80   82 1    
   159   80  201 1    
   160   81  202 1    
   161   81  203 1    
   162   81  204 1    
   163   82   83 2    
   164   82   84 am   BACKBONE|DICT|INTERRES
   165   84   85 1    
   166   84  205 1    
   167   85   86 1    
   168   85   87 1    
   169   85  206 1    
   170   86  207 1    
   171   86  208 1    
   172   86  209 1    
   173   87   88 2    
   174   87   89 am   BACKBONE|DICT|INTERRES
   175   89   90 1    
   176   89  210 1    
   177   90   91 1    
   178   90   92 1    
   179   90  211 1    
   180   91  212 1    
   181   91  213 1    
   182   91  214 1    
   183   92   93 2    
   184   92   94 am   BACKBONE|DICT|INTERRES
   185   94   95 1    
   186   94  215 1    
   187   95   96 1    
   188   95   97 1    
   189   95  216 1    
   190   96  217 1    
   191   96  218 1    
   192   96  219 1    
   193   97   98 2    
   194   97   99 am   BACKBONE|DICT|INTERRES
   195   99  100 1    
   196   99  220 1    
   197  100  101 1    
   198  100  102 1    
   199  100  221 1    
   200  101  222 1    
   201  101  223 1    
   202  101  224 1    
   203  102  103 2    
   204  102  104 am   BACKBONE|DICT|INTERRES
   205  104  105 1    
   206  104  225 1    
   207  105  106 1    
   208  105  107 1    
   209  105  226 1    
   210  106  227 1    
   211  106  228 1    
   212  106  229 1    
   213  107  108 2    
   214  107  109 am   BACKBONE|DICT|INTERRES
   215  109  110 1    
   216  109  230 1    
   217  110  111 1    
   218  110  112 1    
   219  110  231 1    
   220  111  232 1    
   221  111  233 1    
   222  111  234 1    
   223  112  113 2    
   224  112  114 am   BACKBONE|DICT|INTERRES
   225  114  115 1    
   226  114  235 1    
   227  115  116 1    
   228  115  117 1    
   229  115  236 1    
   230  116  237 1    
   231  116  238 1    
   232  116  239 1    
   233  117  118 2    
   234  117  119 am   BACKBONE|DICT|INTERRES
   235  119  120 1    
   236  119  240 1    
   237  120  121 1    
   238  120  124 1    
   239  120  241 1    
   240  121  122 am   BACKBONE|DICT|INTERRES
   241  121  123 2    
   242  122  242 1    
   243  122  243 1    
   244  124  125 1    
   245  124  244 1    
   246  124  245 1    
   247  125  126 1    
   248  126  246 1    
   249  126  247 1    
@<TRIPOS>SUBSTRUCTURE
     1 UNK         1 GROUP             0       ****    0 ROOT    
