@<TRIPOS>MOLECULE
3R540
247   249    1
SMALL
USER_CHARGES


@<TRIPOS>ATOM
      1 CA          1.8365  -13.1937  -46.8467 C.3       0 UNK        -0.1800 
      2 C           0.4507  -13.3747  -46.2469 C.2       0 UNK         0.5000 
      3 O          -0.5068  -12.7740  -46.7329 O.2       0 UNK        -0.5000 
      4 N           0.3458  -14.2099  -45.2046 N.am      1 UNK        -0.5000 
      5 CA         -0.8916  -14.5996  -44.5123 C.3       1 UNK         0.1400 
      6 C6         -1.9454  -15.2800  -45.4327 C.3       23 UNK        -0.0398 
      7 S7         -1.3634  -16.8440  -46.1717 S.3       23 UNK        -0.2404 
      8 C8         -0.8803  -16.3380  -47.8486 C.3       23 UNK        -0.0205 
      9 C9         -0.9039  -17.5144  -48.8138 C.ar      23 UNK        -0.0193 
     10 C10        -2.0763  -17.8151  -49.5119 C.ar      23 UNK        -0.1150 
     11 C11        -2.1046  -18.8561  -50.4434 C.ar      23 UNK        -0.0193 
     12 C12        -0.9480  -19.6102  -50.6655 C.ar      23 UNK        -0.1150 
     13 C13         0.2319  -19.3251  -49.9714 C.ar      23 UNK        -0.0193 
     14 C14         0.2454  -18.2785  -49.0413 C.ar      23 UNK        -0.1150 
     15 C15         1.5057  -20.1080  -50.2730 C.3       23 UNK        -0.0205 
     16 S16         1.4268  -21.8546  -49.7530 S.3       23 UNK        -0.2404 
     17 C17         1.3874  -21.6900  -47.9348 C.3       23 UNK        -0.0398 
     18 CA          0.4269  -22.6744  -47.2215 C.3       11 UNK         0.1400 
     19 N           0.4942  -22.5359  -45.7643 N.am      11 UNK        -0.5000 
     20 C          -0.0038  -23.4193  -44.8856 C.2       10 UNK         0.5000 
     21 O          -0.5332  -24.4792  -45.2148 O.2       10 UNK        -0.5000 
     22 CA          0.0480  -23.0392  -43.3915 C.3       10 UNK         0.1400 
     23 CB          1.3888  -23.4614  -42.7739 C.3       10 UNK        -0.1800 
     24 N          -0.1599  -21.6104  -43.1578 N.am      10 UNK        -0.5000 
     25 C          -1.2732  -20.9387  -43.4851 C.2       9 UNK         0.5000 
     26 O          -2.2929  -21.4844  -43.9051 O.2       9 UNK        -0.5000 
     27 CA         -1.2251  -19.3998  -43.3913 C.3       9 UNK         0.1400 
     28 CB         -1.9299  -18.9137  -42.1179 C.3       9 UNK        -0.1800 
     29 N           0.1264  -18.8277  -43.4527 N.am      9 UNK        -0.5000 
     30 C           0.9942  -19.0061  -44.4636 C.2       8 UNK         0.5000 
     31 O           0.7306  -19.6785  -45.4584 O.2       8 UNK        -0.5000 
     32 CA          2.3979  -18.3783  -44.3536 C.3       8 UNK         0.1400 
     33 CB          2.5642  -17.2580  -45.3905 C.3       8 UNK        -0.1800 
     34 N           2.7124  -17.8647  -43.0197 N.am      8 UNK        -0.5000 
     35 C           2.9133  -18.6304  -41.9348 C.2       7 UNK         0.5000 
     36 O           2.9090  -19.8618  -41.9669 O.2       7 UNK        -0.5000 
     37 CA          3.1091  -17.9131  -40.5813 C.3       7 UNK         0.1400 
     38 CB          4.5984  -17.8723  -40.2076 C.3       7 UNK        -0.1800 
     39 N           2.5764  -16.5486  -40.5456 N.am      7 UNK        -0.5000 
     40 C           1.2950  -16.2047  -40.7403 C.2       6 UNK         0.5000 
     41 O           0.3906  -17.0211  -40.9102 O.2       6 UNK        -0.5000 
     42 CA          0.9815  -14.6988  -40.8343 C.3       6 UNK         0.1400 
     43 CB          0.4241  -14.1754  -39.5043 C.3       6 UNK        -0.1800 
     44 N           2.1222  -13.8736  -41.2502 N.am      6 UNK        -0.5000 
     45 C           2.7835  -13.9948  -42.4129 C.2       5 UNK         0.5000 
     46 O           2.4643  -14.8111  -43.2793 O.2       5 UNK        -0.5000 
     47 CA          4.0004  -13.0793  -42.6529 C.3       5 UNK         0.1400 
     48 CB          3.9828  -12.4767  -44.0659 C.3       5 UNK        -0.1800 
     49 N           4.0800  -11.9909  -41.6804 N.am      5 UNK        -0.5000 
     50 C           4.8205  -12.0001  -40.5637 C.2       4 UNK         0.5000 
     51 O           5.5322  -12.9469  -40.2274 O.2       4 UNK        -0.5000 
     52 CA          4.7484  -10.7509  -39.6601 C.3       4 UNK         0.1400 
     53 CB          5.9996   -9.8794  -39.8487 C.3       4 UNK        -0.1800 
     54 N           3.5592   -9.9260  -39.8915 N.am      4 UNK        -0.5000 
     55 C           2.3053  -10.2941  -39.5986 C.2       3 UNK         0.5000 
     56 O           2.0282  -11.3655  -39.0575 O.2       3 UNK        -0.5000 
     57 CA          1.1641   -9.3317  -39.9964 C.3       3 UNK         0.1400 
     58 CB          1.6328   -8.0741  -40.7638 C.3       3 UNK        -0.1800 
     59 N           0.1074  -10.0175  -40.7494 N.am      3 UNK        -0.5000 
     60 C           0.2515  -10.7074  -41.8895 C.2       2 UNK         0.5000 
     61 O           1.3250  -10.8599  -42.4795 O.2       2 UNK        -0.5000 
     62 CA         -1.0296  -11.3103  -42.4798 C.3       2 UNK         0.1400 
     63 CB         -1.7949  -10.2633  -43.3092 C.3       2 UNK        -0.1800 
     64 N          -0.6748  -12.4495  -43.3186 N.am      2 UNK        -0.5000 
     65 C          -1.4941  -13.4485  -43.6690 C.2       1 UNK         0.5000 
     66 O          -2.6743  -13.4991  -43.3192 O.2       1 UNK        -0.5000 
     67 C          -1.0287  -22.5374  -47.7062 C.2       11 UNK         0.5000 
     68 O          -1.4909  -23.3829  -48.4730 O.2       11 UNK        -0.5000 
     69 N          -1.7401  -21.5168  -47.2056 N.am      12 UNK        -0.5000 
     70 CA         -3.1534  -21.2744  -47.5027 C.3       12 UNK         0.1400 
     71 CB         -3.5976  -19.9543  -46.8578 C.3       12 UNK        -0.1800 
     72 C          -4.0714  -22.4303  -47.0595 C.2       12 UNK         0.5000 
     73 O          -5.0404  -22.7340  -47.7543 O.2       12 UNK        -0.5000 
     74 N          -3.7387  -23.0585  -45.9251 N.am      13 UNK        -0.5000 
     75 CA         -4.4328  -24.2227  -45.3878 C.3       13 UNK         0.1400 
     76 CB         -4.0860  -24.3785  -43.8981 C.3       13 UNK        -0.1800 
     77 C          -4.1193  -25.5147  -46.1649 C.2       13 UNK         0.5000 
     78 O          -5.0487  -26.1909  -46.6079 O.2       13 UNK        -0.5000 
     79 N          -2.8291  -25.8629  -46.2757 N.am      14 UNK        -0.5000 
     80 CA         -2.3863  -27.1686  -46.7669 C.3       14 UNK         0.1400 
     81 CB         -1.0008  -27.4963  -46.1878 C.3       14 UNK        -0.1800 
     82 C          -2.3632  -27.2756  -48.2991 C.2       14 UNK         0.5000 
     83 O          -2.8407  -28.2753  -48.8383 O.2       14 UNK        -0.5000 
     84 N          -1.7826  -26.2733  -48.9698 N.am      15 UNK        -0.5000 
     85 CA         -1.5855  -26.2710  -50.4201 C.3       15 UNK         0.1400 
     86 CB         -0.2141  -25.6579  -50.7489 C.3       15 UNK        -0.1800 
     87 C          -2.7041  -25.5041  -51.1366 C.2       15 UNK         0.5000 
     88 O          -3.1642  -25.9444  -52.1906 O.2       15 UNK        -0.5000 
     89 N          -3.0938  -24.3548  -50.5650 N.am      16 UNK        -0.5000 
     90 CA         -4.1378  -23.4273  -51.0195 C.3       16 UNK         0.1400 
     91 CB         -5.5230  -24.1004  -50.9407 C.3       16 UNK        -0.1800 
     92 C          -3.8833  -22.7978  -52.4063 C.2       16 UNK         0.5000 
     93 O          -4.7951  -22.1840  -52.9619 O.2       16 UNK        -0.5000 
     94 N          -2.6597  -22.9598  -52.9397 N.am      17 UNK        -0.5000 
     95 CA         -2.2186  -22.5968  -54.2918 C.3       17 UNK         0.1400 
     96 CB         -2.0065  -21.0750  -54.3965 C.3       17 UNK        -0.1800 
     97 C          -3.1595  -23.1566  -55.3804 C.2       17 UNK         0.5000 
     98 O          -3.5530  -22.4295  -56.2943 O.2       17 UNK        -0.5000 
     99 N          -3.5387  -24.4345  -55.2238 N.am      18 UNK        -0.5000 
    100 CA        -4.6214  -25.1304  -55.9306 C.3       18 UNK         0.1400 
    101 CB        -4.6960  -26.5747  -55.4130 C.3       18 UNK        -0.1800 
    102 C         -4.5633  -25.1157  -57.4716 C.2       18 UNK         0.5000 
    103 O         -5.6035  -25.2843  -58.1084 O.2       18 UNK        -0.5000 
    104 N         -3.3740  -24.8912  -58.0462 N.am      19 UNK        -0.5000 
    105 CA        -3.1679  -24.6961  -59.4836 C.3       19 UNK         0.1400 
    106 CB        -1.6602  -24.6934  -59.7779 C.3       19 UNK        -0.1800 
    107 C         -3.8259  -23.4080  -60.0233 C.2       19 UNK         0.5000 
    108 O         -4.2525  -23.3879  -61.1786 O.2       19 UNK        -0.5000 
    109 N         -3.9031  -22.3706  -59.1791 N.am      20 UNK        -0.5000 
    110 CA        -4.5513  -21.0892  -59.4686 C.3       20 UNK         0.1400 
    111 CB        -3.5432  -19.9628  -59.1870 C.3       20 UNK        -0.1800 
    112 C         -5.8224  -20.8758  -58.6236 C.2       20 UNK         0.5000 
    113 O         -6.6483  -20.0389  -58.9877 O.2       20 UNK        -0.5000 
    114 N         -5.9379  -21.6139  -57.5088 N.am      21 UNK        -0.5000 
    115 CA        -6.9000  -21.4548  -56.4127 C.3       21 UNK         0.1400 
    116 CB        -8.3549  -21.6390  -56.8919 C.3       21 UNK        -0.1800 
    117 C         -6.6635  -20.1469  -55.6262 C.2       21 UNK         0.5000 
    118 O         -7.6157  -19.5254  -55.1505 O.2       21 UNK        -0.5000 
    119 N         -5.3839  -19.7681  -55.5007 N.am      22 UNK        -0.5000 
    120 CA        -4.8914  -18.5425  -54.8543 C.3       22 UNK         0.1400 
    121 C         -5.3058  -17.2266  -55.5857 C.2       22 UNK         0.5000 
    122 N         -5.1603  -16.0714  -54.9502 N.am      22 UNK        -0.7600 
    123 O         -5.7089  -17.2292  -56.7466 O.2       22 UNK        -0.5000 
    124 C124       -5.1705  -18.5346  -53.3201 C.3       23 UNK        -0.0398 
    125 S125       -3.7915  -17.8047  -52.3702 S.3       23 UNK        -0.2404 
    126 C126       -3.3803  -19.1528  -51.2164 C.3       23 UNK        -0.0205 
    127 H127        1.7892  -13.2824  -47.9320 H         1 UNK         0.0600 
    128 H128        2.5326  -13.9487  -46.4810 H         1 UNK         0.0600 
    129 H129        2.2290  -12.2072  -46.6015 H         1 UNK         0.0600 
    130 H130        1.1902  -14.6098  -44.8070 H         1 UNK         0.3000 
    131 H131       -0.5836  -15.3485  -43.7810 H         1 UNK         0.0600 
    132 H132       -2.8350  -15.5412  -44.8575 H         1 UNK         0.0800 
    133 H133       -2.2926  -14.5996  -46.2104 H         1 UNK         0.0800 
    134 H134        0.1174  -15.8991  -47.8171 H         1 UNK         0.0800 
    135 H135       -1.5497  -15.5567  -48.2112 H         1 UNK         0.0800 
    136 H136       -2.9670  -17.2261  -49.3431 H         1 UNK         0.1150 
    137 H137       -0.9577  -20.4148  -51.3865 H         1 UNK         0.1150 
    138 H138        1.1549  -18.0440  -48.5066 H         1 UNK         0.1150 
    139 H139        1.6903  -20.0741  -51.3475 H         1 UNK         0.0800 
    140 H140        2.3704  -19.6363  -49.8035 H         1 UNK         0.0800 
    141 H141        1.1253  -20.6635  -47.6869 H         1 UNK         0.0800 
    142 H142        2.4032  -21.8358  -47.5658 H         1 UNK         0.0800 
    143 H143        0.7542  -23.6870  -47.4680 H         1 UNK         0.0600 
    144 H144        0.8217  -21.6380  -45.4236 H         1 UNK         0.3000 
    145 H145       -0.7510  -23.5822  -42.8827 H         1 UNK         0.0600 
    146 H146        1.4048  -23.2734  -41.7002 H         1 UNK         0.0600 
    147 H147        2.2255  -22.9223  -43.2205 H         1 UNK         0.0600 
    148 H148        1.5677  -24.5276  -42.9197 H         1 UNK         0.0600 
    149 H149        0.6332  -21.0843  -42.8180 H         1 UNK         0.3000 
    150 H150       -1.7805  -19.0179  -44.2487 H         1 UNK         0.0600 
    151 H151       -2.9427  -19.3136  -42.0524 H         1 UNK         0.0600 
    152 H152       -2.0104  -17.8265  -42.1044 H         1 UNK         0.0600 
    153 H153       -1.3939  -19.2232  -41.2199 H         1 UNK         0.0600 
    154 H154        0.4070  -18.2609  -42.6609 H         1 UNK         0.3000 
    155 H155        3.1208  -19.1622  -44.5883 H         1 UNK         0.0600 
    156 H156        2.4769  -17.6505  -46.4042 H         1 UNK         0.0600 
    157 H157        3.5391  -16.7770  -45.3090 H         1 UNK         0.0600 
    158 H158        1.7982  -16.4939  -45.2745 H         1 UNK         0.0600 
    159 H159        2.7127  -16.8559  -42.9193 H         1 UNK         0.3000 
    160 H160        2.5792  -18.4961  -39.8254 H         1 UNK         0.0600 
    161 H161        5.1746  -17.2776  -40.9177 H         1 UNK         0.0600 
    162 H162        5.0267  -18.8756  -40.1955 H         1 UNK         0.0600 
    163 H163        4.7453  -17.4465  -39.2148 H         1 UNK         0.0600 
    164 H164        3.2492  -15.8071  -40.4175 H         1 UNK         0.3000 
    165 H165        0.2024  -14.5885  -41.5873 H         1 UNK         0.0600 
    166 H166        0.0537  -13.1556  -39.6089 H         1 UNK         0.0600 
    167 H167       -0.4111  -14.7866  -39.1595 H         1 UNK         0.0600 
    168 H168        1.1825  -14.1799  -38.7205 H         1 UNK         0.0600 
    169 H169        2.4215  -13.1597  -40.5990 H         1 UNK         0.3000 
    170 H170        4.8886  -13.7092  -42.5749 H         1 UNK         0.0600 
    171 H171        3.0679  -11.9149  -44.2548 H         1 UNK         0.0600 
    172 H172        4.8265  -11.8036  -44.2184 H         1 UNK         0.0600 
    173 H173        4.0584  -13.2586  -44.8213 H         1 UNK         0.0600 
    174 H174        3.4674  -11.2033  -41.8554 H         1 UNK         0.3000 
    175 H175        4.7259  -11.0979  -38.6249 H         1 UNK         0.0600 
    176 H176        6.0694   -9.4904  -40.8653 H         1 UNK         0.0600 
    177 H177        5.9977   -9.0319  -39.1630 H         1 UNK         0.0600 
    178 H178        6.9079  -10.4511  -39.6531 H         1 UNK         0.0600 
    179 H179        3.7077   -9.0365  -40.3459 H         1 UNK         0.3000 
    180 H180        0.7120   -8.9989  -39.0612 H         1 UNK         0.0600 
    181 H181        0.7880   -7.4254  -40.9960 H         1 UNK         0.0600 
    182 H182        2.1209   -8.3246  -41.7065 H         1 UNK         0.0600 
    183 H183        2.3305   -7.4827  -40.1696 H         1 UNK         0.0600 
    184 H184       -0.8115   -9.9726  -40.3320 H         1 UNK         0.3000 
    185 H185       -1.6569  -11.6564  -41.6556 H         1 UNK         0.0600 
    186 H186       -2.0486   -9.3912  -42.7054 H         1 UNK         0.0600 
    187 H187       -1.2029   -9.9161  -44.1571 H         1 UNK         0.0600 
    188 H188       -2.7289  -10.6689  -43.6982 H         1 UNK         0.0600 
    189 H189        0.2933  -12.4662  -43.6131 H         1 UNK         0.3000 
    190 H190       -1.2863  -20.8706  -46.5750 H         1 UNK         0.3000 
    191 H191       -3.2449  -21.1688  -48.5851 H         1 UNK         0.0600 
    192 H192       -4.6250  -19.7133  -47.1331 H         1 UNK         0.0600 
    193 H193       -2.9722  -19.1265  -47.1862 H         1 UNK         0.0600 
    194 H194       -3.5517  -19.9973  -45.7699 H         1 UNK         0.0600 
    195 H195       -2.9740  -22.6857  -45.3725 H         1 UNK         0.3000 
    196 H196       -5.5077  -24.0435  -45.4601 H         1 UNK         0.0600 
    197 H197       -4.3925  -23.4998  -43.3302 H         1 UNK         0.0600 
    198 H198       -3.0157  -24.5167  -43.7425 H         1 UNK         0.0600 
    199 H199       -4.5959  -25.2401  -43.4656 H         1 UNK         0.0600 
    200 H200       -2.1073  -25.2563  -45.8939 H         1 UNK         0.3000 
    201 H201       -3.0780  -27.9279  -46.3948 H         1 UNK         0.0600 
    202 H202       -1.0101  -27.4629  -45.0982 H         1 UNK         0.0600 
    203 H203       -0.2398  -26.7979  -46.5376 H         1 UNK         0.0600 
    204 H204       -0.6833  -28.4980  -46.4802 H         1 UNK         0.0600 
    205 H205       -1.4848  -25.4446  -48.4681 H         1 UNK         0.3000 
    206 H206       -1.5867  -27.2945  -50.8014 H         1 UNK         0.0600 
    207 H207       -0.1356  -24.6231  -50.4147 H         1 UNK         0.0600 
    208 H208        0.5906  -26.2214  -50.2764 H         1 UNK         0.0600 
    209 H209       -0.0298  -25.6693  -51.8239 H         1 UNK         0.0600 
    210 H210       -2.5920  -24.0582  -49.7292 H         1 UNK         0.3000 
    211 H211       -4.1315  -22.5967  -50.3147 H         1 UNK         0.0600 
    212 H212       -5.6299  -24.8961  -51.6785 H         1 UNK         0.0600 
    213 H213       -6.3210  -23.3790  -51.1195 H         1 UNK         0.0600 
    214 H214       -5.6943  -24.5309  -49.9537 H         1 UNK         0.0600 
    215 H215       -1.9921  -23.4787  -52.3884 H         1 UNK         0.3000 
    216 H216       -1.2524  -23.0774  -54.4508 H         1 UNK         0.0600 
    217 H217       -1.6881  -20.7834  -55.3980 H         1 UNK         0.0600 
    218 H218       -1.2366  -20.7370  -53.7043 H         1 UNK         0.0600 
    219 H219       -2.9208  -20.5330  -54.1667 H         1 UNK         0.0600 
    220 H220       -3.1680  -24.9291  -54.4226 H         1 UNK         0.3000 
    221 H221       -5.5489  -24.6269  -55.6513 H         1 UNK         0.0600 
    222 H222       -5.5051  -27.1258  -55.8944 H         1 UNK         0.0600 
    223 H223       -3.7690  -27.1168  -55.6038 H         1 UNK         0.0600 
    224 H224       -4.8844  -26.5996  -54.3394 H         1 UNK         0.0600 
    225 H225       -2.5707  -24.7676  -57.4479 H         1 UNK         0.3000 
    226 H226       -3.6174  -25.5421  -60.0078 H         1 UNK         0.0600 
    227 H227       -1.1961  -25.6305  -59.4698 H         1 UNK         0.0600 
    228 H228       -1.4711  -24.5739  -60.8455 H         1 UNK         0.0600 
    229 H229       -1.1506  -23.8791  -59.2610 H         1 UNK         0.0600 
    230 H230       -3.5340  -22.4823  -58.2402 H         1 UNK         0.3000 
    231 H231       -4.8449  -21.0324  -60.5187 H         1 UNK         0.0600 
    232 H232       -3.9815  -18.9842  -59.3877 H         1 UNK         0.0600 
    233 H233       -2.6598  -20.0592  -59.8183 H         1 UNK         0.0600 
    234 H234       -3.2143  -19.9680  -58.1469 H         1 UNK         0.0600 
    235 H235       -5.1542  -22.2166  -57.2844 H         1 UNK         0.3000 
    236 H236       -6.6859  -22.2625  -55.7113 H         1 UNK         0.0600 
    237 H237       -8.6855  -20.8134  -57.5220 H         1 UNK         0.0600 
    238 H238       -8.4689  -22.5630  -57.4588 H         1 UNK         0.0600 
    239 H239       -9.0382  -21.6922  -56.0438 H         1 UNK         0.0600 
    240 H240       -4.6789  -20.3562  -55.9232 H         1 UNK         0.3000 
    241 H241       -3.8134  -18.5925  -55.0058 H         1 UNK         0.0600 
    242 H242       -5.4057  -15.2142  -55.4209 H         1 UNK         0.3800 
    243 H243       -4.7947  -16.0397  -54.0099 H         1 UNK         0.3800 
    244 H244       -5.3267  -19.5525  -52.9617 H         1 UNK         0.0800 
    245 H245       -6.0965  -18.0065  -53.0863 H         1 UNK         0.0800 
    246 H246       -4.2054  -19.3031  -50.5186 H         1 UNK         0.0800 
    247 H247       -3.2697  -20.0793  -51.7772 H         1 UNK         0.0800 
@<TRIPOS>BOND
     1    1    2 1    
     2    1  127 1    
     3    1  128 1    
     4    1  129 1    
     5    2    3 2    
     6    2    4 am   BACKBONE|DICT|INTERRES
     7    4    5 1    
     8    4  130 1    
     9    5    6 1    
    10    5   65 1    
    11    5  131 1    
    12    6    7 1    
    13    6  132 1    
    14    6  133 1    
    15    7    8 1    
    16    8    9 1    
    17    8  134 1    
    18    8  135 1    
    19    9   10 ar   
    20    9   14 ar   
    21   10   11 ar   
    22   10  136 1    
    23   11   12 ar   
    24   11  126 1    
    25   12   13 ar   
    26   12  137 1    
    27   13   14 ar   
    28   13   15 1    
    29   14  138 1    
    30   15   16 1    
    31   15  139 1    
    32   15  140 1    
    33   16   17 1    
    34   17   18 1    
    35   17  141 1    
    36   17  142 1    
    37   18   19 1    
    38   18   67 1    
    39   18  143 1    
    40   19   20 am   BACKBONE|DICT|INTERRES
    41   19  144 1    
    42   20   21 2    
    43   20   22 1    
    44   22   23 1    
    45   22   24 1    
    46   22  145 1    
    47   23  146 1    
    48   23  147 1    
    49   23  148 1    
    50   24   25 am   BACKBONE|DICT|INTERRES
    51   24  149 1    
    52   25   26 2    
    53   25   27 1    
    54   27   28 1    
    55   27   29 1    
    56   27  150 1    
    57   28  151 1    
    58   28  152 1    
    59   28  153 1    
    60   29   30 am   BACKBONE|DICT|INTERRES
    61   29  154 1    
    62   30   31 2    
    63   30   32 1    
    64   32   33 1    
    65   32   34 1    
    66   32  155 1    
    67   33  156 1    
    68   33  157 1    
    69   33  158 1    
    70   34   35 am   BACKBONE|DICT|INTERRES
    71   34  159 1    
    72   35   36 2    
    73   35   37 1    
    74   37   38 1    
    75   37   39 1    
    76   37  160 1    
    77   38  161 1    
    78   38  162 1    
    79   38  163 1    
    80   39   40 am   BACKBONE|DICT|INTERRES
    81   39  164 1    
    82   40   41 2    
    83   40   42 1    
    84   42   43 1    
    85   42   44 1    
    86   42  165 1    
    87   43  166 1    
    88   43  167 1    
    89   43  168 1    
    90   44   45 am   BACKBONE|DICT|INTERRES
    91   44  169 1    
    92   45   46 2    
    93   45   47 1    
    94   47   48 1    
    95   47   49 1    
    96   47  170 1    
    97   48  171 1    
    98   48  172 1    
    99   48  173 1    
   100   49   50 am   BACKBONE|DICT|INTERRES
   101   49  174 1    
   102   50   51 2    
   103   50   52 1    
   104   52   53 1    
   105   52   54 1    
   106   52  175 1    
   107   53  176 1    
   108   53  177 1    
   109   53  178 1    
   110   54   55 am   BACKBONE|DICT|INTERRES
   111   54  179 1    
   112   55   56 2    
   113   55   57 1    
   114   57   58 1    
   115   57   59 1    
   116   57  180 1    
   117   58  181 1    
   118   58  182 1    
   119   58  183 1    
   120   59   60 am   BACKBONE|DICT|INTERRES
   121   59  184 1    
   122   60   61 2    
   123   60   62 1    
   124   62   63 1    
   125   62   64 1    
   126   62  185 1    
   127   63  186 1    
   128   63  187 1    
   129   63  188 1    
   130   64   65 am   BACKBONE|DICT|INTERRES
   131   64  189 1    
   132   65   66 2    
   133   67   68 2    
   134   67   69 am   BACKBONE|DICT|INTERRES
   135   69   70 1    
   136   69  190 1    
   137   70   71 1    
   138   70   72 1    
   139   70  191 1    
   140   71  192 1    
   141   71  193 1    
   142   71  194 1    
   143   72   73 2    
   144   72   74 am   BACKBONE|DICT|INTERRES
   145   74   75 1    
   146   74  195 1    
   147   75   76 1    
   148   75   77 1    
   149   75  196 1    
   150   76  197 1    
   151   76  198 1    
   152   76  199 1    
   153   77   78 2    
   154   77   79 am   BACKBONE|DICT|INTERRES
   155   79   80 1    
   156   79  200 1    
   157   80   81 1    
   158   80   82 1    
   159   80  201 1    
   160   81  202 1    
   161   81  203 1    
   162   81  204 1    
   163   82   83 2    
   164   82   84 am   BACKBONE|DICT|INTERRES
   165   84   85 1    
   166   84  205 1    
   167   85   86 1    
   168   85   87 1    
   169   85  206 1    
   170   86  207 1    
   171   86  208 1    
   172   86  209 1    
   173   87   88 2    
   174   87   89 am   BACKBONE|DICT|INTERRES
   175   89   90 1    
   176   89  210 1    
   177   90   91 1    
   178   90   92 1    
   179   90  211 1    
   180   91  212 1    
   181   91  213 1    
   182   91  214 1    
   183   92   93 2    
   184   92   94 am   BACKBONE|DICT|INTERRES
   185   94   95 1    
   186   94  215 1    
   187   95   96 1    
   188   95   97 1    
   189   95  216 1    
   190   96  217 1    
   191   96  218 1    
   192   96  219 1    
   193   97   98 2    
   194   97   99 am   BACKBONE|DICT|INTERRES
   195   99  100 1    
   196   99  220 1    
   197  100  101 1    
   198  100  102 1    
   199  100  221 1    
   200  101  222 1    
   201  101  223 1    
   202  101  224 1    
   203  102  103 2    
   204  102  104 am   BACKBONE|DICT|INTERRES
   205  104  105 1    
   206  104  225 1    
   207  105  106 1    
   208  105  107 1    
   209  105  226 1    
   210  106  227 1    
   211  106  228 1    
   212  106  229 1    
   213  107  108 2    
   214  107  109 am   BACKBONE|DICT|INTERRES
   215  109  110 1    
   216  109  230 1    
   217  110  111 1    
   218  110  112 1    
   219  110  231 1    
   220  111  232 1    
   221  111  233 1    
   222  111  234 1    
   223  112  113 2    
   224  112  114 am   BACKBONE|DICT|INTERRES
   225  114  115 1    
   226  114  235 1    
   227  115  116 1    
   228  115  117 1    
   229  115  236 1    
   230  116  237 1    
   231  116  238 1    
   232  116  239 1    
   233  117  118 2    
   234  117  119 am   BACKBONE|DICT|INTERRES
   235  119  120 1    
   236  119  240 1    
   237  120  121 1    
   238  120  124 1    
   239  120  241 1    
   240  121  122 am   BACKBONE|DICT|INTERRES
   241  121  123 2    
   242  122  242 1    
   243  122  243 1    
   244  124  125 1    
   245  124  244 1    
   246  124  245 1    
   247  125  126 1    
   248  126  246 1    
   249  126  247 1    
@<TRIPOS>SUBSTRUCTURE
     1 UNK         1 GROUP             0       ****    0 ROOT    
