@<TRIPOS>MOLECULE
3R540
247   249    1
SMALL
USER_CHARGES


@<TRIPOS>ATOM
      1 CA          0.9226  -13.1172  -42.4686 C.3       0 UNK        -0.1800 
      2 C           0.6885  -13.5478  -43.9095 C.2       0 UNK         0.5000 
      3 O           0.7948  -14.7364  -44.2135 O.2       0 UNK        -0.5000 
      4 N           0.3658  -12.5898  -44.7934 N.am      1 UNK        -0.5000 
      5 CA          0.1144  -12.7931  -46.2280 C.3       1 UNK         0.1400 
      6 C6         -1.1239  -13.7109  -46.4520 C.3       23 UNK        -0.0398 
      7 S7         -1.8817  -13.6441  -48.1139 S.3       23 UNK        -0.2404 
      8 C8         -1.8408  -15.4148  -48.5196 C.3       23 UNK        -0.0205 
      9 C9         -2.6967  -15.7714  -49.7198 C.ar      23 UNK        -0.0193 
     10 C10        -2.1260  -15.9013  -50.9878 C.ar      23 UNK        -0.1150 
     11 C11        -2.8866  -16.3744  -52.0620 C.ar      23 UNK        -0.0193 
     12 C12        -4.2320  -16.7017  -51.8595 C.ar      23 UNK        -0.1150 
     13 C13        -4.8162  -16.5597  -50.5971 C.ar      23 UNK        -0.0193 
     14 C14        -4.0486  -16.0677  -49.5392 C.ar      23 UNK        -0.1150 
     15 C15        -6.2644  -16.9670  -50.3667 C.3       23 UNK        -0.0205 
     16 S16        -6.3971  -18.6750  -49.7372 S.3       23 UNK        -0.2404 
     17 C17        -5.9177  -18.4883  -47.9847 C.3       23 UNK        -0.0398 
     18 CA         -4.4514  -18.9045  -47.6904 C.3       11 UNK         0.1400 
     19 N          -3.9206  -18.1765  -46.5317 N.am      11 UNK        -0.5000 
     20 C          -2.6852  -18.2714  -46.0198 C.2       10 UNK         0.5000 
     21 O          -1.8179  -19.0285  -46.4567 O.2       10 UNK        -0.5000 
     22 CA         -2.3659  -17.3941  -44.7927 C.3       10 UNK         0.1400 
     23 CB         -3.3694  -16.2424  -44.5660 C.3       10 UNK        -0.1800 
     24 N          -2.2250  -18.1827  -43.5669 N.am      10 UNK        -0.5000 
     25 C          -3.0787  -19.0886  -43.0688 C.2       9 UNK         0.5000 
     26 O          -4.1160  -19.4532  -43.6268 O.2       9 UNK        -0.5000 
     27 CA         -2.6544  -19.7073  -41.7305 C.3       9 UNK         0.1400 
     28 CB         -3.7668  -20.5189  -41.0436 C.3       9 UNK        -0.1800 
     29 N          -1.4992  -20.5694  -41.9765 N.am      9 UNK        -0.5000 
     30 C          -0.3618  -20.6805  -41.2771 C.2       8 UNK         0.5000 
     31 O           0.5493  -21.4082  -41.6704 O.2       8 UNK        -0.5000 
     32 CA         -0.1456  -19.8870  -39.9662 C.3       8 UNK         0.1400 
     33 CB          0.2982  -20.8225  -38.8293 C.3       8 UNK        -0.1800 
     34 N           0.8792  -18.8615  -40.1481 N.am      8 UNK        -0.5000 
     35 C           0.8228  -17.8189  -40.9852 C.2       7 UNK         0.5000 
     36 O          -0.1677  -17.5362  -41.6598 O.2       7 UNK        -0.5000 
     37 CA          2.0941  -16.9606  -41.1200 C.3       7 UNK         0.1400 
     38 CB          2.2344  -15.9557  -39.9627 C.3       7 UNK        -0.1800 
     39 N           3.3212  -17.7423  -41.3177 N.am      7 UNK        -0.5000 
     40 C           3.9666  -18.5687  -40.4803 C.2       6 UNK         0.5000 
     41 O           3.6121  -18.7850  -39.3209 O.2       6 UNK        -0.5000 
     42 CA          5.2034  -19.2969  -41.0382 C.3       6 UNK         0.1400 
     43 CB          4.7816  -20.6281  -41.6801 C.3       6 UNK        -0.1800 
     44 N           5.8950  -18.4848  -42.0406 N.am      6 UNK        -0.5000 
     45 C           7.1296  -17.9791  -41.9193 C.2       5 UNK         0.5000 
     46 O           7.8846  -18.2246  -40.9776 O.2       5 UNK        -0.5000 
     47 CA          7.5951  -17.0116  -43.0309 C.3       5 UNK         0.1400 
     48 CB          8.3085  -17.7825  -44.1518 C.3       5 UNK        -0.1800 
     49 N           6.4984  -16.2304  -43.6108 N.am      5 UNK        -0.5000 
     50 C           5.7481  -15.3530  -42.9308 C.2       4 UNK         0.5000 
     51 O           6.0040  -14.9965  -41.7801 O.2       4 UNK        -0.5000 
     52 CA          4.4827  -14.7929  -43.6154 C.3       4 UNK         0.1400 
     53 CB          4.7065  -13.3270  -44.0176 C.3       4 UNK        -0.1800 
     54 N           3.9356  -15.5302  -44.7669 N.am      4 UNK        -0.5000 
     55 C           3.6496  -16.8408  -44.8401 C.2       3 UNK         0.5000 
     56 O           3.9897  -17.6558  -43.9836 O.2       3 UNK        -0.5000 
     57 CA          2.8226  -17.3496  -46.0370 C.3       3 UNK         0.1400 
     58 CB          1.5881  -18.1161  -45.5313 C.3       3 UNK        -0.1800 
     59 N           2.3730  -16.2814  -46.9275 N.am      3 UNK        -0.5000 
     60 C           3.0627  -15.7847  -47.9640 C.2       2 UNK         0.5000 
     61 O           4.1764  -16.1899  -48.2960 O.2       2 UNK        -0.5000 
     62 CA          2.4038  -14.6342  -48.7578 C.3       2 UNK         0.1400 
     63 CB          1.9064  -15.1345  -50.1230 C.3       2 UNK        -0.1800 
     64 N           1.2863  -14.0044  -48.0453 N.am      2 UNK        -0.5000 
     65 C           1.4116  -13.2453  -46.9504 C.2       1 UNK         0.5000 
     66 O           2.5110  -12.9161  -46.5007 O.2       1 UNK        -0.5000 
     67 C          -4.3184  -20.4359  -47.5655 C.2       11 UNK         0.5000 
     68 O          -4.0706  -21.1043  -48.5703 O.2       11 UNK        -0.5000 
     69 N          -4.4374  -20.9654  -46.3386 N.am      12 UNK        -0.5000 
     70 CA         -4.2883  -22.3905  -46.0357 C.3       12 UNK         0.1400 
     71 CB         -4.7074  -22.6477  -44.5818 C.3       12 UNK        -0.1800 
     72 C          -2.8640  -22.9232  -46.2833 C.2       12 UNK         0.5000 
     73 O          -2.7111  -24.1040  -46.5946 O.2       12 UNK        -0.5000 
     74 N          -1.8597  -22.0479  -46.1487 N.am      13 UNK        -0.5000 
     75 CA         -0.4495  -22.3667  -46.3506 C.3       13 UNK         0.1400 
     76 CB          0.3767  -21.6904  -45.2464 C.3       13 UNK        -0.1800 
     77 C           0.0327  -21.9288  -47.7419 C.2       13 UNK         0.5000 
     78 O           0.7147  -22.7018  -48.4149 O.2       13 UNK        -0.5000 
     79 N          -0.3207  -20.7015  -48.1476 N.am      14 UNK        -0.5000 
     80 CA          0.1331  -20.0824  -49.3929 C.3       14 UNK         0.1400 
     81 CB         -0.1606  -18.5748  -49.3468 C.3       14 UNK        -0.1800 
     82 C          -0.4996  -20.6966  -50.6517 C.2       14 UNK         0.5000 
     83 O           0.1963  -20.8782  -51.6514 O.2       14 UNK        -0.5000 
     84 N          -1.8064  -20.9767  -50.5848 N.am      15 UNK        -0.5000 
     85 CA         -2.6325  -21.3174  -51.7417 C.3       15 UNK         0.1400 
     86 CB         -3.6233  -20.1689  -51.9646 C.3       15 UNK        -0.1800 
     87 C          -3.3822  -22.6452  -51.5745 C.2       15 UNK         0.5000 
     88 O          -4.2293  -22.9536  -52.4159 O.2       15 UNK        -0.5000 
     89 N          -3.0945  -23.3883  -50.4963 N.am      16 UNK        -0.5000 
     90 CA         -3.7449  -24.6425  -50.0995 C.3       16 UNK         0.1400 
     91 CB         -3.3863  -25.7710  -51.0896 C.3       16 UNK        -0.1800 
     92 C          -5.2671  -24.4772  -49.8929 C.2       16 UNK         0.5000 
     93 O          -6.0465  -25.3281  -50.3205 O.2       16 UNK        -0.5000 
     94 N          -5.6572  -23.3504  -49.2779 N.am      17 UNK        -0.5000 
     95 CA         -7.0320  -22.8827  -49.0646 C.3       17 UNK         0.1400 
     96 CB         -7.8187  -23.8401  -48.1454 C.3       17 UNK        -0.1800 
     97 C          -7.7440  -22.5759  -50.3979 C.2       17 UNK         0.5000 
     98 O          -8.9036  -22.9437  -50.5904 O.2       17 UNK        -0.5000 
     99 N          -7.0003  -21.9144  -51.2962 N.am      18 UNK        -0.5000 
    100 CA        -7.3690  -21.4955  -52.6522 C.3       18 UNK         0.1400 
    101 CB        -8.5874  -20.5495  -52.6403 C.3       18 UNK        -0.1800 
    102 C         -7.5227  -22.6546  -53.6601 C.2       18 UNK         0.5000 
    103 O         -8.0167  -22.4257  -54.7648 O.2       18 UNK        -0.5000 
    104 N         -7.0686  -23.8635  -53.2989 N.am      19 UNK        -0.5000 
    105 CA        -7.0417  -25.0283  -54.1850 C.3       19 UNK         0.1400 
    106 CB        -6.9139  -26.3118  -53.3524 C.3       19 UNK        -0.1800 
    107 C         -5.9084  -24.9383  -55.2228 C.2       19 UNK         0.5000 
    108 O         -6.1144  -25.3154  -56.3770 O.2       19 UNK        -0.5000 
    109 N         -4.7440  -24.4255  -54.8010 N.am      20 UNK        -0.5000 
    110 CA        -3.5970  -24.1532  -55.6691 C.3       20 UNK         0.1400 
    111 CB        -2.2974  -24.4261  -54.8956 C.3       20 UNK        -0.1800 
    112 C         -3.6168  -22.7064  -56.1935 C.2       20 UNK         0.5000 
    113 O         -3.0286  -22.4378  -57.2418 O.2       20 UNK        -0.5000 
    114 N         -4.2753  -21.7996  -55.4514 N.am      21 UNK        -0.5000 
    115 CA        -4.5199  -20.3852  -55.7803 C.3       21 UNK         0.1400 
    116 CB        -5.4978  -20.2827  -56.9685 C.3       21 UNK        -0.1800 
    117 C         -3.2362  -19.5495  -55.9987 C.2       21 UNK         0.5000 
    118 O         -3.2770  -18.5368  -56.6988 O.2       21 UNK        -0.5000 
    119 N         -2.1209  -20.0024  -55.4093 N.am      22 UNK        -0.5000 
    120 CA        -0.7508  -19.4970  -55.6161 C.3       22 UNK         0.1400 
    121 C         -0.1837  -19.7559  -57.0483 C.2       22 UNK         0.5000 
    122 N         -0.7561  -20.6548  -57.8420 N.am      22 UNK        -0.7600 
    123 O          0.8142  -19.1582  -57.4429 O.2       22 UNK        -0.5000 
    124 C124       -0.5420  -18.0282  -55.1448 C.3       23 UNK        -0.0398 
    125 S125       -0.9134  -17.8053  -53.3732 S.3       23 UNK        -0.2404 
    126 C126       -2.2452  -16.5648  -53.4296 C.3       23 UNK        -0.0205 
    127 H127        0.6933  -12.0620  -42.3190 H         1 UNK         0.0600 
    128 H128        1.9622  -13.2828  -42.1886 H         1 UNK         0.0600 
    129 H129        0.2917  -13.7005  -41.7979 H         1 UNK         0.0600 
    130 H130        0.3323  -11.6288  -44.4835 H         1 UNK         0.3000 
    131 H131       -0.1234  -11.8075  -46.6305 H         1 UNK         0.0600 
    132 H132       -1.9114  -13.4207  -45.7548 H         1 UNK         0.0800 
    133 H133       -0.8809  -14.7410  -46.1907 H         1 UNK         0.0800 
    134 H134       -0.8140  -15.7381  -48.6840 H         1 UNK         0.0800 
    135 H135       -2.1983  -15.9831  -47.6628 H         1 UNK         0.0800 
    136 H136       -1.0788  -15.6778  -51.1337 H         1 UNK         0.1150 
    137 H137       -4.8203  -17.0900  -52.6789 H         1 UNK         0.1150 
    138 H138       -4.4883  -15.9622  -48.5584 H         1 UNK         0.1150 
    139 H139       -6.7507  -16.2733  -49.6794 H         1 UNK         0.0800 
    140 H140       -6.8193  -16.8998  -51.3036 H         1 UNK         0.0800 
    141 H141       -6.6186  -19.0567  -47.3703 H         1 UNK         0.0800 
    142 H142       -6.0833  -17.4480  -47.7042 H         1 UNK         0.0800 
    143 H143       -3.8274  -18.6146  -48.5374 H         1 UNK         0.0600 
    144 H144       -4.5702  -17.5661  -46.0580 H         1 UNK         0.3000 
    145 H145       -1.3916  -16.9450  -44.9868 H         1 UNK         0.0600 
    146 H146       -3.4841  -15.6299  -45.4614 H         1 UNK         0.0600 
    147 H147       -4.3565  -16.6055  -44.2774 H         1 UNK         0.0600 
    148 H148       -3.0206  -15.5808  -43.7728 H         1 UNK         0.0600 
    149 H149       -1.3964  -17.9755  -43.0121 H         1 UNK         0.3000 
    150 H150       -2.4126  -18.8569  -41.0956 H         1 UNK         0.0600 
    151 H151       -4.6613  -19.9116  -40.8995 H         1 UNK         0.0600 
    152 H152       -3.4487  -20.8670  -40.0609 H         1 UNK         0.0600 
    153 H153       -4.0532  -21.3927  -41.6287 H         1 UNK         0.0600 
    154 H154       -1.5609  -21.0964  -42.8346 H         1 UNK         0.3000 
    155 H155       -1.0578  -19.4050  -39.6236 H         1 UNK         0.0600 
    156 H156        1.2525  -21.3039  -39.0479 H         1 UNK         0.0600 
    157 H157       -0.4379  -21.6099  -38.6631 H         1 UNK         0.0600 
    158 H158        0.4084  -20.2776  -37.8914 H         1 UNK         0.0600 
    159 H159        1.7607  -19.0105  -39.6653 H         1 UNK         0.3000 
    160 H160        1.9713  -16.3804  -42.0361 H         1 UNK         0.0600 
    161 H161        3.0996  -15.3087  -40.1083 H         1 UNK         0.0600 
    162 H162        2.3446  -16.4526  -38.9987 H         1 UNK         0.0600 
    163 H163        1.3550  -15.3138  -39.8989 H         1 UNK         0.0600 
    164 H164        3.6590  -17.7165  -42.2774 H         1 UNK         0.3000 
    165 H165        5.8633  -19.5144  -40.1961 H         1 UNK         0.0600 
    166 H166        5.6489  -21.1862  -42.0330 H         1 UNK         0.0600 
    167 H167        4.2567  -21.2603  -40.9626 H         1 UNK         0.0600 
    168 H168        4.1149  -20.4724  -42.5297 H         1 UNK         0.0600 
    169 H169        5.3467  -18.2143  -42.8526 H         1 UNK         0.3000 
    170 H170        8.3077  -16.3139  -42.5862 H         1 UNK         0.0600 
    171 H171        9.1467  -18.3583  -43.7571 H         1 UNK         0.0600 
    172 H172        7.6357  -18.4814  -44.6505 H         1 UNK         0.0600 
    173 H173        8.7080  -17.1037  -44.9055 H         1 UNK         0.0600 
    174 H174        6.2122  -16.4729  -44.5479 H         1 UNK         0.3000 
    175 H175        3.7064  -14.8093  -42.8496 H         1 UNK         0.0600 
    176 H176        5.3466  -13.2450  -44.8966 H         1 UNK         0.0600 
    177 H177        3.7622  -12.8320  -44.2386 H         1 UNK         0.0600 
    178 H178        5.1766  -12.7586  -43.2137 H         1 UNK         0.0600 
    179 H179        3.5985  -14.9490  -45.5220 H         1 UNK         0.3000 
    180 H180        3.4510  -18.0469  -46.5945 H         1 UNK         0.0600 
    181 H181        0.9384  -17.4788  -44.9310 H         1 UNK         0.0600 
    182 H182        1.8802  -18.9601  -44.9055 H         1 UNK         0.0600 
    183 H183        1.0001  -18.5183  -46.3547 H         1 UNK         0.0600 
    184 H184        1.4902  -15.8540  -46.6913 H         1 UNK         0.3000 
    185 H185        3.1699  -13.8757  -48.9318 H         1 UNK         0.0600 
    186 H186        1.1643  -15.9246  -50.0180 H         1 UNK         0.0600 
    187 H187        1.4593  -14.3270  -50.7031 H         1 UNK         0.0600 
    188 H188        2.7297  -15.5391  -50.7130 H         1 UNK         0.0600 
    189 H189        0.3572  -14.1762  -48.4048 H         1 UNK         0.3000 
    190 H190       -4.5813  -20.3479  -45.5465 H         1 UNK         0.3000 
    191 H191       -4.9686  -22.9470  -46.6806 H         1 UNK         0.0600 
    192 H192       -4.0299  -22.1624  -43.8799 H         1 UNK         0.0600 
    193 H193       -4.7003  -23.7150  -44.3572 H         1 UNK         0.0600 
    194 H194       -5.7151  -22.2803  -44.3871 H         1 UNK         0.0600 
    195 H195       -2.0811  -21.0772  -45.9650 H         1 UNK         0.3000 
    196 H196       -0.2880  -23.4439  -46.2704 H         1 UNK         0.0600 
    197 H197        0.1666  -22.1410  -44.2770 H         1 UNK         0.0600 
    198 H198        0.1563  -20.6258  -45.1717 H         1 UNK         0.0600 
    199 H199        1.4470  -21.7976  -45.4274 H         1 UNK         0.0600 
    200 H200       -0.8738  -20.1144  -47.5265 H         1 UNK         0.3000 
    201 H201        1.2147  -20.2139  -49.4666 H         1 UNK         0.0600 
    202 H202        0.3932  -18.0842  -48.5480 H         1 UNK         0.0600 
    203 H203       -1.2221  -18.3785  -49.1922 H         1 UNK         0.0600 
    204 H204        0.1260  -18.0939  -50.2828 H         1 UNK         0.0600 
    205 H205       -2.3049  -20.8263  -49.7155 H         1 UNK         0.3000 
    206 H206       -2.0226  -21.4216  -52.6404 H         1 UNK         0.0600 
    207 H207       -3.0966  -19.2327  -52.1284 H         1 UNK         0.0600 
    208 H208       -4.2505  -20.3419  -52.8344 H         1 UNK         0.0600 
    209 H209       -4.2774  -20.0345  -51.1053 H         1 UNK         0.0600 
    210 H210       -2.3892  -23.0373  -49.8648 H         1 UNK         0.3000 
    211 H211       -3.3335  -24.9145  -49.1271 H         1 UNK         0.0600 
    212 H212       -3.7830  -25.5813  -52.0867 H         1 UNK         0.0600 
    213 H213       -3.7867  -26.7285  -50.7548 H         1 UNK         0.0600 
    214 H214       -2.3062  -25.8857  -51.1785 H         1 UNK         0.0600 
    215 H215       -4.9352  -22.6802  -49.0228 H         1 UNK         0.3000 
    216 H216       -6.9505  -21.9283  -48.5425 H         1 UNK         0.0600 
    217 H217       -8.7876  -23.4150  -47.8812 H         1 UNK         0.0600 
    218 H218       -7.2815  -24.0244  -47.2152 H         1 UNK         0.0600 
    219 H219       -8.0062  -24.8026  -48.6216 H         1 UNK         0.0600 
    220 H220       -6.0489  -21.7029  -51.0327 H         1 UNK         0.3000 
    221 H221       -6.5228  -20.9120  -53.0134 H         1 UNK         0.0600 
    222 H222       -9.5061  -21.0721  -52.3739 H         1 UNK         0.0600 
    223 H223       -8.4464  -19.7333  -51.9318 H         1 UNK         0.0600 
    224 H224       -8.7432  -20.1001  -53.6216 H         1 UNK         0.0600 
    225 H225       -6.6610  -23.9756  -52.3804 H         1 UNK         0.3000 
    226 H226       -7.9900  -25.0736  -54.7251 H         1 UNK         0.0600 
    227 H227       -7.7129  -26.3857  -52.6143 H         1 UNK         0.0600 
    228 H228       -6.9742  -27.1955  -53.9887 H         1 UNK         0.0600 
    229 H229       -5.9631  -26.3567  -52.8217 H         1 UNK         0.0600 
    230 H230       -4.6639  -24.1105  -53.8377 H         1 UNK         0.3000 
    231 H231       -3.6184  -24.8205  -56.5332 H         1 UNK         0.0600 
    232 H232       -2.2723  -25.4477  -54.5160 H         1 UNK         0.0600 
    233 H233       -2.1757  -23.7521  -54.0486 H         1 UNK         0.0600 
    234 H234       -1.4275  -24.2979  -55.5410 H         1 UNK         0.0600 
    235 H235       -4.6814  -22.1290  -54.5868 H         1 UNK         0.3000 
    236 H236       -5.0221  -19.9444  -54.9197 H         1 UNK         0.0600 
    237 H237       -5.0484  -20.6440  -57.8939 H         1 UNK         0.0600 
    238 H238       -6.4015  -20.8644  -56.7849 H         1 UNK         0.0600 
    239 H239       -5.8081  -19.2507  -57.1360 H         1 UNK         0.0600 
    240 H240       -2.1908  -20.8500  -54.8692 H         1 UNK         0.3000 
    241 H241       -0.1259  -20.1193  -54.9744 H         1 UNK         0.0600 
    242 H242       -0.3695  -20.8161  -58.7583 H         1 UNK         0.3800 
    243 H243       -1.5731  -21.1820  -57.5483 H         1 UNK         0.3800 
    244 H244       -1.1333  -17.3382  -55.7474 H         1 UNK         0.0800 
    245 H245        0.4975  -17.7279  -55.2839 H         1 UNK         0.0800 
    246 H246       -2.9921  -16.8751  -54.1622 H         1 UNK         0.0800 
    247 H247       -1.8409  -15.6129  -53.7763 H         1 UNK         0.0800 
@<TRIPOS>BOND
     1    1    2 1    
     2    1  127 1    
     3    1  128 1    
     4    1  129 1    
     5    2    3 2    
     6    2    4 am   BACKBONE|DICT|INTERRES
     7    4    5 1    
     8    4  130 1    
     9    5    6 1    
    10    5   65 1    
    11    5  131 1    
    12    6    7 1    
    13    6  132 1    
    14    6  133 1    
    15    7    8 1    
    16    8    9 1    
    17    8  134 1    
    18    8  135 1    
    19    9   10 ar   
    20    9   14 ar   
    21   10   11 ar   
    22   10  136 1    
    23   11   12 ar   
    24   11  126 1    
    25   12   13 ar   
    26   12  137 1    
    27   13   14 ar   
    28   13   15 1    
    29   14  138 1    
    30   15   16 1    
    31   15  139 1    
    32   15  140 1    
    33   16   17 1    
    34   17   18 1    
    35   17  141 1    
    36   17  142 1    
    37   18   19 1    
    38   18   67 1    
    39   18  143 1    
    40   19   20 am   BACKBONE|DICT|INTERRES
    41   19  144 1    
    42   20   21 2    
    43   20   22 1    
    44   22   23 1    
    45   22   24 1    
    46   22  145 1    
    47   23  146 1    
    48   23  147 1    
    49   23  148 1    
    50   24   25 am   BACKBONE|DICT|INTERRES
    51   24  149 1    
    52   25   26 2    
    53   25   27 1    
    54   27   28 1    
    55   27   29 1    
    56   27  150 1    
    57   28  151 1    
    58   28  152 1    
    59   28  153 1    
    60   29   30 am   BACKBONE|DICT|INTERRES
    61   29  154 1    
    62   30   31 2    
    63   30   32 1    
    64   32   33 1    
    65   32   34 1    
    66   32  155 1    
    67   33  156 1    
    68   33  157 1    
    69   33  158 1    
    70   34   35 am   BACKBONE|DICT|INTERRES
    71   34  159 1    
    72   35   36 2    
    73   35   37 1    
    74   37   38 1    
    75   37   39 1    
    76   37  160 1    
    77   38  161 1    
    78   38  162 1    
    79   38  163 1    
    80   39   40 am   BACKBONE|DICT|INTERRES
    81   39  164 1    
    82   40   41 2    
    83   40   42 1    
    84   42   43 1    
    85   42   44 1    
    86   42  165 1    
    87   43  166 1    
    88   43  167 1    
    89   43  168 1    
    90   44   45 am   BACKBONE|DICT|INTERRES
    91   44  169 1    
    92   45   46 2    
    93   45   47 1    
    94   47   48 1    
    95   47   49 1    
    96   47  170 1    
    97   48  171 1    
    98   48  172 1    
    99   48  173 1    
   100   49   50 am   BACKBONE|DICT|INTERRES
   101   49  174 1    
   102   50   51 2    
   103   50   52 1    
   104   52   53 1    
   105   52   54 1    
   106   52  175 1    
   107   53  176 1    
   108   53  177 1    
   109   53  178 1    
   110   54   55 am   BACKBONE|DICT|INTERRES
   111   54  179 1    
   112   55   56 2    
   113   55   57 1    
   114   57   58 1    
   115   57   59 1    
   116   57  180 1    
   117   58  181 1    
   118   58  182 1    
   119   58  183 1    
   120   59   60 am   BACKBONE|DICT|INTERRES
   121   59  184 1    
   122   60   61 2    
   123   60   62 1    
   124   62   63 1    
   125   62   64 1    
   126   62  185 1    
   127   63  186 1    
   128   63  187 1    
   129   63  188 1    
   130   64   65 am   BACKBONE|DICT|INTERRES
   131   64  189 1    
   132   65   66 2    
   133   67   68 2    
   134   67   69 am   BACKBONE|DICT|INTERRES
   135   69   70 1    
   136   69  190 1    
   137   70   71 1    
   138   70   72 1    
   139   70  191 1    
   140   71  192 1    
   141   71  193 1    
   142   71  194 1    
   143   72   73 2    
   144   72   74 am   BACKBONE|DICT|INTERRES
   145   74   75 1    
   146   74  195 1    
   147   75   76 1    
   148   75   77 1    
   149   75  196 1    
   150   76  197 1    
   151   76  198 1    
   152   76  199 1    
   153   77   78 2    
   154   77   79 am   BACKBONE|DICT|INTERRES
   155   79   80 1    
   156   79  200 1    
   157   80   81 1    
   158   80   82 1    
   159   80  201 1    
   160   81  202 1    
   161   81  203 1    
   162   81  204 1    
   163   82   83 2    
   164   82   84 am   BACKBONE|DICT|INTERRES
   165   84   85 1    
   166   84  205 1    
   167   85   86 1    
   168   85   87 1    
   169   85  206 1    
   170   86  207 1    
   171   86  208 1    
   172   86  209 1    
   173   87   88 2    
   174   87   89 am   BACKBONE|DICT|INTERRES
   175   89   90 1    
   176   89  210 1    
   177   90   91 1    
   178   90   92 1    
   179   90  211 1    
   180   91  212 1    
   181   91  213 1    
   182   91  214 1    
   183   92   93 2    
   184   92   94 am   BACKBONE|DICT|INTERRES
   185   94   95 1    
   186   94  215 1    
   187   95   96 1    
   188   95   97 1    
   189   95  216 1    
   190   96  217 1    
   191   96  218 1    
   192   96  219 1    
   193   97   98 2    
   194   97   99 am   BACKBONE|DICT|INTERRES
   195   99  100 1    
   196   99  220 1    
   197  100  101 1    
   198  100  102 1    
   199  100  221 1    
   200  101  222 1    
   201  101  223 1    
   202  101  224 1    
   203  102  103 2    
   204  102  104 am   BACKBONE|DICT|INTERRES
   205  104  105 1    
   206  104  225 1    
   207  105  106 1    
   208  105  107 1    
   209  105  226 1    
   210  106  227 1    
   211  106  228 1    
   212  106  229 1    
   213  107  108 2    
   214  107  109 am   BACKBONE|DICT|INTERRES
   215  109  110 1    
   216  109  230 1    
   217  110  111 1    
   218  110  112 1    
   219  110  231 1    
   220  111  232 1    
   221  111  233 1    
   222  111  234 1    
   223  112  113 2    
   224  112  114 am   BACKBONE|DICT|INTERRES
   225  114  115 1    
   226  114  235 1    
   227  115  116 1    
   228  115  117 1    
   229  115  236 1    
   230  116  237 1    
   231  116  238 1    
   232  116  239 1    
   233  117  118 2    
   234  117  119 am   BACKBONE|DICT|INTERRES
   235  119  120 1    
   236  119  240 1    
   237  120  121 1    
   238  120  124 1    
   239  120  241 1    
   240  121  122 am   BACKBONE|DICT|INTERRES
   241  121  123 2    
   242  122  242 1    
   243  122  243 1    
   244  124  125 1    
   245  124  244 1    
   246  124  245 1    
   247  125  126 1    
   248  126  246 1    
   249  126  247 1    
@<TRIPOS>SUBSTRUCTURE
     1 UNK         1 GROUP             0       ****    0 ROOT    
