@<TRIPOS>MOLECULE
3R540
247   249    1
SMALL
USER_CHARGES


@<TRIPOS>ATOM
      1 CA         -1.6551  -17.9763  -51.9547 C.3       0 UNK        -0.1800 
      2 C          -1.7009  -17.4728  -50.5221 C.2       0 UNK         0.5000 
      3 O          -1.2441  -18.1653  -49.6131 O.2       0 UNK        -0.5000 
      4 N          -2.2329  -16.2611  -50.3222 N.am      1 UNK        -0.5000 
      5 CA         -2.4583  -15.6198  -49.0193 C.3       1 UNK         0.1400 
      6 C6         -3.5869  -14.5479  -49.0742 C.3       23 UNK        -0.0398 
      7 S7         -5.0789  -15.0165  -50.0198 S.3       23 UNK        -0.2404 
      8 C8         -6.0441  -15.9690  -48.8016 C.3       23 UNK        -0.0205 
      9 C9         -5.4960  -17.3736  -48.5836 C.ar      23 UNK        -0.0193 
     10 C10        -5.2275  -18.2061  -49.6766 C.ar      23 UNK        -0.1150 
     11 C11        -4.7089  -19.4887  -49.4875 C.ar      23 UNK        -0.0193 
     12 C12        -4.4943  -19.9464  -48.1875 C.ar      23 UNK        -0.1150 
     13 C13        -4.7757  -19.1397  -47.0841 C.ar      23 UNK        -0.0193 
     14 C14        -5.2718  -17.8491  -47.2871 C.ar      23 UNK        -0.1150 
     15 C15        -4.5664  -19.6854  -45.6799 C.3       23 UNK        -0.0205 
     16 S16        -3.1169  -18.9852  -44.8246 S.3       23 UNK        -0.2404 
     17 C17        -1.7297  -19.1563  -46.0082 C.3       23 UNK        -0.0398 
     18 CA         -0.9724  -20.5109  -45.9786 C.3       11 UNK         0.1400 
     19 N          -0.7409  -21.0287  -44.6218 N.am      11 UNK        -0.5000 
     20 C          -0.0073  -22.1116  -44.3222 C.2       10 UNK         0.5000 
     21 O           0.5314  -22.8107  -45.1804 O.2       10 UNK        -0.5000 
     22 CA          0.1646  -22.4887  -42.8407 C.3       10 UNK         0.1400 
     23 CB          1.6560  -22.5797  -42.4764 C.3       10 UNK        -0.1800 
     24 N          -0.4722  -21.5340  -41.9357 N.am      10 UNK        -0.5000 
     25 C          -1.6621  -21.6920  -41.3428 C.2       9 UNK         0.5000 
     26 O          -2.4177  -22.6349  -41.5825 O.2       9 UNK        -0.5000 
     27 CA         -2.0686  -20.6109  -40.3139 C.3       9 UNK         0.1400 
     28 CB         -3.0746  -21.1277  -39.2651 C.3       9 UNK        -0.1800 
     29 N          -0.9201  -19.9645  -39.6636 N.am      9 UNK        -0.5000 
     30 C           0.0330  -20.5411  -38.9114 C.2       8 UNK         0.5000 
     31 O           0.0060  -21.7232  -38.5667 O.2       8 UNK        -0.5000 
     32 CA          1.2398  -19.6699  -38.5004 C.3       8 UNK         0.1400 
     33 CB          2.5593  -20.3306  -38.9370 C.3       8 UNK        -0.1800 
     34 N           1.1823  -18.3354  -39.0986 N.am      8 UNK        -0.5000 
     35 C           0.8820  -17.2009  -38.4526 C.2       7 UNK         0.5000 
     36 O           0.6779  -17.1381  -37.2398 O.2       7 UNK        -0.5000 
     37 CA          0.7660  -15.9173  -39.3049 C.3       7 UNK         0.1400 
     38 CB          2.0795  -15.1224  -39.2536 C.3       7 UNK        -0.1800 
     39 N           0.4140  -16.1599  -40.7073 N.am      7 UNK        -0.5000 
     40 C          -0.7051  -16.7631  -41.1316 C.2       6 UNK         0.5000 
     41 O          -1.6086  -17.1303  -40.3814 O.2       6 UNK        -0.5000 
     42 CA         -0.7969  -17.0953  -42.6305 C.3       6 UNK         0.1400 
     43 CB         -1.4792  -15.9545  -43.3980 C.3       6 UNK        -0.1800 
     44 N           0.4959  -17.4014  -43.2479 N.am      6 UNK        -0.5000 
     45 C           1.3155  -18.3997  -42.8890 C.2       5 UNK         0.5000 
     46 O           1.0707  -19.1801  -41.9702 O.2       5 UNK        -0.5000 
     47 CA          2.6426  -18.5227  -43.6536 C.3       5 UNK         0.1400 
     48 CB          2.4415  -19.1959  -45.0190 C.3       5 UNK        -0.1800 
     49 N           3.2506  -17.2096  -43.8443 N.am      5 UNK        -0.5000 
     50 C           3.9968  -16.5850  -42.9235 C.2       4 UNK         0.5000 
     51 O           4.3132  -17.0844  -41.8436 O.2       4 UNK        -0.5000 
     52 CA          4.4526  -15.1519  -43.2575 C.3       4 UNK         0.1400 
     53 CB          5.8187  -15.1710  -43.9596 C.3       4 UNK        -0.1800 
     54 N           3.4948  -14.4229  -44.0915 N.am      4 UNK        -0.5000 
     55 C           2.2706  -14.0520  -43.6924 C.2       3 UNK         0.5000 
     56 O           1.8157  -14.2815  -42.5718 O.2       3 UNK        -0.5000 
     57 CA          1.3928  -13.3435  -44.7396 C.3       3 UNK         0.1400 
     58 CB          1.7053  -11.8401  -44.7743 C.3       3 UNK        -0.1800 
     59 N           1.5055  -13.8933  -46.0948 N.am      3 UNK        -0.5000 
     60 C           1.2530  -15.1632  -46.4397 C.2       2 UNK         0.5000 
     61 O           1.0103  -16.0609  -45.6329 O.2       2 UNK        -0.5000 
     62 CA          1.2596  -15.4899  -47.9417 C.3       2 UNK         0.1400 
     63 CB          2.2205  -16.6495  -48.2508 C.3       2 UNK        -0.1800 
     64 N          -0.0781  -15.8445  -48.4130 N.am      2 UNK        -0.5000 
     65 C          -1.1471  -15.0374  -48.4310 C.2       1 UNK         0.5000 
     66 O          -1.1094  -13.8667  -48.0472 O.2       1 UNK        -0.5000 
     67 C          -1.5925  -21.5427  -46.9438 C.2       11 UNK         0.5000 
     68 O          -1.2513  -21.5381  -48.1255 O.2       11 UNK        -0.5000 
     69 N          -2.4440  -22.4372  -46.4224 N.am      12 UNK        -0.5000 
     70 CA         -3.0697  -23.5219  -47.1821 C.3       12 UNK         0.1400 
     71 CB         -4.2548  -24.0760  -46.3780 C.3       12 UNK        -0.1800 
     72 C          -2.0888  -24.6487  -47.5563 C.2       12 UNK         0.5000 
     73 O          -2.2965  -25.3144  -48.5710 O.2       12 UNK        -0.5000 
     74 N          -1.0417  -24.8406  -46.7424 N.am      13 UNK        -0.5000 
     75 CA          0.0419  -25.7842  -47.0100 C.3       13 UNK         0.1400 
     76 CB          0.6771  -26.2297  -45.6830 C.3       13 UNK        -0.1800 
     77 C           1.0952  -25.1657  -47.9442 C.2       13 UNK         0.5000 
     78 O           1.6191  -25.8660  -48.8111 O.2       13 UNK        -0.5000 
     79 N           1.3793  -23.8689  -47.7532 N.am      14 UNK        -0.5000 
     80 CA          2.3087  -23.0878  -48.5659 C.3       14 UNK         0.1400 
     81 CB          2.5918  -21.7412  -47.8781 C.3       14 UNK        -0.1800 
     82 C           1.7954  -22.8850  -50.0025 C.2       14 UNK         0.5000 
     83 O           2.4828  -23.2740  -50.9474 O.2       14 UNK        -0.5000 
     84 N           0.6006  -22.2822  -50.1299 N.am      15 UNK        -0.5000 
     85 CA         -0.1323  -21.9912  -51.3699 C.3       15 UNK         0.1400 
     86 CB         -0.7329  -23.2934  -51.9359 C.3       15 UNK        -0.1800 
     87 C           0.6900  -21.2097  -52.4211 C.2       15 UNK         0.5000 
     88 O           0.5039  -21.4145  -53.6211 O.2       15 UNK        -0.5000 
     89 N           1.5886  -20.3350  -51.9428 N.am      16 UNK        -0.5000 
     90 CA          2.7197  -19.7487  -52.6733 C.3       16 UNK         0.1400 
     91 CB          3.4470  -18.7631  -51.7457 C.3       16 UNK        -0.1800 
     92 C           2.3900  -19.0710  -54.0172 C.2       16 UNK         0.5000 
     93 O           3.1744  -19.1879  -54.9596 O.2       16 UNK        -0.5000 
     94 N           1.2429  -18.3864  -54.0773 N.am      17 UNK        -0.5000 
     95 CA          0.7374  -17.6994  -55.2684 C.3       17 UNK         0.1400 
     96 CB          0.6733  -16.1906  -54.9700 C.3       17 UNK        -0.1800 
     97 C          -0.6364  -18.2379  -55.7140 C.2       17 UNK         0.5000 
     98 O          -1.2537  -17.6364  -56.5939 O.2       17 UNK        -0.5000 
     99 N          -1.1144  -19.3257  -55.0860 N.am      18 UNK        -0.5000 
    100 CA        -2.4147  -20.0018  -55.2376 C.3       18 UNK         0.1400 
    101 CB        -2.5618  -20.6098  -56.6434 C.3       18 UNK        -0.1800 
    102 C         -3.6590  -19.1587  -54.8794 C.2       18 UNK         0.5000 
    103 O         -4.6022  -19.6976  -54.2969 O.2       18 UNK        -0.5000 
    104 N         -3.6564  -17.8686  -55.2432 N.am      19 UNK        -0.5000 
    105 CA        -4.6734  -16.8350  -54.9958 C.3       19 UNK         0.1400 
    106 CB        -4.7567  -16.5287  -53.4869 C.3       19 UNK        -0.1800 
    107 C         -6.0644  -17.1409  -55.5955 C.2       19 UNK         0.5000 
    108 O         -7.0483  -16.5158  -55.1981 O.2       19 UNK        -0.5000 
    109 N         -6.1256  -18.1213  -56.5109 N.am      20 UNK        -0.5000 
    110 CA        -7.3283  -18.7668  -57.0547 C.3       20 UNK         0.1400 
    111 CB        -8.1540  -17.7761  -57.9017 C.3       20 UNK        -0.1800 
    112 C         -8.1794  -19.4874  -55.9806 C.2       20 UNK         0.5000 
    113 O         -9.3533  -19.7722  -56.2242 O.2       20 UNK        -0.5000 
    114 N         -7.5742  -19.7733  -54.8196 N.am      21 UNK        -0.5000 
    115 CA        -8.2093  -20.3897  -53.6568 C.3       21 UNK         0.1400 
    116 CB        -8.0529  -19.4489  -52.4501 C.3       21 UNK        -0.1800 
    117 C         -7.5861  -21.7582  -53.3483 C.2       21 UNK         0.5000 
    118 O         -8.3153  -22.6878  -52.9999 O.2       21 UNK        -0.5000 
    119 N         -6.2590  -21.8572  -53.4903 N.am      22 UNK        -0.5000 
    120 CA        -5.4572  -23.0533  -53.1859 C.3       22 UNK         0.1400 
    121 C         -4.8714  -23.7344  -54.4570 C.2       22 UNK         0.5000 
    122 N         -5.2188  -23.3023  -55.6634 N.am      22 UNK        -0.7600 
    123 O         -4.0993  -24.6830  -54.3514 O.2       22 UNK        -0.5000 
    124 C124       -4.3466  -22.7415  -52.1492 C.3       23 UNK        -0.0398 
    125 S125       -4.9962  -22.0434  -50.5917 S.3       23 UNK        -0.2404 
    126 C126       -4.3278  -20.3517  -50.6831 C.3       23 UNK        -0.0205 
    127 H127       -0.8200  -18.6605  -52.0859 H         1 UNK         0.0600 
    128 H128       -2.5743  -18.5098  -52.1902 H         1 UNK         0.0600 
    129 H129       -1.5419  -17.1553  -52.6619 H         1 UNK         0.0600 
    130 H130       -2.5747  -15.7361  -51.1135 H         1 UNK         0.3000 
    131 H131       -2.7855  -16.3951  -48.3235 H         1 UNK         0.0600 
    132 H132       -3.2155  -13.6354  -49.5443 H         1 UNK         0.0800 
    133 H133       -3.8842  -14.2620  -48.0639 H         1 UNK         0.0800 
    134 H134       -7.0700  -16.0545  -49.1619 H         1 UNK         0.0800 
    135 H135       -6.0923  -15.4133  -47.8639 H         1 UNK         0.0800 
    136 H136       -5.3996  -17.8403  -50.6776 H         1 UNK         0.1150 
    137 H137       -4.1083  -20.9408  -48.0403 H         1 UNK         0.1150 
    138 H138       -5.4871  -17.2212  -46.4338 H         1 UNK         0.1150 
    139 H139       -5.4537  -19.4707  -45.0828 H         1 UNK         0.0800 
    140 H140       -4.4833  -20.7716  -45.6981 H         1 UNK         0.0800 
    141 H141       -1.0201  -18.3691  -45.7487 H         1 UNK         0.0800 
    142 H142       -2.0567  -18.9000  -47.0174 H         1 UNK         0.0800 
    143 H143        0.0183  -20.3105  -46.3880 H         1 UNK         0.0600 
    144 H144       -1.1736  -20.5163  -43.8677 H         1 UNK         0.3000 
    145 H145       -0.2752  -23.4791  -42.7081 H         1 UNK         0.0600 
    146 H146        1.7883  -22.8616  -41.4316 H         1 UNK         0.0600 
    147 H147        2.1644  -23.3319  -43.0812 H         1 UNK         0.0600 
    148 H148        2.1697  -21.6309  -42.6330 H         1 UNK         0.0600 
    149 H149        0.0734  -20.7016  -41.7217 H         1 UNK         0.3000 
    150 H150       -2.5677  -19.8284  -40.8871 H         1 UNK         0.0600 
    151 H151       -3.9955  -21.4677  -39.7403 H         1 UNK         0.0600 
    152 H152       -3.3466  -20.3421  -38.5602 H         1 UNK         0.0600 
    153 H153       -2.6729  -21.9661  -38.6957 H         1 UNK         0.0600 
    154 H154       -0.8306  -18.9733  -39.8529 H         1 UNK         0.3000 
    155 H155        1.2342  -19.6030  -37.4109 H         1 UNK         0.0600 
    156 H156        2.6012  -20.4691  -40.0181 H         1 UNK         0.0600 
    157 H157        2.6818  -21.3110  -38.4752 H         1 UNK         0.0600 
    158 H158        3.4178  -19.7261  -38.6440 H         1 UNK         0.0600 
    159 H159        1.3147  -18.3055  -40.1034 H         1 UNK         0.3000 
    160 H160       -0.0244  -15.3048  -38.8667 H         1 UNK         0.0600 
    161 H161        1.9807  -14.1641  -39.7640 H         1 UNK         0.0600 
    162 H162        2.8975  -15.6695  -39.7242 H         1 UNK         0.0600 
    163 H163        2.3721  -14.9124  -38.2240 H         1 UNK         0.0600 
    164 H164        1.0732  -15.8272  -41.4030 H         1 UNK         0.3000 
    165 H165       -1.4149  -17.9891  -42.7200 H         1 UNK         0.0600 
    166 H166       -1.5696  -16.1856  -44.4595 H         1 UNK         0.0600 
    167 H167       -2.4858  -15.7776  -43.0175 H         1 UNK         0.0600 
    168 H168       -0.9237  -15.0226  -43.3020 H         1 UNK         0.0600 
    169 H169        0.7559  -16.8258  -44.0471 H         1 UNK         0.3000 
    170 H170        3.3166  -19.1502  -43.0662 H         1 UNK         0.0600 
    171 H171        2.1148  -20.2275  -44.8976 H         1 UNK         0.0600 
    172 H172        1.6949  -18.6796  -45.6219 H         1 UNK         0.0600 
    173 H173        3.3708  -19.2209  -45.5882 H         1 UNK         0.0600 
    174 H174        2.9823  -16.7037  -44.6770 H         1 UNK         0.3000 
    175 H175        4.5593  -14.6118  -42.3143 H         1 UNK         0.0600 
    176 H176        6.1882  -14.1599  -44.1317 H         1 UNK         0.0600 
    177 H177        6.5625  -15.6882  -43.3520 H         1 UNK         0.0600 
    178 H178        5.7698  -15.6804  -44.9228 H         1 UNK         0.0600 
    179 H179        3.7831  -14.1988  -45.0326 H         1 UNK         0.3000 
    180 H180        0.3535  -13.4604  -44.4298 H         1 UNK         0.0600 
    181 H181        2.7200  -11.6467  -45.1244 H         1 UNK         0.0600 
    182 H182        1.6104  -11.3981  -43.7814 H         1 UNK         0.0600 
    183 H183        1.0160  -11.3090  -45.4311 H         1 UNK         0.0600 
    184 H184        1.6780  -13.2225  -46.8295 H         1 UNK         0.3000 
    185 H185        1.5948  -14.6114  -48.4964 H         1 UNK         0.0600 
    186 H186        1.8900  -17.5822  -47.7927 H         1 UNK         0.0600 
    187 H187        2.2981  -16.8169  -49.3247 H         1 UNK         0.0600 
    188 H188        3.2247  -16.4378  -47.8814 H         1 UNK         0.0600 
    189 H189       -0.2147  -16.7966  -48.7396 H         1 UNK         0.3000 
    190 H190       -2.6549  -22.3872  -45.4365 H         1 UNK         0.3000 
    191 H191       -3.4558  -23.1146  -48.1180 H         1 UNK         0.0600 
    192 H192       -4.9990  -23.3021  -46.1893 H         1 UNK         0.0600 
    193 H193       -3.9359  -24.4796  -45.4162 H         1 UNK         0.0600 
    194 H194       -4.7544  -24.8784  -46.9223 H         1 UNK         0.0600 
    195 H195       -0.9053  -24.2102  -45.9636 H         1 UNK         0.3000 
    196 H196       -0.3653  -26.6716  -47.4996 H         1 UNK         0.0600 
    197 H197        1.4597  -26.9690  -45.8573 H         1 UNK         0.0600 
    198 H198       -0.0626  -26.6884  -45.0268 H         1 UNK         0.0600 
    199 H199        1.1304  -25.3963  -45.1460 H         1 UNK         0.0600 
    200 H200        0.9483  -23.3934  -46.9664 H         1 UNK         0.3000 
    201 H201        3.2497  -23.6393  -48.6207 H         1 UNK         0.0600 
    202 H202        1.6922  -21.1338  -47.7858 H         1 UNK         0.0600 
    203 H203        3.3218  -21.1606  -48.4433 H         1 UNK         0.0600 
    204 H204        2.9978  -21.8883  -46.8769 H         1 UNK         0.0600 
    205 H205        0.0980  -22.0218  -49.2831 H         1 UNK         0.3000 
    206 H206       -0.9599  -21.3389  -51.0881 H         1 UNK         0.0600 
    207 H207       -1.3513  -23.7949  -51.1911 H         1 UNK         0.0600 
    208 H208       -1.3628  -23.0977  -52.8041 H         1 UNK         0.0600 
    209 H209        0.0449  -23.9910  -52.2480 H         1 UNK         0.0600 
    210 H210        1.6219  -20.2286  -50.9397 H         1 UNK         0.3000 
    211 H211        3.4044  -20.5702  -52.8930 H         1 UNK         0.0600 
    212 H212        2.7992  -17.9355  -51.4553 H         1 UNK         0.0600 
    213 H213        4.3233  -18.3368  -52.2360 H         1 UNK         0.0600 
    214 H214        3.7934  -19.2549  -50.8364 H         1 UNK         0.0600 
    215 H215        0.6749  -18.3347  -53.2456 H         1 UNK         0.3000 
    216 H216        1.4105  -17.8477  -56.1149 H         1 UNK         0.0600 
    217 H217        0.3542  -15.6269  -55.8476 H         1 UNK         0.0600 
    218 H218        1.6517  -15.8065  -54.6809 H         1 UNK         0.0600 
    219 H219       -0.0251  -15.9662  -54.1635 H         1 UNK         0.0600 
    220 H220       -0.4782  -19.7974  -54.4527 H         1 UNK         0.3000 
    221 H221       -2.3951  -20.8297  -54.5271 H         1 UNK         0.0600 
    222 H222       -2.5796  -19.8454  -57.4205 H         1 UNK         0.0600 
    223 H223       -1.7401  -21.2915  -56.8628 H         1 UNK         0.0600 
    224 H224       -3.4869  -21.1812  -56.7270 H         1 UNK         0.0600 
    225 H225       -2.8426  -17.5621  -55.7743 H         1 UNK         0.3000 
    226 H226       -4.3213  -15.9338  -55.4994 H         1 UNK         0.0600 
    227 H227       -3.7837  -16.2478  -53.0877 H         1 UNK         0.0600 
    228 H228       -5.4335  -15.6976  -53.2854 H         1 UNK         0.0600 
    229 H229       -5.1193  -17.3879  -52.9236 H         1 UNK         0.0600 
    230 H230       -5.2498  -18.5519  -56.7702 H         1 UNK         0.3000 
    231 H231       -6.9708  -19.5501  -57.7244 H         1 UNK         0.0600 
    232 H232       -7.5313  -17.2780  -58.6448 H         1 UNK         0.0600 
    233 H233       -8.6233  -17.0079  -57.2869 H         1 UNK         0.0600 
    234 H234       -8.9498  -18.2912  -58.4409 H         1 UNK         0.0600 
    235 H235       -6.5974  -19.5241  -54.7160 H         1 UNK         0.3000 
    236 H236       -9.2757  -20.5429  -53.8338 H         1 UNK         0.0600 
    237 H237       -8.5027  -19.8802  -51.5550 H         1 UNK         0.0600 
    238 H238       -7.0044  -19.2490  -52.2270 H         1 UNK         0.0600 
    239 H239       -8.5415  -18.4917  -52.6331 H         1 UNK         0.0600 
    240 H240       -5.7243  -21.0427  -53.7798 H         1 UNK         0.3000 
    241 H241       -6.1003  -23.8131  -52.7389 H         1 UNK         0.0600 
    242 H242       -4.8454  -23.7594  -56.4802 H         1 UNK         0.3800 
    243 H243       -5.8819  -22.5515  -55.7636 H         1 UNK         0.3800 
    244 H244       -3.8045  -23.6524  -51.8901 H         1 UNK         0.0800 
    245 H245       -3.6105  -22.0606  -52.5786 H         1 UNK         0.0800 
    246 H246       -4.6654  -19.8893  -51.6110 H         1 UNK         0.0800 
    247 H247       -3.2398  -20.4041  -50.7309 H         1 UNK         0.0800 
@<TRIPOS>BOND
     1    1    2 1    
     2    1  127 1    
     3    1  128 1    
     4    1  129 1    
     5    2    3 2    
     6    2    4 am   BACKBONE|DICT|INTERRES
     7    4    5 1    
     8    4  130 1    
     9    5    6 1    
    10    5   65 1    
    11    5  131 1    
    12    6    7 1    
    13    6  132 1    
    14    6  133 1    
    15    7    8 1    
    16    8    9 1    
    17    8  134 1    
    18    8  135 1    
    19    9   10 ar   
    20    9   14 ar   
    21   10   11 ar   
    22   10  136 1    
    23   11   12 ar   
    24   11  126 1    
    25   12   13 ar   
    26   12  137 1    
    27   13   14 ar   
    28   13   15 1    
    29   14  138 1    
    30   15   16 1    
    31   15  139 1    
    32   15  140 1    
    33   16   17 1    
    34   17   18 1    
    35   17  141 1    
    36   17  142 1    
    37   18   19 1    
    38   18   67 1    
    39   18  143 1    
    40   19   20 am   BACKBONE|DICT|INTERRES
    41   19  144 1    
    42   20   21 2    
    43   20   22 1    
    44   22   23 1    
    45   22   24 1    
    46   22  145 1    
    47   23  146 1    
    48   23  147 1    
    49   23  148 1    
    50   24   25 am   BACKBONE|DICT|INTERRES
    51   24  149 1    
    52   25   26 2    
    53   25   27 1    
    54   27   28 1    
    55   27   29 1    
    56   27  150 1    
    57   28  151 1    
    58   28  152 1    
    59   28  153 1    
    60   29   30 am   BACKBONE|DICT|INTERRES
    61   29  154 1    
    62   30   31 2    
    63   30   32 1    
    64   32   33 1    
    65   32   34 1    
    66   32  155 1    
    67   33  156 1    
    68   33  157 1    
    69   33  158 1    
    70   34   35 am   BACKBONE|DICT|INTERRES
    71   34  159 1    
    72   35   36 2    
    73   35   37 1    
    74   37   38 1    
    75   37   39 1    
    76   37  160 1    
    77   38  161 1    
    78   38  162 1    
    79   38  163 1    
    80   39   40 am   BACKBONE|DICT|INTERRES
    81   39  164 1    
    82   40   41 2    
    83   40   42 1    
    84   42   43 1    
    85   42   44 1    
    86   42  165 1    
    87   43  166 1    
    88   43  167 1    
    89   43  168 1    
    90   44   45 am   BACKBONE|DICT|INTERRES
    91   44  169 1    
    92   45   46 2    
    93   45   47 1    
    94   47   48 1    
    95   47   49 1    
    96   47  170 1    
    97   48  171 1    
    98   48  172 1    
    99   48  173 1    
   100   49   50 am   BACKBONE|DICT|INTERRES
   101   49  174 1    
   102   50   51 2    
   103   50   52 1    
   104   52   53 1    
   105   52   54 1    
   106   52  175 1    
   107   53  176 1    
   108   53  177 1    
   109   53  178 1    
   110   54   55 am   BACKBONE|DICT|INTERRES
   111   54  179 1    
   112   55   56 2    
   113   55   57 1    
   114   57   58 1    
   115   57   59 1    
   116   57  180 1    
   117   58  181 1    
   118   58  182 1    
   119   58  183 1    
   120   59   60 am   BACKBONE|DICT|INTERRES
   121   59  184 1    
   122   60   61 2    
   123   60   62 1    
   124   62   63 1    
   125   62   64 1    
   126   62  185 1    
   127   63  186 1    
   128   63  187 1    
   129   63  188 1    
   130   64   65 am   BACKBONE|DICT|INTERRES
   131   64  189 1    
   132   65   66 2    
   133   67   68 2    
   134   67   69 am   BACKBONE|DICT|INTERRES
   135   69   70 1    
   136   69  190 1    
   137   70   71 1    
   138   70   72 1    
   139   70  191 1    
   140   71  192 1    
   141   71  193 1    
   142   71  194 1    
   143   72   73 2    
   144   72   74 am   BACKBONE|DICT|INTERRES
   145   74   75 1    
   146   74  195 1    
   147   75   76 1    
   148   75   77 1    
   149   75  196 1    
   150   76  197 1    
   151   76  198 1    
   152   76  199 1    
   153   77   78 2    
   154   77   79 am   BACKBONE|DICT|INTERRES
   155   79   80 1    
   156   79  200 1    
   157   80   81 1    
   158   80   82 1    
   159   80  201 1    
   160   81  202 1    
   161   81  203 1    
   162   81  204 1    
   163   82   83 2    
   164   82   84 am   BACKBONE|DICT|INTERRES
   165   84   85 1    
   166   84  205 1    
   167   85   86 1    
   168   85   87 1    
   169   85  206 1    
   170   86  207 1    
   171   86  208 1    
   172   86  209 1    
   173   87   88 2    
   174   87   89 am   BACKBONE|DICT|INTERRES
   175   89   90 1    
   176   89  210 1    
   177   90   91 1    
   178   90   92 1    
   179   90  211 1    
   180   91  212 1    
   181   91  213 1    
   182   91  214 1    
   183   92   93 2    
   184   92   94 am   BACKBONE|DICT|INTERRES
   185   94   95 1    
   186   94  215 1    
   187   95   96 1    
   188   95   97 1    
   189   95  216 1    
   190   96  217 1    
   191   96  218 1    
   192   96  219 1    
   193   97   98 2    
   194   97   99 am   BACKBONE|DICT|INTERRES
   195   99  100 1    
   196   99  220 1    
   197  100  101 1    
   198  100  102 1    
   199  100  221 1    
   200  101  222 1    
   201  101  223 1    
   202  101  224 1    
   203  102  103 2    
   204  102  104 am   BACKBONE|DICT|INTERRES
   205  104  105 1    
   206  104  225 1    
   207  105  106 1    
   208  105  107 1    
   209  105  226 1    
   210  106  227 1    
   211  106  228 1    
   212  106  229 1    
   213  107  108 2    
   214  107  109 am   BACKBONE|DICT|INTERRES
   215  109  110 1    
   216  109  230 1    
   217  110  111 1    
   218  110  112 1    
   219  110  231 1    
   220  111  232 1    
   221  111  233 1    
   222  111  234 1    
   223  112  113 2    
   224  112  114 am   BACKBONE|DICT|INTERRES
   225  114  115 1    
   226  114  235 1    
   227  115  116 1    
   228  115  117 1    
   229  115  236 1    
   230  116  237 1    
   231  116  238 1    
   232  116  239 1    
   233  117  118 2    
   234  117  119 am   BACKBONE|DICT|INTERRES
   235  119  120 1    
   236  119  240 1    
   237  120  121 1    
   238  120  124 1    
   239  120  241 1    
   240  121  122 am   BACKBONE|DICT|INTERRES
   241  121  123 2    
   242  122  242 1    
   243  122  243 1    
   244  124  125 1    
   245  124  244 1    
   246  124  245 1    
   247  125  126 1    
   248  126  246 1    
   249  126  247 1    
@<TRIPOS>SUBSTRUCTURE
     1 UNK         1 GROUP             0       ****    0 ROOT    
