@<TRIPOS>MOLECULE
3R540
247   249    1
SMALL
USER_CHARGES


@<TRIPOS>ATOM
      1 CA         -2.9357  -11.7214  -44.3539 C.3       0 UNK        -0.1800 
      2 C          -1.9536  -12.4739  -45.2393 C.2       0 UNK         0.5000 
      3 O          -2.1639  -12.5591  -46.4503 O.2       0 UNK        -0.5000 
      4 N          -0.8811  -13.0173  -44.6454 N.am      1 UNK        -0.5000 
      5 CA          0.1798  -13.7345  -45.3575 C.3       1 UNK         0.1400 
      6 C6          1.1655  -14.4574  -44.4009 C.3       23 UNK        -0.0398 
      7 S7          1.7252  -16.0477  -45.0959 S.3       23 UNK        -0.2404 
      8 C8          3.3170  -15.6205  -45.8621 C.3       23 UNK        -0.0205 
      9 C9          3.5489  -16.4714  -47.1010 C.ar      23 UNK        -0.0193 
     10 C10         3.1749  -15.9923  -48.3557 C.ar      23 UNK        -0.1150 
     11 C11         3.3543  -16.7652  -49.5048 C.ar      23 UNK        -0.0193 
     12 C12         3.9240  -18.0392  -49.3872 C.ar      23 UNK        -0.1150 
     13 C13         4.2971  -18.5435  -48.1315 C.ar      23 UNK        -0.0193 
     14 C14         4.1203  -17.7409  -46.9992 C.ar      23 UNK        -0.1150 
     15 C15         4.9322  -19.9255  -47.9611 C.3       23 UNK        -0.0205 
     16 S16         4.3209  -21.2104  -49.1057 S.3       23 UNK        -0.2404 
     17 C17         2.6120  -21.4894  -48.5296 C.3       23 UNK        -0.0398 
     18 CA          2.3527  -22.9594  -48.1301 C.3       11 UNK         0.1400 
     19 N           3.0326  -23.3208  -46.8841 N.am      11 UNK        -0.5000 
     20 C           3.7526  -24.4358  -46.7096 C.2       10 UNK         0.5000 
     21 O           3.9585  -25.2673  -47.5947 O.2       10 UNK        -0.5000 
     22 CA          4.3451  -24.6759  -45.3071 C.3       10 UNK         0.1400 
     23 CB          5.7661  -24.0972  -45.2240 C.3       10 UNK        -0.1800 
     24 N           3.5437  -24.1213  -44.2148 N.am      10 UNK        -0.5000 
     25 C           2.2998  -24.5035  -43.8952 C.2       9 UNK         0.5000 
     26 O           1.6618  -25.3639  -44.5047 O.2       9 UNK        -0.5000 
     27 CA          1.6438  -23.7679  -42.7104 C.3       9 UNK         0.1400 
     28 CB          2.0687  -24.4164  -41.3841 C.3       9 UNK        -0.1800 
     29 N           1.8925  -22.3206  -42.6368 N.am      9 UNK        -0.5000 
     30 C           1.7810  -21.4320  -43.6348 C.2       8 UNK         0.5000 
     31 O           1.6310  -21.7343  -44.8199 O.2       8 UNK        -0.5000 
     32 CA          1.8884  -19.9459  -43.2528 C.3       8 UNK         0.1400 
     33 CB          3.2557  -19.3962  -43.6777 C.3       8 UNK        -0.1800 
     34 N           0.8319  -19.1583  -43.8915 N.am      8 UNK        -0.5000 
     35 C          -0.4736  -19.2600  -43.6038 C.2       7 UNK         0.5000 
     36 O          -0.9143  -19.9828  -42.7090 O.2       7 UNK        -0.5000 
     37 CA         -1.4643  -18.4094  -44.4273 C.3       7 UNK         0.1400 
     38 CB         -1.9374  -17.1950  -43.6126 C.3       7 UNK        -0.1800 
     39 N          -0.9530  -17.9291  -45.7122 N.am      7 UNK        -0.5000 
     40 C          -0.6719  -18.6925  -46.7736 C.2       6 UNK         0.5000 
     41 O          -0.7844  -19.9168  -46.7852 O.2       6 UNK        -0.5000 
     42 CA         -0.2809  -17.9332  -48.0488 C.3       6 UNK         0.1400 
     43 CB          0.3814  -18.8396  -49.0960 C.3       6 UNK        -0.1800 
     44 N          -1.5010  -17.3632  -48.6081 N.am      6 UNK        -0.5000 
     45 C          -1.7826  -16.0595  -48.6654 C.2       5 UNK         0.5000 
     46 O          -1.0162  -15.1647  -48.2986 O.2       5 UNK        -0.5000 
     47 CA         -3.1917  -15.7106  -49.1685 C.3       5 UNK         0.1400 
     48 CB         -4.2009  -15.7658  -48.0110 C.3       5 UNK        -0.1800 
     49 N          -3.2391  -14.3853  -49.7733 N.am      5 UNK        -0.5000 
     50 C          -2.8190  -14.1054  -51.0140 C.2       4 UNK         0.5000 
     51 O          -2.3866  -14.9470  -51.8012 O.2       4 UNK        -0.5000 
     52 CA         -2.8941  -12.6324  -51.4311 C.3       4 UNK         0.1400 
     53 CB         -4.3471  -12.2467  -51.7741 C.3       4 UNK        -0.1800 
     54 N          -2.3503  -11.8214  -50.3455 N.am      4 UNK        -0.5000 
     55 C          -2.1419  -10.4995  -50.3335 C.2       3 UNK         0.5000 
     56 O          -2.4714   -9.7321  -51.2379 O.2       3 UNK        -0.5000 
     57 CA         -1.3881   -9.9575  -49.1035 C.3       3 UNK         0.1400 
     58 CB         -2.3702   -9.5720  -47.9868 C.3       3 UNK        -0.1800 
     59 N          -0.4240  -10.9422  -48.6007 N.am      3 UNK        -0.5000 
     60 C           0.7399  -11.2140  -49.2123 C.2       2 UNK         0.5000 
     61 O           1.1618  -10.5620  -50.1686 O.2       2 UNK        -0.5000 
     62 CA          1.5506  -12.4353  -48.7362 C.3       2 UNK         0.1400 
     63 CB          3.0336  -12.0822  -48.4869 C.3       2 UNK        -0.1800 
     64 N           0.9511  -13.1572  -47.6075 N.am      2 UNK        -0.5000 
     65 C           0.9202  -12.7867  -46.3219 C.2       1 UNK         0.5000 
     66 O           1.4190  -11.7491  -45.8816 O.2       1 UNK        -0.5000 
     67 C           0.8398  -23.2389  -48.0286 C.2       11 UNK         0.5000 
     68 O           0.2299  -23.5835  -49.0414 O.2       11 UNK        -0.5000 
     69 N           0.2609  -23.1000  -46.8266 N.am      12 UNK        -0.5000 
     70 CA         -1.1602  -23.3064  -46.5490 C.3       12 UNK         0.1400 
     71 CB         -1.4759  -22.8555  -45.1161 C.3       12 UNK        -0.1800 
     72 C          -1.6182  -24.7581  -46.7523 C.2       12 UNK         0.5000 
     73 O          -2.7378  -24.9665  -47.2198 O.2       12 UNK        -0.5000 
     74 N          -0.7498  -25.7208  -46.4008 N.am      13 UNK        -0.5000 
     75 CA         -0.9008  -27.1689  -46.5742 C.3       13 UNK         0.1400 
     76 CB         -0.7375  -27.5378  -48.0651 C.3       13 UNK        -0.1800 
     77 C          -2.2019  -27.7135  -45.9461 C.2       13 UNK         0.5000 
     78 O          -2.2415  -27.9491  -44.7382 O.2       13 UNK        -0.5000 
     79 N          -3.2455  -27.8753  -46.7710 N.am      14 UNK        -0.5000 
     80 CA         -4.5952  -28.2970  -46.3872 C.3       14 UNK         0.1400 
     81 CB         -5.3316  -28.7600  -47.6555 C.3       14 UNK        -0.1800 
     82 C          -5.4137  -27.2080  -45.6578 C.2       14 UNK         0.5000 
     83 O          -6.5472  -27.4781  -45.2600 O.2       14 UNK        -0.5000 
     84 N          -4.8609  -25.9922  -45.5381 N.am      15 UNK        -0.5000 
     85 CA         -5.4054  -24.7727  -44.9271 C.3       15 UNK         0.1400 
     86 CB         -5.9051  -24.9979  -43.4878 C.3       15 UNK        -0.1800 
     87 C          -6.4608  -24.0814  -45.8040 C.2       15 UNK         0.5000 
     88 O          -6.3955  -22.8658  -45.9792 O.2       15 UNK        -0.5000 
     89 N          -7.3645  -24.8620  -46.4090 N.am      16 UNK        -0.5000 
     90 CA         -8.3094  -24.4040  -47.4322 C.3       16 UNK         0.1400 
     91 CB         -9.3138  -25.5288  -47.7233 C.3       16 UNK        -0.1800 
     92 C          -7.6068  -23.9562  -48.7314 C.2       16 UNK         0.5000 
     93 O          -8.1253  -23.0987  -49.4463 O.2       16 UNK        -0.5000 
     94 N          -6.4232  -24.5279  -48.9924 N.am      17 UNK        -0.5000 
     95 CA         -5.5639  -24.2279  -50.1363 C.3       17 UNK         0.1400 
     96 CB         -4.6191  -25.4212  -50.3572 C.3       17 UNK        -0.1800 
     97 C          -4.7640  -22.9158  -49.9914 C.2       17 UNK         0.5000 
     98 O          -4.1284  -22.5043  -50.9609 O.2       17 UNK        -0.5000 
     99 N          -4.7894  -22.2852  -48.8065 N.am      18 UNK        -0.5000 
    100 CA        -4.0568  -21.0524  -48.5038 C.3       18 UNK         0.1400 
    101 CB        -4.1154  -20.7929  -46.9916 C.3       18 UNK        -0.1800 
    102 C         -4.5867  -19.8131  -49.2454 C.2       18 UNK         0.5000 
    103 O         -3.8141  -18.8854  -49.4889 O.2       18 UNK        -0.5000 
    104 N         -5.8915  -19.8001  -49.5511 N.am      19 UNK        -0.5000 
    105 CA        -6.6030  -18.6840  -50.1715 C.3       19 UNK         0.1400 
    106 CB        -8.1082  -18.9922  -50.1806 C.3       19 UNK        -0.1800 
    107 C         -6.0930  -18.3848  -51.5929 C.2       19 UNK         0.5000 
    108 O         -6.1208  -19.2727  -52.4469 O.2       19 UNK        -0.5000 
    109 N         -5.6362  -17.1409  -51.8050 N.am      20 UNK        -0.5000 
    110 CA        -5.0961  -16.5839  -53.0558 C.3       20 UNK         0.1400 
    111 CB        -6.1979  -16.5068  -54.1326 C.3       20 UNK        -0.1800 
    112 C         -3.8179  -17.2812  -53.5799 C.2       20 UNK         0.5000 
    113 O         -3.4456  -17.0813  -54.7383 O.2       20 UNK        -0.5000 
    114 N         -3.1593  -18.0774  -52.7266 N.am      21 UNK        -0.5000 
    115 CA        -2.0298  -18.9400  -53.0725 C.3       21 UNK         0.1400 
    116 CB        -1.7281  -19.8533  -51.8792 C.3       21 UNK        -0.1800 
    117 C         -0.7575  -18.2049  -53.5340 C.2       21 UNK         0.5000 
    118 O          0.0460  -18.8079  -54.2475 O.2       21 UNK        -0.5000 
    119 N         -0.5939  -16.9330  -53.1483 N.am      22 UNK        -0.5000 
    120 CA         0.5198  -16.0803  -53.5977 C.3       22 UNK         0.1400 
    121 C          0.2684  -15.4071  -54.9800 C.2       22 UNK         0.5000 
    122 N         -0.8992  -15.5520  -55.5986 N.am      22 UNK        -0.7600 
    123 O          1.1571  -14.7464  -55.5107 O.2       22 UNK        -0.5000 
    124 C124        0.9429  -15.0311  -52.5362 C.3       23 UNK        -0.0398 
    125 S125        1.1749  -15.7336  -50.8708 S.3       23 UNK        -0.2404 
    126 C126        2.9339  -16.2082  -50.8618 C.3       23 UNK        -0.0205 
    127 H127       -2.6229  -11.7207  -43.3096 H         1 UNK         0.0600 
    128 H128       -3.9219  -12.1815  -44.4145 H         1 UNK         0.0600 
    129 H129       -3.0201  -10.6866  -44.6858 H         1 UNK         0.0600 
    130 H130       -0.7413  -12.8827  -43.6546 H         1 UNK         0.3000 
    131 H131       -0.3374  -14.4947  -45.9441 H         1 UNK         0.0600 
    132 H132        0.6669  -14.6976  -43.4611 H         1 UNK         0.0800 
    133 H133        2.0192  -13.8351  -44.1248 H         1 UNK         0.0800 
    134 H134        4.1198  -15.7731  -45.1395 H         1 UNK         0.0800 
    135 H135        3.3391  -14.5635  -46.1295 H         1 UNK         0.0800 
    136 H136        2.7245  -15.0174  -48.4420 H         1 UNK         0.1150 
    137 H137        4.0718  -18.6387  -50.2738 H         1 UNK         0.1150 
    138 H138        4.4315  -18.1002  -46.0305 H         1 UNK         0.1150 
    139 H139        4.7937  -20.2857  -46.9402 H         1 UNK         0.0800 
    140 H140        6.0081  -19.8224  -48.1058 H         1 UNK         0.0800 
    141 H141        1.9617  -21.2078  -49.3590 H         1 UNK         0.0800 
    142 H142        2.3768  -20.8219  -47.6985 H         1 UNK         0.0800 
    143 H143        2.7187  -23.5850  -48.9472 H         1 UNK         0.0600 
    144 H144        2.8633  -22.7165  -46.0877 H         1 UNK         0.3000 
    145 H145        4.4056  -25.7559  -45.1579 H         1 UNK         0.0600 
    146 H146        6.4027  -24.5103  -46.0077 H         1 UNK         0.0600 
    147 H147        6.2345  -24.3340  -44.2686 H         1 UNK         0.0600 
    148 H148        5.7655  -23.0125  -45.3400 H         1 UNK         0.0600 
    149 H149        3.9716  -23.3907  -43.6654 H         1 UNK         0.3000 
    150 H150        0.5663  -23.9005  -42.8046 H         1 UNK         0.0600 
    151 H151        1.5111  -24.0014  -40.5443 H         1 UNK         0.0600 
    152 H152        1.8813  -25.4911  -41.3952 H         1 UNK         0.0600 
    153 H153        3.1315  -24.2705  -41.1869 H         1 UNK         0.0600 
    154 H154        2.0484  -21.9613  -41.7062 H         1 UNK         0.3000 
    155 H155        1.7874  -19.8371  -42.1711 H         1 UNK         0.0600 
    156 H156        3.4315  -19.5706  -44.7385 H         1 UNK         0.0600 
    157 H157        4.0608  -19.8863  -43.1291 H         1 UNK         0.0600 
    158 H158        3.3352  -18.3254  -43.4888 H         1 UNK         0.0600 
    159 H159        1.1105  -18.5475  -44.6454 H         1 UNK         0.3000 
    160 H160       -2.3317  -19.0405  -44.6314 H         1 UNK         0.0600 
    161 H161       -2.3736  -17.5062  -42.6625 H         1 UNK         0.0600 
    162 H162       -2.7005  -16.6308  -44.1493 H         1 UNK         0.0600 
    163 H163       -1.1134  -16.5169  -43.3886 H         1 UNK         0.0600 
    164 H164       -0.8361  -16.9306  -45.7994 H         1 UNK         0.3000 
    165 H165        0.4325  -17.1498  -47.7843 H         1 UNK         0.0600 
    166 H166        1.3989  -19.0576  -48.7859 H         1 UNK         0.0600 
    167 H167       -0.1429  -19.7858  -49.2318 H         1 UNK         0.0600 
    168 H168        0.4464  -18.3555  -50.0685 H         1 UNK         0.0600 
    169 H169       -2.2210  -18.0259  -48.8857 H         1 UNK         0.3000 
    170 H170       -3.4827  -16.4368  -49.9275 H         1 UNK         0.0600 
    171 H171       -3.9489  -15.0517  -47.2254 H         1 UNK         0.0600 
    172 H172       -4.2236  -16.7579  -47.5579 H         1 UNK         0.0600 
    173 H173       -5.2111  -15.5447  -48.3555 H         1 UNK         0.0600 
    174 H174       -3.5672  -13.6366  -49.1812 H         1 UNK         0.3000 
    175 H175       -2.2664  -12.4967  -52.3139 H         1 UNK         0.0600 
    176 H176       -4.7678  -12.9303  -52.5126 H         1 UNK         0.0600 
    177 H177       -4.9911  -12.2756  -50.8945 H         1 UNK         0.0600 
    178 H178       -4.4083  -11.2456  -52.1997 H         1 UNK         0.0600 
    179 H179       -1.9930  -12.3506  -49.5612 H         1 UNK         0.3000 
    180 H180       -0.8480   -9.0569  -49.4037 H         1 UNK         0.0600 
    181 H181       -3.0121  -10.4064  -47.7040 H         1 UNK         0.0600 
    182 H182       -3.0208   -8.7583  -48.3093 H         1 UNK         0.0600 
    183 H183       -1.8436   -9.2343  -47.0940 H         1 UNK         0.0600 
    184 H184       -0.7188  -11.5175  -47.8207 H         1 UNK         0.3000 
    185 H185        1.5258  -13.1377  -49.5687 H         1 UNK         0.0600 
    186 H186        3.5155  -11.7660  -49.4127 H         1 UNK         0.0600 
    187 H187        3.1433  -11.2642  -47.7748 H         1 UNK         0.0600 
    188 H188        3.5970  -12.9330  -48.1067 H         1 UNK         0.0600 
    189 H189        0.4142  -13.9835  -47.8695 H         1 UNK         0.3000 
    190 H190        0.8113  -22.7214  -46.0592 H         1 UNK         0.3000 
    191 H191       -1.7227  -22.6787  -47.2418 H         1 UNK         0.0600 
    192 H192       -1.2064  -21.8122  -44.9615 H         1 UNK         0.0600 
    193 H193       -2.5376  -22.9500  -44.8942 H         1 UNK         0.0600 
    194 H194       -0.9390  -23.4536  -44.3832 H         1 UNK         0.0600 
    195 H195        0.1170  -25.4330  -45.9589 H         1 UNK         0.3000 
    196 H196       -0.0776  -27.6327  -46.0285 H         1 UNK         0.0600 
    197 H197       -0.8522  -28.6113  -48.2204 H         1 UNK         0.0600 
    198 H198        0.2559  -27.2657  -48.4225 H         1 UNK         0.0600 
    199 H199       -1.4619  -27.0285  -48.7019 H         1 UNK         0.0600 
    200 H200       -3.1195  -27.6131  -47.7379 H         1 UNK         0.3000 
    201 H201       -4.5107  -29.1472  -45.7076 H         1 UNK         0.0600 
    202 H202       -6.3271  -29.1379  -47.4182 H         1 UNK         0.0600 
    203 H203       -4.7925  -29.5669  -48.1524 H         1 UNK         0.0600 
    204 H204       -5.4519  -27.9459  -48.3713 H         1 UNK         0.0600 
    205 H205       -3.9692  -25.8557  -46.0058 H         1 UNK         0.3000 
    206 H206       -4.5617  -24.0856  -44.8663 H         1 UNK         0.0600 
    207 H207       -5.1406  -25.4760  -42.8755 H         1 UNK         0.0600 
    208 H208       -6.1541  -24.0475  -43.0143 H         1 UNK         0.0600 
    209 H209       -6.8011  -25.6177  -43.4538 H         1 UNK         0.0600 
    210 H210       -7.3582  -25.8514  -46.1845 H         1 UNK         0.3000 
    211 H211       -8.8551  -23.5454  -47.0355 H         1 UNK         0.0600 
    212 H212      -10.0463  -25.2157  -48.4685 H         1 UNK         0.0600 
    213 H213       -9.8642  -25.8078  -46.8246 H         1 UNK         0.0600 
    214 H214       -8.8179  -26.4227  -48.1042 H         1 UNK         0.0600 
    215 H215       -6.0713  -25.2072  -48.3351 H         1 UNK         0.3000 
    216 H216       -6.1922  -24.1244  -51.0235 H         1 UNK         0.0600 
    217 H217       -3.9682  -25.5845  -49.4983 H         1 UNK         0.0600 
    218 H218       -3.9793  -25.2603  -51.2258 H         1 UNK         0.0600 
    219 H219       -5.1781  -26.3400  -50.5347 H         1 UNK         0.0600 
    220 H220       -5.3408  -22.6782  -48.0556 H         1 UNK         0.3000 
    221 H221       -3.0129  -21.1942  -48.7923 H         1 UNK         0.0600 
    222 H222       -5.1320  -20.5784  -46.6599 H         1 UNK         0.0600 
    223 H223       -3.7575  -21.6500  -46.4254 H         1 UNK         0.0600 
    224 H224       -3.4993  -19.9368  -46.7174 H         1 UNK         0.0600 
    225 H225       -6.4367  -20.6246  -49.3460 H         1 UNK         0.3000 
    226 H226       -6.4433  -17.8037  -49.5452 H         1 UNK         0.0600 
    227 H227       -8.4891  -19.1304  -49.1685 H         1 UNK         0.0600 
    228 H228       -8.6720  -18.1745  -50.6314 H         1 UNK         0.0600 
    229 H229       -8.3301  -19.8972  -50.7480 H         1 UNK         0.0600 
    230 H230       -5.6581  -16.4939  -51.0300 H         1 UNK         0.3000 
    231 H231       -4.8028  -15.5598  -52.8262 H         1 UNK         0.0600 
    232 H232       -6.5024  -17.4971  -54.4721 H         1 UNK         0.0600 
    233 H233       -5.8541  -15.9541  -55.0077 H         1 UNK         0.0600 
    234 H234       -7.0828  -15.9939  -53.7559 H         1 UNK         0.0600 
    235 H235       -3.5269  -18.1798  -51.7908 H         1 UNK         0.3000 
    236 H236       -2.3458  -19.5717  -53.9051 H         1 UNK         0.0600 
    237 H237       -0.8386  -20.4614  -52.0490 H         1 UNK         0.0600 
    238 H238       -1.5692  -19.2697  -50.9756 H         1 UNK         0.0600 
    239 H239       -2.5570  -20.5338  -51.6909 H         1 UNK         0.0600 
    240 H240       -1.3022  -16.4773  -52.5818 H         1 UNK         0.3000 
    241 H241        1.3901  -16.7219  -53.7469 H         1 UNK         0.0600 
    242 H242       -1.0408  -15.1142  -56.4949 H         1 UNK         0.3800 
    243 H243       -1.6461  -16.0999  -55.1870 H         1 UNK         0.3800 
    244 H244        1.8626  -14.5270  -52.8374 H         1 UNK         0.0800 
    245 H245        0.1841  -14.2512  -52.4573 H         1 UNK         0.0800 
    246 H246        3.1082  -16.9405  -51.6514 H         1 UNK         0.0800 
    247 H247        3.5478  -15.3371  -51.0936 H         1 UNK         0.0800 
@<TRIPOS>BOND
     1    1    2 1    
     2    1  127 1    
     3    1  128 1    
     4    1  129 1    
     5    2    3 2    
     6    2    4 am   BACKBONE|DICT|INTERRES
     7    4    5 1    
     8    4  130 1    
     9    5    6 1    
    10    5   65 1    
    11    5  131 1    
    12    6    7 1    
    13    6  132 1    
    14    6  133 1    
    15    7    8 1    
    16    8    9 1    
    17    8  134 1    
    18    8  135 1    
    19    9   10 ar   
    20    9   14 ar   
    21   10   11 ar   
    22   10  136 1    
    23   11   12 ar   
    24   11  126 1    
    25   12   13 ar   
    26   12  137 1    
    27   13   14 ar   
    28   13   15 1    
    29   14  138 1    
    30   15   16 1    
    31   15  139 1    
    32   15  140 1    
    33   16   17 1    
    34   17   18 1    
    35   17  141 1    
    36   17  142 1    
    37   18   19 1    
    38   18   67 1    
    39   18  143 1    
    40   19   20 am   BACKBONE|DICT|INTERRES
    41   19  144 1    
    42   20   21 2    
    43   20   22 1    
    44   22   23 1    
    45   22   24 1    
    46   22  145 1    
    47   23  146 1    
    48   23  147 1    
    49   23  148 1    
    50   24   25 am   BACKBONE|DICT|INTERRES
    51   24  149 1    
    52   25   26 2    
    53   25   27 1    
    54   27   28 1    
    55   27   29 1    
    56   27  150 1    
    57   28  151 1    
    58   28  152 1    
    59   28  153 1    
    60   29   30 am   BACKBONE|DICT|INTERRES
    61   29  154 1    
    62   30   31 2    
    63   30   32 1    
    64   32   33 1    
    65   32   34 1    
    66   32  155 1    
    67   33  156 1    
    68   33  157 1    
    69   33  158 1    
    70   34   35 am   BACKBONE|DICT|INTERRES
    71   34  159 1    
    72   35   36 2    
    73   35   37 1    
    74   37   38 1    
    75   37   39 1    
    76   37  160 1    
    77   38  161 1    
    78   38  162 1    
    79   38  163 1    
    80   39   40 am   BACKBONE|DICT|INTERRES
    81   39  164 1    
    82   40   41 2    
    83   40   42 1    
    84   42   43 1    
    85   42   44 1    
    86   42  165 1    
    87   43  166 1    
    88   43  167 1    
    89   43  168 1    
    90   44   45 am   BACKBONE|DICT|INTERRES
    91   44  169 1    
    92   45   46 2    
    93   45   47 1    
    94   47   48 1    
    95   47   49 1    
    96   47  170 1    
    97   48  171 1    
    98   48  172 1    
    99   48  173 1    
   100   49   50 am   BACKBONE|DICT|INTERRES
   101   49  174 1    
   102   50   51 2    
   103   50   52 1    
   104   52   53 1    
   105   52   54 1    
   106   52  175 1    
   107   53  176 1    
   108   53  177 1    
   109   53  178 1    
   110   54   55 am   BACKBONE|DICT|INTERRES
   111   54  179 1    
   112   55   56 2    
   113   55   57 1    
   114   57   58 1    
   115   57   59 1    
   116   57  180 1    
   117   58  181 1    
   118   58  182 1    
   119   58  183 1    
   120   59   60 am   BACKBONE|DICT|INTERRES
   121   59  184 1    
   122   60   61 2    
   123   60   62 1    
   124   62   63 1    
   125   62   64 1    
   126   62  185 1    
   127   63  186 1    
   128   63  187 1    
   129   63  188 1    
   130   64   65 am   BACKBONE|DICT|INTERRES
   131   64  189 1    
   132   65   66 2    
   133   67   68 2    
   134   67   69 am   BACKBONE|DICT|INTERRES
   135   69   70 1    
   136   69  190 1    
   137   70   71 1    
   138   70   72 1    
   139   70  191 1    
   140   71  192 1    
   141   71  193 1    
   142   71  194 1    
   143   72   73 2    
   144   72   74 am   BACKBONE|DICT|INTERRES
   145   74   75 1    
   146   74  195 1    
   147   75   76 1    
   148   75   77 1    
   149   75  196 1    
   150   76  197 1    
   151   76  198 1    
   152   76  199 1    
   153   77   78 2    
   154   77   79 am   BACKBONE|DICT|INTERRES
   155   79   80 1    
   156   79  200 1    
   157   80   81 1    
   158   80   82 1    
   159   80  201 1    
   160   81  202 1    
   161   81  203 1    
   162   81  204 1    
   163   82   83 2    
   164   82   84 am   BACKBONE|DICT|INTERRES
   165   84   85 1    
   166   84  205 1    
   167   85   86 1    
   168   85   87 1    
   169   85  206 1    
   170   86  207 1    
   171   86  208 1    
   172   86  209 1    
   173   87   88 2    
   174   87   89 am   BACKBONE|DICT|INTERRES
   175   89   90 1    
   176   89  210 1    
   177   90   91 1    
   178   90   92 1    
   179   90  211 1    
   180   91  212 1    
   181   91  213 1    
   182   91  214 1    
   183   92   93 2    
   184   92   94 am   BACKBONE|DICT|INTERRES
   185   94   95 1    
   186   94  215 1    
   187   95   96 1    
   188   95   97 1    
   189   95  216 1    
   190   96  217 1    
   191   96  218 1    
   192   96  219 1    
   193   97   98 2    
   194   97   99 am   BACKBONE|DICT|INTERRES
   195   99  100 1    
   196   99  220 1    
   197  100  101 1    
   198  100  102 1    
   199  100  221 1    
   200  101  222 1    
   201  101  223 1    
   202  101  224 1    
   203  102  103 2    
   204  102  104 am   BACKBONE|DICT|INTERRES
   205  104  105 1    
   206  104  225 1    
   207  105  106 1    
   208  105  107 1    
   209  105  226 1    
   210  106  227 1    
   211  106  228 1    
   212  106  229 1    
   213  107  108 2    
   214  107  109 am   BACKBONE|DICT|INTERRES
   215  109  110 1    
   216  109  230 1    
   217  110  111 1    
   218  110  112 1    
   219  110  231 1    
   220  111  232 1    
   221  111  233 1    
   222  111  234 1    
   223  112  113 2    
   224  112  114 am   BACKBONE|DICT|INTERRES
   225  114  115 1    
   226  114  235 1    
   227  115  116 1    
   228  115  117 1    
   229  115  236 1    
   230  116  237 1    
   231  116  238 1    
   232  116  239 1    
   233  117  118 2    
   234  117  119 am   BACKBONE|DICT|INTERRES
   235  119  120 1    
   236  119  240 1    
   237  120  121 1    
   238  120  124 1    
   239  120  241 1    
   240  121  122 am   BACKBONE|DICT|INTERRES
   241  121  123 2    
   242  122  242 1    
   243  122  243 1    
   244  124  125 1    
   245  124  244 1    
   246  124  245 1    
   247  125  126 1    
   248  126  246 1    
   249  126  247 1    
@<TRIPOS>SUBSTRUCTURE
     1 UNK         1 GROUP             0       ****    0 ROOT    
