@<TRIPOS>MOLECULE
3R540
247   249    1
SMALL
USER_CHARGES


@<TRIPOS>ATOM
      1 CA          6.8695  -14.4631  -47.9460 C.3       0 UNK        -0.1800 
      2 C           5.7829  -13.4468  -47.6265 C.2       0 UNK         0.5000 
      3 O           5.7722  -12.3613  -48.2052 O.2       0 UNK        -0.5000 
      4 N           4.8792  -13.7951  -46.6995 N.am      1 UNK        -0.5000 
      5 CA          3.7117  -13.0125  -46.2577 C.3       1 UNK         0.1400 
      6 C6          2.6973  -12.7067  -47.3968 C.3       23 UNK        -0.0398 
      7 S7          1.7235  -14.1846  -47.8270 S.3       23 UNK        -0.2404 
      8 C8          2.5170  -14.7231  -49.3717 C.3       23 UNK        -0.0205 
      9 C9          1.8268  -15.9520  -49.9454 C.ar      23 UNK        -0.0193 
     10 C10         0.5422  -15.8391  -50.4844 C.ar      23 UNK        -0.1150 
     11 C11        -0.1124  -16.9576  -51.0056 C.ar      23 UNK        -0.0193 
     12 C12         0.5446  -18.1904  -51.0242 C.ar      23 UNK        -0.1150 
     13 C13         1.8294  -18.3201  -50.4883 C.ar      23 UNK        -0.0193 
     14 C14         2.4632  -17.1980  -49.9429 C.ar      23 UNK        -0.1150 
     15 C15         2.5378  -19.6683  -50.5181 C.3       23 UNK        -0.0205 
     16 S16         2.2582  -20.6394  -49.0019 S.3       23 UNK        -0.2404 
     17 C17         0.5020  -21.0975  -49.1806 C.3       23 UNK        -0.0398 
     18 CA          0.0569  -22.1831  -48.1706 C.3       11 UNK         0.1400 
     19 N           0.0311  -21.6990  -46.7864 N.am      11 UNK        -0.5000 
     20 C          -0.1991  -22.4631  -45.7084 C.2       10 UNK         0.5000 
     21 O          -0.3694  -23.6809  -45.7578 O.2       10 UNK        -0.5000 
     22 CA         -0.3157  -21.7446  -44.3509 C.3       10 UNK         0.1400 
     23 CB          1.0683  -21.3854  -43.7907 C.3       10 UNK        -0.1800 
     24 N          -1.1552  -20.5476  -44.4205 N.am      10 UNK        -0.5000 
     25 C          -2.4636  -20.5604  -44.7157 C.2       9 UNK         0.5000 
     26 O          -3.1105  -21.5877  -44.9142 O.2       9 UNK        -0.5000 
     27 CA         -3.1584  -19.1966  -44.8654 C.3       9 UNK         0.1400 
     28 CB         -3.5734  -18.6324  -43.4985 C.3       9 UNK        -0.1800 
     29 N          -2.3187  -18.2278  -45.5659 N.am      9 UNK        -0.5000 
     30 C          -1.9570  -18.3312  -46.8527 C.2       8 UNK         0.5000 
     31 O          -2.3299  -19.2321  -47.6045 O.2       8 UNK        -0.5000 
     32 CA         -0.9655  -17.2738  -47.3620 C.3       8 UNK         0.1400 
     33 CB         -1.7063  -15.9722  -47.7059 C.3       8 UNK        -0.1800 
     34 N           0.1031  -17.0089  -46.3951 N.am      8 UNK        -0.5000 
     35 C           1.0111  -17.9243  -46.0212 C.2       7 UNK         0.5000 
     36 O           1.0302  -19.0719  -46.4556 O.2       7 UNK        -0.5000 
     37 CA          2.0302  -17.5321  -44.9357 C.3       7 UNK         0.1400 
     38 CB          3.3053  -16.9544  -45.5645 C.3       7 UNK        -0.1800 
     39 N           1.4907  -16.5946  -43.9526 N.am      7 UNK        -0.5000 
     40 C           0.4686  -16.8641  -43.1273 C.2       6 UNK         0.5000 
     41 O          -0.0984  -17.9569  -43.0793 O.2       6 UNK        -0.5000 
     42 CA         -0.0286  -15.7059  -42.2402 C.3       6 UNK         0.1400 
     43 CB          0.6039  -15.7943  -40.8442 C.3       6 UNK        -0.1800 
     44 N           0.2259  -14.3778  -42.8147 N.am      6 UNK        -0.5000 
     45 C          -0.3324  -13.9310  -43.9521 C.2       5 UNK         0.5000 
     46 O          -1.0999  -14.6173  -44.6277 O.2       5 UNK        -0.5000 
     47 CA          0.0629  -12.5265  -44.4599 C.3       5 UNK         0.1400 
     48 CB         -1.0945  -11.8092  -45.1840 C.3       5 UNK        -0.1800 
     49 N           0.6814  -11.6531  -43.4570 N.am      5 UNK        -0.5000 
     50 C           0.1232  -11.1834  -42.3316 C.2       4 UNK         0.5000 
     51 O          -1.0419  -11.4103  -42.0007 O.2       4 UNK        -0.5000 
     52 CA          1.0387  -10.3388  -41.4147 C.3       4 UNK         0.1400 
     53 CB          0.4901  -10.2245  -39.9773 C.3       4 UNK        -0.1800 
     54 N           2.4377  -10.7902  -41.3765 N.am      4 UNK        -0.5000 
     55 C           2.8907  -12.0190  -41.0879 C.2       3 UNK         0.5000 
     56 O           2.1551  -12.9908  -40.9118 O.2       3 UNK        -0.5000 
     57 CA          4.4237  -12.1896  -41.0298 C.3       3 UNK         0.1400 
     58 CB          4.8439  -13.6203  -40.6450 C.3       3 UNK        -0.1800 
     59 N           5.0459  -11.8506  -42.3086 N.am      3 UNK        -0.5000 
     60 C           5.2985  -10.6136  -42.7574 C.2       2 UNK         0.5000 
     61 O           5.0820   -9.5937  -42.1016 O.2       2 UNK        -0.5000 
     62 CA          5.8299  -10.4999  -44.2002 C.3       2 UNK         0.1400 
     63 CB          7.3658  -10.4967  -44.2125 C.3       2 UNK        -0.1800 
     64 N           5.3439  -11.5712  -45.0762 N.am      2 UNK        -0.5000 
     65 C           4.0604  -11.7632  -45.4152 C.2       1 UNK         0.5000 
     66 O           3.1484  -11.0354  -45.0189 O.2       1 UNK        -0.5000 
     67 C          -1.2994  -22.7862  -48.5875 C.2       11 UNK         0.5000 
     68 O          -1.3196  -23.8838  -49.1434 O.2       11 UNK        -0.5000 
     69 N          -2.4042  -22.0888  -48.2825 N.am      12 UNK        -0.5000 
     70 CA         -3.7683  -22.5528  -48.5450 C.3       12 UNK         0.1400 
     71 CB         -4.7696  -21.4319  -48.2341 C.3       12 UNK        -0.1800 
     72 C          -4.1231  -23.8395  -47.7804 C.2       12 UNK         0.5000 
     73 O          -4.7222  -24.7401  -48.3681 O.2       12 UNK        -0.5000 
     74 N          -3.7179  -23.9225  -46.5053 N.am      13 UNK        -0.5000 
     75 CA         -3.8792  -25.1048  -45.6595 C.3       13 UNK         0.1400 
     76 CB         -3.5088  -24.7647  -44.2082 C.3       13 UNK        -0.1800 
     77 C          -3.0653  -26.3078  -46.1668 C.2       13 UNK         0.5000 
     78 O          -3.6094  -27.4088  -46.2519 O.2       13 UNK        -0.5000 
     79 N          -1.7977  -26.0733  -46.5372 N.am      14 UNK        -0.5000 
     80 CA         -0.8961  -27.0769  -47.1106 C.3       14 UNK         0.1400 
     81 CB          0.5167  -26.4870  -47.2356 C.3       14 UNK        -0.1800 
     82 C          -1.3822  -27.6154  -48.4693 C.2       14 UNK         0.5000 
     83 O          -1.2601  -28.8125  -48.7306 O.2       14 UNK        -0.5000 
     84 N          -1.9587  -26.7286  -49.2901 N.am      15 UNK        -0.5000 
     85 CA         -2.5874  -27.0526  -50.5699 C.3       15 UNK         0.1400 
     86 CB         -2.6558  -25.7742  -51.4186 C.3       15 UNK        -0.1800 
     87 C          -3.9946  -27.6680  -50.4326 C.2       15 UNK         0.5000 
     88 O          -4.5703  -28.0580  -51.4481 O.2       15 UNK        -0.5000 
     89 N          -4.5517  -27.7006  -49.2115 N.am      16 UNK        -0.5000 
     90 CA         -5.9114  -28.1368  -48.8666 C.3       16 UNK         0.1400 
     91 CB         -6.0416  -29.6654  -49.0248 C.3       16 UNK        -0.1800 
     92 C          -7.0042  -27.3561  -49.6325 C.2       16 UNK         0.5000 
     93 O          -8.0249  -27.9290  -50.0169 O.2       16 UNK        -0.5000 
     94 N          -6.7363  -26.0633  -49.8698 N.am      17 UNK        -0.5000 
     95 CA         -7.5142  -25.0970  -50.6515 C.3       17 UNK         0.1400 
     96 CB         -8.8823  -24.8344  -49.9894 C.3       17 UNK        -0.1800 
     97 C          -7.6451  -25.4254  -52.1579 C.2       17 UNK         0.5000 
     98 O          -8.4138  -24.7551  -52.8490 O.2       17 UNK        -0.5000 
     99 N          -6.8900  -26.4133  -52.6642 N.am      18 UNK        -0.5000 
    100 CA        -6.8653  -26.7900  -54.0827 C.3       18 UNK         0.1400 
    101 CB        -6.4336  -28.2594  -54.2076 C.3       18 UNK        -0.1800 
    102 C         -5.9458  -25.8820  -54.9247 C.2       18 UNK         0.5000 
    103 O         -6.0229  -25.9099  -56.1537 O.2       18 UNK        -0.5000 
    104 N         -5.0999  -25.0956  -54.2535 N.am      19 UNK        -0.5000 
    105 CA        -4.1969  -24.0982  -54.8112 C.3       19 UNK         0.1400 
    106 CB        -2.8874  -24.7689  -55.2710 C.3       19 UNK        -0.1800 
    107 C         -3.9640  -23.0171  -53.7415 C.2       19 UNK         0.5000 
    108 O         -4.5533  -23.0932  -52.6587 O.2       19 UNK        -0.5000 
    109 N         -3.1199  -22.0279  -54.0704 N.am      20 UNK        -0.5000 
    110 CA        -2.7778  -20.8570  -53.2494 C.3       20 UNK         0.1400 
    111 CB        -2.0489  -21.2719  -51.9544 C.3       20 UNK        -0.1800 
    112 C         -3.9789  -19.9178  -53.0044 C.2       20 UNK         0.5000 
    113 O         -4.0677  -19.2678  -51.9621 O.2       20 UNK        -0.5000 
    114 N         -4.8755  -19.8371  -53.9952 N.am      21 UNK        -0.5000 
    115 CA        -6.0183  -18.9286  -54.0263 C.3       21 UNK         0.1400 
    116 CB        -7.1411  -19.5781  -54.8555 C.3       21 UNK        -0.1800 
    117 C         -5.5787  -17.5593  -54.5805 C.2       21 UNK         0.5000 
    118 O         -5.9446  -17.1971  -55.7003 O.2       21 UNK        -0.5000 
    119 N         -4.7583  -16.8434  -53.8010 N.am      22 UNK        -0.5000 
    120 CA        -4.1851  -15.5334  -54.1628 C.3       22 UNK         0.1400 
    121 C         -5.2099  -14.3602  -54.2291 C.2       22 UNK         0.5000 
    122 N         -6.4169  -14.4943  -53.6926 N.am      22 UNK        -0.7600 
    123 O         -4.9026  -13.3076  -54.7819 O.2       22 UNK        -0.5000 
    124 C124       -2.9912  -15.1434  -53.2532 C.3       23 UNK        -0.0398 
    125 S125       -1.6275  -16.3635  -53.2522 S.3       23 UNK        -0.2404 
    126 C126       -1.5456  -16.8384  -51.4961 C.3       23 UNK        -0.0205 
    127 H127        7.8522  -14.0416  -47.7343 H         1 UNK         0.0600 
    128 H128        6.7570  -15.3760  -47.3606 H         1 UNK         0.0600 
    129 H129        6.8322  -14.7307  -49.0020 H         1 UNK         0.0600 
    130 H130        4.9757  -14.6982  -46.2577 H         1 UNK         0.3000 
    131 H131        3.2031  -13.6545  -45.5372 H         1 UNK         0.0600 
    132 H132        1.9761  -11.9435  -47.1016 H         1 UNK         0.0800 
    133 H133        3.1887  -12.3044  -48.2825 H         1 UNK         0.0800 
    134 H134        2.4797  -13.9142  -50.1027 H         1 UNK         0.0800 
    135 H135        3.5717  -14.9276  -49.1838 H         1 UNK         0.0800 
    136 H136        0.0413  -14.8812  -50.4728 H         1 UNK         0.1150 
    137 H137        0.0510  -19.0535  -51.4440 H         1 UNK         0.1150 
    138 H138        3.4546  -17.2955  -49.5234 H         1 UNK         0.1150 
    139 H139        2.2201  -20.2459  -51.3875 H         1 UNK         0.0800 
    140 H140        3.6109  -19.5124  -50.6377 H         1 UNK         0.0800 
    141 H141        0.3633  -21.4504  -50.2037 H         1 UNK         0.0800 
    142 H142       -0.1113  -20.2017  -49.0718 H         1 UNK         0.0800 
    143 H143        0.7853  -22.9959  -48.2106 H         1 UNK         0.0600 
    144 H144        0.2304  -20.7089  -46.6550 H         1 UNK         0.3000 
    145 H145       -0.7900  -22.4353  -43.6506 H         1 UNK         0.0600 
    146 H146        0.9872  -20.8728  -42.8320 H         1 UNK         0.0600 
    147 H147        1.6654  -22.2840  -43.6316 H         1 UNK         0.0600 
    148 H148        1.6263  -20.7421  -44.4697 H         1 UNK         0.0600 
    149 H149       -0.7053  -19.6572  -44.2420 H         1 UNK         0.3000 
    150 H150       -4.0631  -19.3468  -45.4581 H         1 UNK         0.0600 
    151 H151       -4.2348  -19.3259  -42.9775 H         1 UNK         0.0600 
    152 H152       -4.1110  -17.6904  -43.6073 H         1 UNK         0.0600 
    153 H153       -2.7130  -18.4548  -42.8532 H         1 UNK         0.0600 
    154 H154       -1.9331  -17.4731  -45.0163 H         1 UNK         0.3000 
    155 H155       -0.5029  -17.6605  -48.2713 H         1 UNK         0.0600 
    156 H156       -1.0291  -15.2202  -48.1072 H         1 UNK         0.0600 
    157 H157       -2.2016  -15.5443  -46.8345 H         1 UNK         0.0600 
    158 H158       -2.4746  -16.1520  -48.4582 H         1 UNK         0.0600 
    159 H159        0.1087  -16.0954  -45.9623 H         1 UNK         0.3000 
    160 H160        2.3065  -18.4422  -44.4001 H         1 UNK         0.0600 
    161 H161        3.0984  -16.0431  -46.1207 H         1 UNK         0.0600 
    162 H162        3.7497  -17.6659  -46.2620 H         1 UNK         0.0600 
    163 H163        4.0554  -16.7292  -44.8063 H         1 UNK         0.0600 
    164 H164        1.8985  -15.6733  -43.9199 H         1 UNK         0.3000 
    165 H165       -1.1091  -15.8198  -42.1313 H         1 UNK         0.0600 
    166 H166        1.6893  -15.6957  -40.8877 H         1 UNK         0.0600 
    167 H167        0.2221  -15.0121  -40.1877 H         1 UNK         0.0600 
    168 H168        0.3799  -16.7524  -40.3735 H         1 UNK         0.0600 
    169 H169        0.8418  -13.7678  -42.2860 H         1 UNK         0.3000 
    170 H170        0.8374  -12.7076  -45.2017 H         1 UNK         0.0600 
    171 H171       -1.4412  -12.3901  -46.0398 H         1 UNK         0.0600 
    172 H172       -1.9504  -11.6543  -44.5269 H         1 UNK         0.0600 
    173 H173       -0.7794  -10.8369  -45.5626 H         1 UNK         0.0600 
    174 H174        1.6385  -11.3828  -43.6596 H         1 UNK         0.3000 
    175 H175        1.0520   -9.3364  -41.8447 H         1 UNK         0.0600 
    176 H176        1.1336   -9.5995  -39.3581 H         1 UNK         0.0600 
    177 H177       -0.5023   -9.7722  -39.9686 H         1 UNK         0.0600 
    178 H178        0.4106  -11.2014  -39.4988 H         1 UNK         0.0600 
    179 H179        3.1367  -10.0784  -41.5616 H         1 UNK         0.3000 
    180 H180        4.7981  -11.5130  -40.2587 H         1 UNK         0.0600 
    181 H181        4.5052  -14.3528  -41.3789 H         1 UNK         0.0600 
    182 H182        4.4242  -13.9046  -39.6792 H         1 UNK         0.0600 
    183 H183        5.9277  -13.7040  -40.5631 H         1 UNK         0.0600 
    184 H184        5.2373  -12.6230  -42.9288 H         1 UNK         0.3000 
    185 H185        5.4808   -9.5483  -44.6064 H         1 UNK         0.0600 
    186 H186        7.7517  -10.3424  -45.2205 H         1 UNK         0.0600 
    187 H187        7.7594   -9.6931  -43.5886 H         1 UNK         0.0600 
    188 H188        7.7742  -11.4353  -43.8358 H         1 UNK         0.0600 
    189 H189        6.0340  -12.2097  -45.4433 H         1 UNK         0.3000 
    190 H190       -2.3116  -21.1710  -47.8558 H         1 UNK         0.3000 
    191 H191       -3.8470  -22.7842  -49.6082 H         1 UNK         0.0600 
    192 H192       -4.5779  -20.5538  -48.8518 H         1 UNK         0.0600 
    193 H193       -5.7920  -21.7541  -48.4351 H         1 UNK         0.0600 
    194 H194       -4.7188  -21.1246  -47.1894 H         1 UNK         0.0600 
    195 H195       -3.2784  -23.1135  -46.0745 H         1 UNK         0.3000 
    196 H196       -4.9340  -25.3865  -45.6804 H         1 UNK         0.0600 
    197 H197       -3.6281  -25.6337  -43.5599 H         1 UNK         0.0600 
    198 H198       -4.1488  -23.9751  -43.8142 H         1 UNK         0.0600 
    199 H199       -2.4750  -24.4295  -44.1228 H         1 UNK         0.0600 
    200 H200       -1.4103  -25.1425  -46.4018 H         1 UNK         0.3000 
    201 H201       -0.8528  -27.9194  -46.4174 H         1 UNK         0.0600 
    202 H202        0.9038  -26.1830  -46.2629 H         1 UNK         0.0600 
    203 H203        0.5312  -25.6137  -47.8885 H         1 UNK         0.0600 
    204 H204        1.2119  -27.2190  -47.6483 H         1 UNK         0.0600 
    205 H205       -1.9529  -25.7465  -49.0285 H         1 UNK         0.3000 
    206 H206       -1.9639  -27.7786  -51.0953 H         1 UNK         0.0600 
    207 H207       -1.6636  -25.3571  -51.5910 H         1 UNK         0.0600 
    208 H208       -3.0959  -25.9805  -52.3932 H         1 UNK         0.0600 
    209 H209       -3.2636  -25.0054  -50.9396 H         1 UNK         0.0600 
    210 H210       -4.0103  -27.3356  -48.4380 H         1 UNK         0.3000 
    211 H211       -6.0500  -27.8981  -47.8113 H         1 UNK         0.0600 
    212 H212       -5.9661  -29.9723  -50.0685 H         1 UNK         0.0600 
    213 H213       -7.0025  -30.0179  -48.6483 H         1 UNK         0.0600 
    214 H214       -5.2645  -30.1858  -48.4650 H         1 UNK         0.0600 
    215 H215       -5.8847  -25.6867  -49.4560 H         1 UNK         0.3000 
    216 H216       -6.9467  -24.1662  -50.6054 H         1 UNK         0.0600 
    217 H217       -8.7673  -24.5782  -48.9362 H         1 UNK         0.0600 
    218 H218       -9.5380  -25.7029  -50.0549 H         1 UNK         0.0600 
    219 H219       -9.3972  -24.0012  -50.4689 H         1 UNK         0.0600 
    220 H220       -6.2713  -26.9324  -52.0508 H         1 UNK         0.3000 
    221 H221       -7.8753  -26.7035  -54.4888 H         1 UNK         0.0600 
    222 H222       -5.3935  -28.4012  -53.9138 H         1 UNK         0.0600 
    223 H223       -7.0510  -28.9090  -53.5867 H         1 UNK         0.0600 
    224 H224       -6.5294  -28.6058  -55.2374 H         1 UNK         0.0600 
    225 H225       -5.1599  -25.0713  -53.2437 H         1 UNK         0.3000 
    226 H226       -4.6797  -23.6192  -55.6654 H         1 UNK         0.0600 
    227 H227       -3.0838  -25.5855  -55.9660 H         1 UNK         0.0600 
    228 H228       -2.2403  -24.0607  -55.7888 H         1 UNK         0.0600 
    229 H229       -2.3218  -25.1747  -54.4327 H         1 UNK         0.0600 
    230 H230       -2.6827  -22.0569  -54.9811 H         1 UNK         0.3000 
    231 H231       -2.0710  -20.2693  -53.8371 H         1 UNK         0.0600 
    232 H232       -1.7704  -20.4036  -51.3586 H         1 UNK         0.0600 
    233 H233       -1.1368  -21.8244  -52.1781 H         1 UNK         0.0600 
    234 H234       -2.6712  -21.9016  -51.3232 H         1 UNK         0.0600 
    235 H235       -4.7139  -20.3798  -54.8303 H         1 UNK         0.3000 
    236 H236       -6.3985  -18.7752  -53.0140 H         1 UNK         0.0600 
    237 H237       -8.0175  -18.9303  -54.9002 H         1 UNK         0.0600 
    238 H238       -6.8262  -19.7781  -55.8804 H         1 UNK         0.0600 
    239 H239       -7.4587  -20.5229  -54.4135 H         1 UNK         0.0600 
    240 H240       -4.4674  -17.2383  -52.9158 H         1 UNK         0.3000 
    241 H241       -3.7930  -15.6346  -55.1767 H         1 UNK         0.0600 
    242 H242       -6.6842  -15.3508  -53.2350 H         1 UNK         0.3800 
    243 H243       -7.0716  -13.7294  -53.7460 H         1 UNK         0.3800 
    244 H244       -2.5613  -14.1961  -53.5841 H         1 UNK         0.0800 
    245 H245       -3.3466  -14.9649  -52.2379 H         1 UNK         0.0800 
    246 H246       -2.0672  -16.1131  -50.8721 H         1 UNK         0.0800 
    247 H247       -2.0663  -17.7842  -51.3517 H         1 UNK         0.0800 
@<TRIPOS>BOND
     1    1    2 1    
     2    1  127 1    
     3    1  128 1    
     4    1  129 1    
     5    2    3 2    
     6    2    4 am   BACKBONE|DICT|INTERRES
     7    4    5 1    
     8    4  130 1    
     9    5    6 1    
    10    5   65 1    
    11    5  131 1    
    12    6    7 1    
    13    6  132 1    
    14    6  133 1    
    15    7    8 1    
    16    8    9 1    
    17    8  134 1    
    18    8  135 1    
    19    9   10 ar   
    20    9   14 ar   
    21   10   11 ar   
    22   10  136 1    
    23   11   12 ar   
    24   11  126 1    
    25   12   13 ar   
    26   12  137 1    
    27   13   14 ar   
    28   13   15 1    
    29   14  138 1    
    30   15   16 1    
    31   15  139 1    
    32   15  140 1    
    33   16   17 1    
    34   17   18 1    
    35   17  141 1    
    36   17  142 1    
    37   18   19 1    
    38   18   67 1    
    39   18  143 1    
    40   19   20 am   BACKBONE|DICT|INTERRES
    41   19  144 1    
    42   20   21 2    
    43   20   22 1    
    44   22   23 1    
    45   22   24 1    
    46   22  145 1    
    47   23  146 1    
    48   23  147 1    
    49   23  148 1    
    50   24   25 am   BACKBONE|DICT|INTERRES
    51   24  149 1    
    52   25   26 2    
    53   25   27 1    
    54   27   28 1    
    55   27   29 1    
    56   27  150 1    
    57   28  151 1    
    58   28  152 1    
    59   28  153 1    
    60   29   30 am   BACKBONE|DICT|INTERRES
    61   29  154 1    
    62   30   31 2    
    63   30   32 1    
    64   32   33 1    
    65   32   34 1    
    66   32  155 1    
    67   33  156 1    
    68   33  157 1    
    69   33  158 1    
    70   34   35 am   BACKBONE|DICT|INTERRES
    71   34  159 1    
    72   35   36 2    
    73   35   37 1    
    74   37   38 1    
    75   37   39 1    
    76   37  160 1    
    77   38  161 1    
    78   38  162 1    
    79   38  163 1    
    80   39   40 am   BACKBONE|DICT|INTERRES
    81   39  164 1    
    82   40   41 2    
    83   40   42 1    
    84   42   43 1    
    85   42   44 1    
    86   42  165 1    
    87   43  166 1    
    88   43  167 1    
    89   43  168 1    
    90   44   45 am   BACKBONE|DICT|INTERRES
    91   44  169 1    
    92   45   46 2    
    93   45   47 1    
    94   47   48 1    
    95   47   49 1    
    96   47  170 1    
    97   48  171 1    
    98   48  172 1    
    99   48  173 1    
   100   49   50 am   BACKBONE|DICT|INTERRES
   101   49  174 1    
   102   50   51 2    
   103   50   52 1    
   104   52   53 1    
   105   52   54 1    
   106   52  175 1    
   107   53  176 1    
   108   53  177 1    
   109   53  178 1    
   110   54   55 am   BACKBONE|DICT|INTERRES
   111   54  179 1    
   112   55   56 2    
   113   55   57 1    
   114   57   58 1    
   115   57   59 1    
   116   57  180 1    
   117   58  181 1    
   118   58  182 1    
   119   58  183 1    
   120   59   60 am   BACKBONE|DICT|INTERRES
   121   59  184 1    
   122   60   61 2    
   123   60   62 1    
   124   62   63 1    
   125   62   64 1    
   126   62  185 1    
   127   63  186 1    
   128   63  187 1    
   129   63  188 1    
   130   64   65 am   BACKBONE|DICT|INTERRES
   131   64  189 1    
   132   65   66 2    
   133   67   68 2    
   134   67   69 am   BACKBONE|DICT|INTERRES
   135   69   70 1    
   136   69  190 1    
   137   70   71 1    
   138   70   72 1    
   139   70  191 1    
   140   71  192 1    
   141   71  193 1    
   142   71  194 1    
   143   72   73 2    
   144   72   74 am   BACKBONE|DICT|INTERRES
   145   74   75 1    
   146   74  195 1    
   147   75   76 1    
   148   75   77 1    
   149   75  196 1    
   150   76  197 1    
   151   76  198 1    
   152   76  199 1    
   153   77   78 2    
   154   77   79 am   BACKBONE|DICT|INTERRES
   155   79   80 1    
   156   79  200 1    
   157   80   81 1    
   158   80   82 1    
   159   80  201 1    
   160   81  202 1    
   161   81  203 1    
   162   81  204 1    
   163   82   83 2    
   164   82   84 am   BACKBONE|DICT|INTERRES
   165   84   85 1    
   166   84  205 1    
   167   85   86 1    
   168   85   87 1    
   169   85  206 1    
   170   86  207 1    
   171   86  208 1    
   172   86  209 1    
   173   87   88 2    
   174   87   89 am   BACKBONE|DICT|INTERRES
   175   89   90 1    
   176   89  210 1    
   177   90   91 1    
   178   90   92 1    
   179   90  211 1    
   180   91  212 1    
   181   91  213 1    
   182   91  214 1    
   183   92   93 2    
   184   92   94 am   BACKBONE|DICT|INTERRES
   185   94   95 1    
   186   94  215 1    
   187   95   96 1    
   188   95   97 1    
   189   95  216 1    
   190   96  217 1    
   191   96  218 1    
   192   96  219 1    
   193   97   98 2    
   194   97   99 am   BACKBONE|DICT|INTERRES
   195   99  100 1    
   196   99  220 1    
   197  100  101 1    
   198  100  102 1    
   199  100  221 1    
   200  101  222 1    
   201  101  223 1    
   202  101  224 1    
   203  102  103 2    
   204  102  104 am   BACKBONE|DICT|INTERRES
   205  104  105 1    
   206  104  225 1    
   207  105  106 1    
   208  105  107 1    
   209  105  226 1    
   210  106  227 1    
   211  106  228 1    
   212  106  229 1    
   213  107  108 2    
   214  107  109 am   BACKBONE|DICT|INTERRES
   215  109  110 1    
   216  109  230 1    
   217  110  111 1    
   218  110  112 1    
   219  110  231 1    
   220  111  232 1    
   221  111  233 1    
   222  111  234 1    
   223  112  113 2    
   224  112  114 am   BACKBONE|DICT|INTERRES
   225  114  115 1    
   226  114  235 1    
   227  115  116 1    
   228  115  117 1    
   229  115  236 1    
   230  116  237 1    
   231  116  238 1    
   232  116  239 1    
   233  117  118 2    
   234  117  119 am   BACKBONE|DICT|INTERRES
   235  119  120 1    
   236  119  240 1    
   237  120  121 1    
   238  120  124 1    
   239  120  241 1    
   240  121  122 am   BACKBONE|DICT|INTERRES
   241  121  123 2    
   242  122  242 1    
   243  122  243 1    
   244  124  125 1    
   245  124  244 1    
   246  124  245 1    
   247  125  126 1    
   248  126  246 1    
   249  126  247 1    
@<TRIPOS>SUBSTRUCTURE
     1 UNK         1 GROUP             0       ****    0 ROOT    
