@<TRIPOS>MOLECULE
3R540
247   249    1
SMALL
USER_CHARGES


@<TRIPOS>ATOM
      1 CA          3.3146  -12.1686  -44.9929 C.3       0 UNK        -0.1800 
      2 C           1.9059  -12.1414  -45.5672 C.2       0 UNK         0.5000 
      3 O           0.9443  -11.9516  -44.8231 O.2       0 UNK        -0.5000 
      4 N           1.7808  -12.3156  -46.8904 N.am      1 UNK        -0.5000 
      5 CA          0.5075  -12.4141  -47.6221 C.3       1 UNK         0.1400 
      6 C6          0.7037  -12.8154  -49.1046 C.3       23 UNK        -0.0398 
      7 S7          1.7526  -14.2931  -49.3300 S.3       23 UNK        -0.2404 
      8 C8          0.5170  -15.6226  -49.4388 C.3       23 UNK        -0.0205 
      9 C9          1.1659  -16.9119  -49.9182 C.ar      23 UNK        -0.0193 
     10 C10         1.1870  -17.2139  -51.2818 C.ar      23 UNK        -0.1150 
     11 C11         1.7851  -18.3909  -51.7447 C.ar      23 UNK        -0.0193 
     12 C12         2.3986  -19.2484  -50.8252 C.ar      23 UNK        -0.1150 
     13 C13         2.3913  -18.9591  -49.4569 C.ar      23 UNK        -0.0193 
     14 C14         1.7630  -17.7926  -49.0118 C.ar      23 UNK        -0.1150 
     15 C15         3.1077  -19.8692  -48.4631 C.3       23 UNK        -0.0205 
     16 S16         2.6185  -21.6209  -48.5915 S.3       23 UNK        -0.2404 
     17 C17         0.8906  -21.5541  -48.0195 C.3       23 UNK        -0.0398 
     18 CA          0.3802  -22.9195  -47.5034 C.3       11 UNK         0.1400 
     19 N           1.2014  -23.4481  -46.4109 N.am      11 UNK        -0.5000 
     20 C           1.2475  -24.7408  -46.0606 C.2       10 UNK         0.5000 
     21 O           0.5781  -25.6188  -46.6037 O.2       10 UNK        -0.5000 
     22 CA          2.1638  -25.1085  -44.8781 C.3       10 UNK         0.1400 
     23 CB          3.5954  -25.3668  -45.3701 C.3       10 UNK        -0.1800 
     24 N           2.1921  -24.0843  -43.8331 N.am      10 UNK        -0.5000 
     25 C           1.1262  -23.6781  -43.1296 C.2       9 UNK         0.5000 
     26 O           0.0019  -24.1603  -43.2577 O.2       9 UNK        -0.5000 
     27 CA          1.3355  -22.4999  -42.1618 C.3       9 UNK         0.1400 
     28 CB          1.6279  -23.0156  -40.7452 C.3       9 UNK        -0.1800 
     29 N           2.3983  -21.5750  -42.5695 N.am      9 UNK        -0.5000 
     30 C           2.4012  -20.8604  -43.7020 C.2       8 UNK         0.5000 
     31 O           1.5392  -20.9529  -44.5811 O.2       8 UNK        -0.5000 
     32 CA          3.5803  -19.9045  -43.9039 C.3       8 UNK         0.1400 
     33 CB          4.6550  -20.5440  -44.7977 C.3       8 UNK        -0.1800 
     34 N           3.0634  -18.7007  -44.5391 N.am      8 UNK        -0.5000 
     35 C           3.4198  -17.4458  -44.2433 C.2       7 UNK         0.5000 
     36 O           4.3187  -17.1585  -43.4520 O.2       7 UNK        -0.5000 
     37 CA          2.6427  -16.3138  -44.9460 C.3       7 UNK         0.1400 
     38 CB          3.4738  -15.7420  -46.1049 C.3       7 UNK        -0.1800 
     39 N           1.3347  -16.7292  -45.4621 N.am      7 UNK        -0.5000 
     40 C           0.2692  -17.0238  -44.7075 C.2       6 UNK         0.5000 
     41 O           0.2606  -16.9681  -43.4761 O.2       6 UNK        -0.5000 
     42 CA         -0.9950  -17.4816  -45.4601 C.3       6 UNK         0.1400 
     43 CB         -1.2254  -18.9868  -45.2690 C.3       6 UNK        -0.1800 
     44 N          -2.1760  -16.7535  -45.0017 N.am      6 UNK        -0.5000 
     45 C          -2.3815  -15.4539  -45.2393 C.2       5 UNK         0.5000 
     46 O          -1.6281  -14.7635  -45.9310 O.2       5 UNK        -0.5000 
     47 CA         -3.6282  -14.8212  -44.6033 C.3       5 UNK         0.1400 
     48 CB         -3.4959  -14.7281  -43.0722 C.3       5 UNK        -0.1800 
     49 N          -3.7789  -13.4837  -45.1573 N.am      5 UNK        -0.5000 
     50 C          -4.9111  -12.7886  -45.2914 C.2       4 UNK         0.5000 
     51 O          -6.0181  -13.2018  -44.9411 O.2       4 UNK        -0.5000 
     52 CA         -4.7473  -11.3897  -45.9199 C.3       4 UNK         0.1400 
     53 CB         -6.0179  -10.5177  -45.8330 C.3       4 UNK        -0.1800 
     54 N          -3.5721  -10.6923  -45.3832 N.am      4 UNK        -0.5000 
     55 C          -3.3769  -10.2753  -44.1201 C.2       3 UNK         0.5000 
     56 O          -4.2292  -10.3545  -43.2346 O.2       3 UNK        -0.5000 
     57 CA         -1.9914   -9.6911  -43.7625 C.3       3 UNK         0.1400 
     58 CB         -1.2879  -10.5821  -42.7256 C.3       3 UNK        -0.1800 
     59 N          -1.1053   -9.5293  -44.9172 N.am      3 UNK        -0.5000 
     60 C          -1.2293   -8.5763  -45.8530 C.2       2 UNK         0.5000 
     61 O          -2.0535   -7.6640  -45.7852 O.2       2 UNK        -0.5000 
     62 CA         -0.3087   -8.6673  -47.0890 C.3       2 UNK         0.1400 
     63 CB          0.8104   -7.6180  -47.0029 C.3       2 UNK        -0.1800 
     64 N           0.2986   -9.9849  -47.2969 N.am      2 UNK        -0.5000 
     65 C          -0.3544  -11.1347  -47.5254 C.2       1 UNK         0.5000 
     66 O          -1.5807  -11.2140  -47.6165 O.2       1 UNK        -0.5000 
     67 C          -1.1129  -22.8541  -47.1140 C.2       11 UNK         0.5000 
     68 O          -1.9711  -22.9662  -47.9891 O.2       11 UNK        -0.5000 
     69 N          -1.4034  -22.7117  -45.8118 N.am      12 UNK        -0.5000 
     70 CA         -2.7516  -22.8520  -45.2626 C.3       12 UNK         0.1400 
     71 CB         -2.8366  -22.1879  -43.8797 C.3       12 UNK        -0.1800 
     72 C          -3.1685  -24.3310  -45.1871 C.2       12 UNK         0.5000 
     73 O          -4.2654  -24.6754  -45.6278 O.2       12 UNK        -0.5000 
     74 N          -2.2755  -25.1765  -44.6496 N.am      13 UNK        -0.5000 
     75 CA         -2.4765  -26.6145  -44.4539 C.3       13 UNK         0.1400 
     76 CB         -1.2734  -27.2040  -43.7039 C.3       13 UNK        -0.1800 
     77 C          -2.7294  -27.3884  -45.7595 C.2       13 UNK         0.5000 
     78 O          -3.5516  -28.3059  -45.7690 O.2       13 UNK        -0.5000 
     79 N          -2.0669  -26.9790  -46.8495 N.am      14 UNK        -0.5000 
     80 CA         -2.2657  -27.4823  -48.2103 C.3       14 UNK         0.1400 
     81 CB         -1.0071  -27.1783  -49.0390 C.3       14 UNK        -0.1800 
     82 C          -3.5663  -26.9458  -48.8537 C.2       14 UNK         0.5000 
     83 O          -3.5309  -26.3303  -49.9216 O.2       14 UNK        -0.5000 
     84 N          -4.6928  -27.1979  -48.1704 N.am      15 UNK        -0.5000 
     85 CA         -6.0834  -26.9345  -48.5569 C.3       15 UNK         0.1400 
     86 CB         -6.4897  -27.8752  -49.7105 C.3       15 UNK        -0.1800 
     87 C          -6.3995  -25.4563  -48.8700 C.2       15 UNK         0.5000 
     88 O          -7.3013  -25.1866  -49.6649 O.2       15 UNK        -0.5000 
     89 N          -5.6388  -24.5251  -48.2751 N.am      16 UNK        -0.5000 
     90 CA         -5.6481  -23.0634  -48.4474 C.3       16 UNK         0.1400 
     91 CB         -6.9786  -22.4576  -47.9665 C.3       16 UNK        -0.1800 
     92 C          -5.2903  -22.5506  -49.8597 C.2       16 UNK         0.5000 
     93 O          -4.7493  -21.4508  -49.9776 O.2       16 UNK        -0.5000 
     94 N          -5.5660  -23.3418  -50.9040 N.am      17 UNK        -0.5000 
     95 CA         -5.3030  -23.0645  -52.3165 C.3       17 UNK         0.1400 
     96 CB         -5.7769  -24.2575  -53.1582 C.3       17 UNK        -0.1800 
     97 C          -3.8307  -22.7447  -52.6211 C.2       17 UNK         0.5000 
     98 O          -3.5596  -21.9114  -53.4851 O.2       17 UNK        -0.5000 
     99 N          -2.9082  -23.3604  -51.8715 N.am      18 UNK        -0.5000 
    100 CA        -1.4734  -23.0937  -51.9488 C.3       18 UNK         0.1400 
    101 CB        -0.7226  -24.1506  -51.1319 C.3       18 UNK        -0.1800 
    102 C         -1.0727  -21.6694  -51.5119 C.2       18 UNK         0.5000 
    103 O         -0.0123  -21.2146  -51.9316 O.2       18 UNK        -0.5000 
    104 N         -1.9105  -20.9946  -50.7101 N.am      19 UNK        -0.5000 
    105 CA        -1.7615  -19.5823  -50.3547 C.3       19 UNK         0.1400 
    106 CB        -2.1087  -19.3807  -48.8683 C.3       19 UNK        -0.1800 
    107 C         -2.6728  -18.6901  -51.2145 C.2       19 UNK         0.5000 
    108 O         -2.2631  -17.5971  -51.6037 O.2       19 UNK        -0.5000 
    109 N         -3.9124  -19.1435  -51.4491 N.am      20 UNK        -0.5000 
    110 CA        -4.9650  -18.3580  -52.0925 C.3       20 UNK         0.1400 
    111 CB        -6.3321  -18.9674  -51.7458 C.3       20 UNK        -0.1800 
    112 C         -4.8020  -18.2252  -53.6169 C.2       20 UNK         0.5000 
    113 O         -5.0891  -17.1558  -54.1571 O.2       20 UNK        -0.5000 
    114 N         -4.3723  -19.3049  -54.2810 N.am      21 UNK        -0.5000 
    115 CA        -4.2164  -19.3836  -55.7349 C.3       21 UNK         0.1400 
    116 CB        -5.1110  -20.5117  -56.2747 C.3       21 UNK        -0.1800 
    117 C         -2.7531  -19.6162  -56.1434 C.2       21 UNK         0.5000 
    118 O         -2.3413  -19.1207  -57.1930 O.2       21 UNK        -0.5000 
    119 N         -1.9998  -20.3561  -55.3176 N.am      22 UNK        -0.5000 
    120 CA        -0.5759  -20.6984  -55.5039 C.3       22 UNK         0.1400 
    121 C         -0.3005  -21.7064  -56.6621 C.2       22 UNK         0.5000 
    122 N         -1.2982  -22.4222  -57.1673 N.am      22 UNK        -0.7600 
    123 O          0.8379  -21.8720  -57.0922 O.2       22 UNK        -0.5000 
    124 C124        0.3608  -19.4551  -55.5564 C.3       23 UNK        -0.0398 
    125 S125        0.2105  -18.4096  -54.0683 S.3       23 UNK        -0.2404 
    126 C126        1.7969  -18.7450  -53.2294 C.3       23 UNK        -0.0205 
    127 H127        3.5453  -11.2142  -44.5198 H         1 UNK         0.0600 
    128 H128        4.0628  -12.3584  -45.7629 H         1 UNK         0.0600 
    129 H129        3.3961  -12.9526  -44.2400 H         1 UNK         0.0600 
    130 H130        2.6084  -12.4672  -47.4498 H         1 UNK         0.3000 
    131 H131       -0.0620  -13.2095  -47.1431 H         1 UNK         0.0600 
    132 H132        1.1732  -11.9990  -49.6566 H         1 UNK         0.0800 
    133 H133       -0.2615  -12.9853  -49.5853 H         1 UNK         0.0800 
    134 H134       -0.2796  -15.3343  -50.1268 H         1 UNK         0.0800 
    135 H135        0.0473  -15.7674  -48.4649 H         1 UNK         0.0800 
    136 H136        0.7270  -16.5327  -51.9835 H         1 UNK         0.1150 
    137 H137        2.8805  -20.1508  -51.1740 H         1 UNK         0.1150 
    138 H138        1.7664  -17.5551  -47.9619 H         1 UNK         0.1150 
    139 H139        4.1811  -19.7958  -48.6419 H         1 UNK         0.0800 
    140 H140        2.9467  -19.5314  -47.4388 H         1 UNK         0.0800 
    141 H141        0.2934  -21.2216  -48.8675 H         1 UNK         0.0800 
    142 H142        0.8001  -20.7913  -47.2465 H         1 UNK         0.0800 
    143 H143        0.4538  -23.6233  -48.3347 H         1 UNK         0.0600 
    144 H144        1.7382  -22.7703  -45.8854 H         1 UNK         0.3000 
    145 H145        1.7832  -26.0297  -44.4336 H         1 UNK         0.0600 
    146 H146        4.2378  -25.7046  -44.5567 H         1 UNK         0.0600 
    147 H147        3.6100  -26.1419  -46.1376 H         1 UNK         0.0600 
    148 H148        4.0415  -24.4695  -45.8013 H         1 UNK         0.0600 
    149 H149        3.0770  -23.6300  -43.6637 H         1 UNK         0.3000 
    150 H150        0.4006  -21.9359  -42.1340 H         1 UNK         0.0600 
    151 H151        0.8407  -23.6899  -40.4047 H         1 UNK         0.0600 
    152 H152        1.6819  -22.1951  -40.0294 H         1 UNK         0.0600 
    153 H153        2.5704  -23.5629  -40.7023 H         1 UNK         0.0600 
    154 H154        3.1535  -21.4485  -41.9108 H         1 UNK         0.3000 
    155 H155        4.0116  -19.6631  -42.9300 H         1 UNK         0.0600 
    156 H156        4.2506  -20.8475  -45.7639 H         1 UNK         0.0600 
    157 H157        5.0770  -21.4321  -44.3258 H         1 UNK         0.0600 
    158 H158        5.4767  -19.8518  -44.9818 H         1 UNK         0.0600 
    159 H159        2.2675  -18.8566  -45.1414 H         1 UNK         0.3000 
    160 H160        2.4818  -15.5189  -44.2146 H         1 UNK         0.0600 
    161 H161        3.7017  -16.5010  -46.8541 H         1 UNK         0.0600 
    162 H162        4.4229  -15.3435  -45.7443 H         1 UNK         0.0600 
    163 H163        2.9503  -14.9272  -46.6023 H         1 UNK         0.0600 
    164 H164        1.2412  -16.7498  -46.4645 H         1 UNK         0.3000 
    165 H165       -0.8701  -17.2899  -46.5281 H         1 UNK         0.0600 
    166 H166       -2.1432  -19.3175  -45.7554 H         1 UNK         0.0600 
    167 H167       -0.4071  -19.5609  -45.6995 H         1 UNK         0.0600 
    168 H168       -1.2862  -19.2495  -44.2124 H         1 UNK         0.0600 
    169 H169       -2.8111  -17.2546  -44.3982 H         1 UNK         0.3000 
    170 H170       -4.4958  -15.4291  -44.8678 H         1 UNK         0.0600 
    171 H171       -3.3926  -15.7159  -42.6223 H         1 UNK         0.0600 
    172 H172       -2.6238  -14.1406  -42.7816 H         1 UNK         0.0600 
    173 H173       -4.3749  -14.2612  -42.6275 H         1 UNK         0.0600 
    174 H174       -2.9183  -13.1053  -45.5344 H         1 UNK         0.3000 
    175 H175       -4.5404  -11.5561  -46.9781 H         1 UNK         0.0600 
    176 H176       -6.3441  -10.3689  -44.8035 H         1 UNK         0.0600 
    177 H177       -5.8535   -9.5367  -46.2787 H         1 UNK         0.0600 
    178 H178       -6.8447  -10.9837  -46.3701 H         1 UNK         0.0600 
    179 H179       -2.7966  -10.6103  -46.0316 H         1 UNK         0.3000 
    180 H180       -2.1566   -8.7099  -43.3128 H         1 UNK         0.0600 
    181 H181       -0.3092  -10.1834  -42.4583 H         1 UNK         0.0600 
    182 H182       -1.1466  -11.5970  -43.0997 H         1 UNK         0.0600 
    183 H183       -1.8718  -10.6513  -41.8070 H         1 UNK         0.0600 
    184 H184       -0.3989  -10.2464  -45.0400 H         1 UNK         0.3000 
    185 H185       -0.9221   -8.4449  -47.9644 H         1 UNK         0.0600 
    186 H186        1.4161   -7.6105  -47.9094 H         1 UNK         0.0600 
    187 H187        0.3991   -6.6150  -46.8814 H         1 UNK         0.0600 
    188 H188        1.4725   -7.8061  -46.1566 H         1 UNK         0.0600 
    189 H189        1.3043  -10.0290  -47.2177 H         1 UNK         0.3000 
    190 H190       -0.6430  -22.6410  -45.1503 H         1 UNK         0.3000 
    191 H191       -3.4541  -22.3350  -45.9188 H         1 UNK         0.0600 
    192 H192       -3.8313  -22.3134  -43.4500 H         1 UNK         0.0600 
    193 H193       -2.6501  -21.1180  -43.9437 H         1 UNK         0.0600 
    194 H194       -2.1220  -22.6108  -43.1744 H         1 UNK         0.0600 
    195 H195       -1.4111  -24.7939  -44.2737 H         1 UNK         0.3000 
    196 H196       -3.3609  -26.7357  -43.8253 H         1 UNK         0.0600 
    197 H197       -0.3543  -27.1026  -44.2807 H         1 UNK         0.0600 
    198 H198       -1.1243  -26.7096  -42.7439 H         1 UNK         0.0600 
    199 H199       -1.4197  -28.2661  -43.5035 H         1 UNK         0.0600 
    200 H200       -1.3697  -26.2498  -46.7414 H         1 UNK         0.3000 
    201 H201       -2.3670  -28.5686  -48.1664 H         1 UNK         0.0600 
    202 H202       -0.7758  -26.1149  -49.0313 H         1 UNK         0.0600 
    203 H203       -1.1250  -27.4907  -50.0773 H         1 UNK         0.0600 
    204 H204       -0.1403  -27.7042  -48.6384 H         1 UNK         0.0600 
    205 H205       -4.5741  -27.6738  -47.2801 H         1 UNK         0.3000 
    206 H206       -6.6921  -27.1921  -47.6893 H         1 UNK         0.0600 
    207 H207       -6.2805  -28.9160  -49.4632 H         1 UNK         0.0600 
    208 H208       -7.5573  -27.8042  -49.9216 H         1 UNK         0.0600 
    209 H209       -5.9563  -27.6355  -50.6312 H         1 UNK         0.0600 
    210 H210       -4.9454  -24.8576  -47.6136 H         1 UNK         0.3000 
    211 H211       -4.8625  -22.6908  -47.7900 H         1 UNK         0.0600 
    212 H212       -6.9437  -21.3678  -47.9995 H         1 UNK         0.0600 
    213 H213       -7.1918  -22.7448  -46.9369 H         1 UNK         0.0600 
    214 H214       -7.8183  -22.7745  -48.5855 H         1 UNK         0.0600 
    215 H215       -6.0721  -24.1974  -50.6978 H         1 UNK         0.3000 
    216 H216       -5.8943  -22.1927  -52.5980 H         1 UNK         0.0600 
    217 H217       -5.2452  -25.1723  -52.8921 H         1 UNK         0.0600 
    218 H218       -5.6125  -24.0768  -54.2214 H         1 UNK         0.0600 
    219 H219       -6.8431  -24.4382  -53.0204 H         1 UNK         0.0600 
    220 H220       -3.2137  -24.0290  -51.1762 H         1 UNK         0.3000 
    221 H221       -1.1723  -23.2022  -52.9929 H         1 UNK         0.0600 
    222 H222       -0.8891  -25.1506  -51.5325 H         1 UNK         0.0600 
    223 H223       -1.0552  -24.1460  -50.0967 H         1 UNK         0.0600 
    224 H224        0.3531  -23.9688  -51.1375 H         1 UNK         0.0600 
    225 H225       -2.7644  -21.4459  -50.4019 H         1 UNK         0.3000 
    226 H226       -0.7302  -19.2612  -50.5075 H         1 UNK         0.0600 
    227 H227       -3.1346  -19.6770  -48.6468 H         1 UNK         0.0600 
    228 H228       -1.4563  -19.9554  -48.2162 H         1 UNK         0.0600 
    229 H229       -2.0028  -18.3327  -48.5851 H         1 UNK         0.0600 
    230 H230       -4.1954  -20.0258  -51.0312 H         1 UNK         0.3000 
    231 H231       -4.9381  -17.3503  -51.6719 H         1 UNK         0.0600 
    232 H232       -6.4332  -19.9799  -52.1345 H         1 UNK         0.0600 
    233 H233       -7.1431  -18.3721  -52.1672 H         1 UNK         0.0600 
    234 H234       -6.4844  -19.0073  -50.6669 H         1 UNK         0.0600 
    235 H235       -4.1356  -20.1447  -53.7618 H         1 UNK         0.3000 
    236 H236       -4.5347  -18.4519  -56.2068 H         1 UNK         0.0600 
    237 H237       -6.1597  -20.3249  -56.0430 H         1 UNK         0.0600 
    238 H238       -5.0271  -20.5916  -57.3593 H         1 UNK         0.0600 
    239 H239       -4.8435  -21.4805  -55.8520 H         1 UNK         0.0600 
    240 H240       -2.4506  -20.7877  -54.5172 H         1 UNK         0.3000 
    241 H241       -0.3028  -21.2560  -54.6087 H         1 UNK         0.0600 
    242 H242       -1.1124  -23.0793  -57.9087 H         1 UNK         0.3800 
    243 H243       -2.2361  -22.3107  -56.8177 H         1 UNK         0.3800 
    244 H244        0.1443  -18.8432  -56.4323 H         1 UNK         0.0800 
    245 H245        1.4023  -19.7612  -55.6638 H         1 UNK         0.0800 
    246 H246        2.0320  -19.8041  -53.3474 H         1 UNK         0.0800 
    247 H247        2.5923  -18.1873  -53.7249 H         1 UNK         0.0800 
@<TRIPOS>BOND
     1    1    2 1    
     2    1  127 1    
     3    1  128 1    
     4    1  129 1    
     5    2    3 2    
     6    2    4 am   BACKBONE|DICT|INTERRES
     7    4    5 1    
     8    4  130 1    
     9    5    6 1    
    10    5   65 1    
    11    5  131 1    
    12    6    7 1    
    13    6  132 1    
    14    6  133 1    
    15    7    8 1    
    16    8    9 1    
    17    8  134 1    
    18    8  135 1    
    19    9   10 ar   
    20    9   14 ar   
    21   10   11 ar   
    22   10  136 1    
    23   11   12 ar   
    24   11  126 1    
    25   12   13 ar   
    26   12  137 1    
    27   13   14 ar   
    28   13   15 1    
    29   14  138 1    
    30   15   16 1    
    31   15  139 1    
    32   15  140 1    
    33   16   17 1    
    34   17   18 1    
    35   17  141 1    
    36   17  142 1    
    37   18   19 1    
    38   18   67 1    
    39   18  143 1    
    40   19   20 am   BACKBONE|DICT|INTERRES
    41   19  144 1    
    42   20   21 2    
    43   20   22 1    
    44   22   23 1    
    45   22   24 1    
    46   22  145 1    
    47   23  146 1    
    48   23  147 1    
    49   23  148 1    
    50   24   25 am   BACKBONE|DICT|INTERRES
    51   24  149 1    
    52   25   26 2    
    53   25   27 1    
    54   27   28 1    
    55   27   29 1    
    56   27  150 1    
    57   28  151 1    
    58   28  152 1    
    59   28  153 1    
    60   29   30 am   BACKBONE|DICT|INTERRES
    61   29  154 1    
    62   30   31 2    
    63   30   32 1    
    64   32   33 1    
    65   32   34 1    
    66   32  155 1    
    67   33  156 1    
    68   33  157 1    
    69   33  158 1    
    70   34   35 am   BACKBONE|DICT|INTERRES
    71   34  159 1    
    72   35   36 2    
    73   35   37 1    
    74   37   38 1    
    75   37   39 1    
    76   37  160 1    
    77   38  161 1    
    78   38  162 1    
    79   38  163 1    
    80   39   40 am   BACKBONE|DICT|INTERRES
    81   39  164 1    
    82   40   41 2    
    83   40   42 1    
    84   42   43 1    
    85   42   44 1    
    86   42  165 1    
    87   43  166 1    
    88   43  167 1    
    89   43  168 1    
    90   44   45 am   BACKBONE|DICT|INTERRES
    91   44  169 1    
    92   45   46 2    
    93   45   47 1    
    94   47   48 1    
    95   47   49 1    
    96   47  170 1    
    97   48  171 1    
    98   48  172 1    
    99   48  173 1    
   100   49   50 am   BACKBONE|DICT|INTERRES
   101   49  174 1    
   102   50   51 2    
   103   50   52 1    
   104   52   53 1    
   105   52   54 1    
   106   52  175 1    
   107   53  176 1    
   108   53  177 1    
   109   53  178 1    
   110   54   55 am   BACKBONE|DICT|INTERRES
   111   54  179 1    
   112   55   56 2    
   113   55   57 1    
   114   57   58 1    
   115   57   59 1    
   116   57  180 1    
   117   58  181 1    
   118   58  182 1    
   119   58  183 1    
   120   59   60 am   BACKBONE|DICT|INTERRES
   121   59  184 1    
   122   60   61 2    
   123   60   62 1    
   124   62   63 1    
   125   62   64 1    
   126   62  185 1    
   127   63  186 1    
   128   63  187 1    
   129   63  188 1    
   130   64   65 am   BACKBONE|DICT|INTERRES
   131   64  189 1    
   132   65   66 2    
   133   67   68 2    
   134   67   69 am   BACKBONE|DICT|INTERRES
   135   69   70 1    
   136   69  190 1    
   137   70   71 1    
   138   70   72 1    
   139   70  191 1    
   140   71  192 1    
   141   71  193 1    
   142   71  194 1    
   143   72   73 2    
   144   72   74 am   BACKBONE|DICT|INTERRES
   145   74   75 1    
   146   74  195 1    
   147   75   76 1    
   148   75   77 1    
   149   75  196 1    
   150   76  197 1    
   151   76  198 1    
   152   76  199 1    
   153   77   78 2    
   154   77   79 am   BACKBONE|DICT|INTERRES
   155   79   80 1    
   156   79  200 1    
   157   80   81 1    
   158   80   82 1    
   159   80  201 1    
   160   81  202 1    
   161   81  203 1    
   162   81  204 1    
   163   82   83 2    
   164   82   84 am   BACKBONE|DICT|INTERRES
   165   84   85 1    
   166   84  205 1    
   167   85   86 1    
   168   85   87 1    
   169   85  206 1    
   170   86  207 1    
   171   86  208 1    
   172   86  209 1    
   173   87   88 2    
   174   87   89 am   BACKBONE|DICT|INTERRES
   175   89   90 1    
   176   89  210 1    
   177   90   91 1    
   178   90   92 1    
   179   90  211 1    
   180   91  212 1    
   181   91  213 1    
   182   91  214 1    
   183   92   93 2    
   184   92   94 am   BACKBONE|DICT|INTERRES
   185   94   95 1    
   186   94  215 1    
   187   95   96 1    
   188   95   97 1    
   189   95  216 1    
   190   96  217 1    
   191   96  218 1    
   192   96  219 1    
   193   97   98 2    
   194   97   99 am   BACKBONE|DICT|INTERRES
   195   99  100 1    
   196   99  220 1    
   197  100  101 1    
   198  100  102 1    
   199  100  221 1    
   200  101  222 1    
   201  101  223 1    
   202  101  224 1    
   203  102  103 2    
   204  102  104 am   BACKBONE|DICT|INTERRES
   205  104  105 1    
   206  104  225 1    
   207  105  106 1    
   208  105  107 1    
   209  105  226 1    
   210  106  227 1    
   211  106  228 1    
   212  106  229 1    
   213  107  108 2    
   214  107  109 am   BACKBONE|DICT|INTERRES
   215  109  110 1    
   216  109  230 1    
   217  110  111 1    
   218  110  112 1    
   219  110  231 1    
   220  111  232 1    
   221  111  233 1    
   222  111  234 1    
   223  112  113 2    
   224  112  114 am   BACKBONE|DICT|INTERRES
   225  114  115 1    
   226  114  235 1    
   227  115  116 1    
   228  115  117 1    
   229  115  236 1    
   230  116  237 1    
   231  116  238 1    
   232  116  239 1    
   233  117  118 2    
   234  117  119 am   BACKBONE|DICT|INTERRES
   235  119  120 1    
   236  119  240 1    
   237  120  121 1    
   238  120  124 1    
   239  120  241 1    
   240  121  122 am   BACKBONE|DICT|INTERRES
   241  121  123 2    
   242  122  242 1    
   243  122  243 1    
   244  124  125 1    
   245  124  244 1    
   246  124  245 1    
   247  125  126 1    
   248  126  246 1    
   249  126  247 1    
@<TRIPOS>SUBSTRUCTURE
     1 UNK         1 GROUP             0       ****    0 ROOT    
