@<TRIPOS>MOLECULE
3R540
247   249    1
SMALL
USER_CHARGES


@<TRIPOS>ATOM
      1 CA          3.0259  -11.3047  -46.7112 C.3       0 UNK        -0.1800 
      2 C           3.5053  -11.8484  -48.0499 C.2       0 UNK         0.5000 
      3 O           4.7117  -11.9503  -48.2750 O.2       0 UNK        -0.5000 
      4 N           2.5656  -12.1883  -48.9400 N.am      1 UNK        -0.5000 
      5 CA          2.8219  -12.8201  -50.2361 C.3       1 UNK         0.1400 
      6 C6          1.6000  -12.6930  -51.1839 C.3       23 UNK        -0.0398 
      7 S7          0.0647  -13.4604  -50.5527 S.3       23 UNK        -0.2404 
      8 C8          0.0026  -14.9699  -51.5676 C.3       23 UNK        -0.0205 
      9 C9         -0.7435  -16.0848  -50.8561 C.ar      23 UNK        -0.0193 
     10 C10        -2.0270  -16.4614  -51.2585 C.ar      23 UNK        -0.1150 
     11 C11        -2.6860  -17.5165  -50.6205 C.ar      23 UNK        -0.0193 
     12 C12        -2.0556  -18.1851  -49.5663 C.ar      23 UNK        -0.1150 
     13 C13        -0.7803  -17.8019  -49.1369 C.ar      23 UNK        -0.0193 
     14 C14        -0.1291  -16.7586  -49.7992 C.ar      23 UNK        -0.1150 
     15 C15        -0.0645  -18.5208  -47.9989 C.3       23 UNK        -0.0205 
     16 S16        -0.9715  -18.5166  -46.4170 S.3       23 UNK        -0.2404 
     17 C17        -1.7947  -20.1433  -46.4585 C.3       23 UNK        -0.0398 
     18 CA         -0.8981  -21.3041  -45.9662 C.3       11 UNK         0.1400 
     19 N          -0.4696  -21.1697  -44.5701 N.am      11 UNK        -0.5000 
     20 C           0.4047  -21.9927  -43.9698 C.2       10 UNK         0.5000 
     21 O           0.9922  -22.9057  -44.5487 O.2       10 UNK        -0.5000 
     22 CA          0.6091  -21.8110  -42.4583 C.3       10 UNK         0.1400 
     23 CB          1.6197  -20.6932  -42.1627 C.3       10 UNK        -0.1800 
     24 N          -0.6594  -21.5421  -41.7821 N.am      10 UNK        -0.5000 
     25 C          -1.6129  -22.4656  -41.5896 C.2       9 UNK         0.5000 
     26 O          -1.4934  -23.6459  -41.9183 O.2       9 UNK        -0.5000 
     27 CA         -2.9366  -21.9848  -40.9651 C.3       9 UNK         0.1400 
     28 CB         -2.8399  -21.9797  -39.4325 C.3       9 UNK        -0.1800 
     29 N          -3.3339  -20.6552  -41.4296 N.am      9 UNK        -0.5000 
     30 C          -3.6773  -20.3624  -42.6919 C.2       8 UNK         0.5000 
     31 O          -3.7479  -21.1984  -43.5909 O.2       8 UNK        -0.5000 
     32 CA         -3.9297  -18.8786  -43.0192 C.3       8 UNK         0.1400 
     33 CB         -5.4096  -18.5253  -42.8133 C.3       8 UNK        -0.1800 
     34 N          -3.0967  -17.9512  -42.2478 N.am      8 UNK        -0.5000 
     35 C          -1.7573  -17.9414  -42.2464 C.2       7 UNK         0.5000 
     36 O          -1.0728  -18.7514  -42.8724 O.2       7 UNK        -0.5000 
     37 CA         -1.0792  -16.8500  -41.3978 C.3       7 UNK         0.1400 
     38 CB          0.1476  -17.3927  -40.6459 C.3       7 UNK        -0.1800 
     39 N          -0.6759  -15.7124  -42.2223 N.am      7 UNK        -0.5000 
     40 C          -1.5236  -14.8458  -42.7941 C.2       6 UNK         0.5000 
     41 O          -2.7445  -14.8989  -42.6404 O.2       6 UNK        -0.5000 
     42 CA         -0.9293  -13.7208  -43.6674 C.3       6 UNK         0.1400 
     43 CB         -1.4943  -12.3505  -43.2560 C.3       6 UNK        -0.1800 
     44 N           0.5347  -13.6408  -43.6096 N.am      6 UNK        -0.5000 
     45 C           1.4366  -14.2508  -44.3912 C.2       5 UNK         0.5000 
     46 O           2.6396  -14.0299  -44.2502 O.2       5 UNK        -0.5000 
     47 CA          0.9699  -15.2218  -45.5020 C.3       5 UNK         0.1400 
     48 CB          0.6334  -14.4512  -46.7857 C.3       5 UNK        -0.1800 
     49 N           1.9844  -16.2322  -45.8136 N.am      5 UNK        -0.5000 
     50 C           2.3743  -17.1893  -44.9596 C.2       4 UNK         0.5000 
     51 O           1.9024  -17.3188  -43.8301 O.2       4 UNK        -0.5000 
     52 CA          3.4658  -18.1733  -45.4235 C.3       4 UNK         0.1400 
     53 CB          2.8624  -19.5407  -45.7854 C.3       4 UNK        -0.1800 
     54 N           4.2810  -17.7026  -46.5467 N.am      4 UNK        -0.5000 
     55 C           5.3004  -16.8396  -46.4265 C.2       3 UNK         0.5000 
     56 O           5.5777  -16.2432  -45.3861 O.2       3 UNK        -0.5000 
     57 CA          6.1796  -16.6435  -47.6704 C.3       3 UNK         0.1400 
     58 CB          7.1748  -17.8189  -47.7847 C.3       3 UNK        -0.1800 
     59 N           5.3450  -16.5111  -48.8648 N.am      3 UNK        -0.5000 
     60 C           5.7573  -16.3060  -50.1207 C.2       2 UNK         0.5000 
     61 O           6.9384  -16.2413  -50.4632 O.2       2 UNK        -0.5000 
     62 CA          4.6564  -16.0999  -51.1793 C.3       2 UNK         0.1400 
     63 CB          3.6080  -17.2342  -51.1763 C.3       2 UNK        -0.1800 
     64 N           4.0302  -14.7758  -51.0848 N.am      2 UNK        -0.5000 
     65 C           3.2975  -14.2840  -50.0756 C.2       1 UNK         0.5000 
     66 O           2.9891  -14.9365  -49.0730 O.2       1 UNK        -0.5000 
     67 C          -1.5983  -22.6536  -46.2242 C.2       11 UNK         0.5000 
     68 O          -1.3413  -23.2754  -47.2545 O.2       11 UNK        -0.5000 
     69 N          -2.4556  -23.0899  -45.2913 N.am      12 UNK        -0.5000 
     70 CA         -3.1401  -24.3814  -45.3328 C.3       12 UNK         0.1400 
     71 CB         -4.2241  -24.4330  -44.2467 C.3       12 UNK        -0.1800 
     72 C          -2.1686  -25.5664  -45.2038 C.2       12 UNK         0.5000 
     73 O          -2.2806  -26.5196  -45.9743 O.2       12 UNK        -0.5000 
     74 N          -1.2061  -25.4679  -44.2748 N.am      13 UNK        -0.5000 
     75 CA         -0.1443  -26.4579  -44.0693 C.3       13 UNK         0.1400 
     76 CB          0.6528  -26.1023  -42.8055 C.3       13 UNK        -0.1800 
     77 C           0.7935  -26.5978  -45.2844 C.2       13 UNK         0.5000 
     78 O           1.1953  -27.7126  -45.6192 O.2       13 UNK        -0.5000 
     79 N           1.0936  -25.4700  -45.9420 N.am      14 UNK        -0.5000 
     80 CA          1.8721  -25.3997  -47.1799 C.3       14 UNK         0.1400 
     81 CB          2.3694  -23.9555  -47.3601 C.3       14 UNK        -0.1800 
     82 C           1.0892  -25.8493  -48.4321 C.2       14 UNK         0.5000 
     83 O           1.7044  -26.0395  -49.4816 O.2       14 UNK        -0.5000 
     84 N          -0.2435  -25.9660  -48.3147 N.am      15 UNK        -0.5000 
     85 CA         -1.2290  -26.2034  -49.3795 C.3       15 UNK         0.1400 
     86 CB         -1.0074  -27.5698  -50.0592 C.3       15 UNK        -0.1800 
     87 C          -1.3291  -25.0394  -50.3923 C.2       15 UNK         0.5000 
     88 O          -1.8555  -25.2153  -51.4916 O.2       15 UNK        -0.5000 
     89 N          -0.8494  -23.8578  -49.9879 N.am      16 UNK        -0.5000 
     90 CA         -0.8743  -22.6113  -50.7469 C.3       16 UNK         0.1400 
     91 CB          0.2494  -21.7047  -50.2281 C.3       16 UNK        -0.1800 
     92 C          -2.2367  -21.9032  -50.6582 C.2       16 UNK         0.5000 
     93 O          -2.5749  -21.1368  -51.5575 O.2       16 UNK        -0.5000 
     94 N          -3.0222  -22.2049  -49.6118 N.am      17 UNK        -0.5000 
     95 CA         -4.3879  -21.7060  -49.3974 C.3       17 UNK         0.1400 
     96 CB         -4.8950  -22.1986  -48.0335 C.3       17 UNK        -0.1800 
     97 C          -5.3895  -22.0877  -50.5100 C.2       17 UNK         0.5000 
     98 O          -6.4443  -21.4633  -50.6144 O.2       17 UNK        -0.5000 
     99 N          -5.0411  -23.0944  -51.3223 N.am      18 UNK        -0.5000 
    100 CA        -5.7904  -23.5333  -52.4972 C.3       18 UNK         0.1400 
    101 CB        -5.3286  -24.9536  -52.8613 C.3       18 UNK        -0.1800 
    102 C         -5.6534  -22.5913  -53.7136 C.2       18 UNK         0.5000 
    103 O         -6.4128  -22.7529  -54.6707 O.2       18 UNK        -0.5000 
    104 N         -4.6935  -21.6518  -53.6877 N.am      19 UNK        -0.5000 
    105 CA        -4.4606  -20.6751  -54.7542 C.3       19 UNK         0.1400 
    106 CB        -3.1666  -19.8994  -54.4648 C.3       19 UNK        -0.1800 
    107 C         -5.6403  -19.7002  -54.9283 C.2       19 UNK         0.5000 
    108 O         -6.2689  -19.3101  -53.9413 O.2       19 UNK        -0.5000 
    109 N         -5.8877  -19.2956  -56.1824 N.am      20 UNK        -0.5000 
    110 CA        -7.0151  -18.4577  -56.6111 C.3       20 UNK         0.1400 
    111 CB        -6.9620  -18.2898  -58.1371 C.3       20 UNK        -0.1800 
    112 C         -7.1002  -17.0815  -55.9231 C.2       20 UNK         0.5000 
    113 O         -8.2008  -16.5510  -55.7673 O.2       20 UNK        -0.5000 
    114 N         -5.9525  -16.5549  -55.4739 N.am      21 UNK        -0.5000 
    115 CA        -5.8318  -15.3315  -54.6757 C.3       21 UNK         0.1400 
    116 CB        -4.3404  -15.0272  -54.4677 C.3       21 UNK        -0.1800 
    117 C         -6.5677  -15.3897  -53.3188 C.2       21 UNK         0.5000 
    118 O         -6.9379  -14.3404  -52.7909 O.2       21 UNK        -0.5000 
    119 N         -6.7839  -16.6038  -52.7981 N.am      22 UNK        -0.5000 
    120 CA        -7.5755  -16.8892  -51.5929 C.3       22 UNK         0.1400 
    121 C         -9.0488  -17.2867  -51.9104 C.2       22 UNK         0.5000 
    122 N         -9.5103  -17.2454  -53.1558 N.am      22 UNK        -0.7600 
    123 O         -9.8064  -17.6174  -51.0021 O.2       22 UNK        -0.5000 
    124 C124       -6.8705  -17.9462  -50.7034 C.3       23 UNK        -0.0398 
    125 S125       -5.3464  -17.2956  -49.9402 S.3       23 UNK        -0.2404 
    126 C126       -4.0763  -17.9384  -51.0687 C.3       23 UNK        -0.0205 
    127 H127        3.3453  -10.2698  -46.5893 H         1 UNK         0.0600 
    128 H128        3.4495  -11.8918  -45.8964 H         1 UNK         0.0600 
    129 H129        1.9396  -11.3401  -46.6236 H         1 UNK         0.0600 
    130 H130        1.5902  -12.1106  -48.6910 H         1 UNK         0.3000 
    131 H131        3.6434  -12.2693  -50.6995 H         1 UNK         0.0600 
    132 H132        1.3891  -11.6359  -51.3509 H         1 UNK         0.0800 
    133 H133        1.8363  -13.0925  -52.1715 H         1 UNK         0.0800 
    134 H134       -0.4614  -14.7394  -52.5278 H         1 UNK         0.0800 
    135 H135        1.0124  -15.3177  -51.7886 H         1 UNK         0.0800 
    136 H136       -2.5083  -15.9375  -52.0708 H         1 UNK         0.1150 
    137 H137       -2.5734  -18.9961  -49.0824 H         1 UNK         0.1150 
    138 H138        0.8633  -16.4607  -49.4927 H         1 UNK         0.1150 
    139 H139        0.1666  -19.5389  -48.3000 H         1 UNK         0.0800 
    140 H140        0.8967  -18.0401  -47.8175 H         1 UNK         0.0800 
    141 H141       -2.1303  -20.3393  -47.4755 H         1 UNK         0.0800 
    142 H142       -2.6997  -20.0776  -45.8541 H         1 UNK         0.0800 
    143 H143        0.0095  -21.3042  -46.5730 H         1 UNK         0.0600 
    144 H144       -0.8606  -20.3984  -44.0375 H         1 UNK         0.3000 
    145 H145        1.0177  -22.7421  -42.0599 H         1 UNK         0.0600 
    146 H146        1.7520  -20.5507  -41.0903 H         1 UNK         0.0600 
    147 H147        2.5967  -20.9348  -42.5828 H         1 UNK         0.0600 
    148 H148        1.3111  -19.7411  -42.5927 H         1 UNK         0.0600 
    149 H149       -0.8629  -20.5738  -41.5767 H         1 UNK         0.3000 
    150 H150       -3.7169  -22.6913  -41.2558 H         1 UNK         0.0600 
    151 H151       -2.0912  -21.2705  -39.0773 H         1 UNK         0.0600 
    152 H152       -2.5632  -22.9655  -39.0561 H         1 UNK         0.0600 
    153 H153       -3.7951  -21.7162  -38.9780 H         1 UNK         0.0600 
    154 H154       -3.3018  -19.9054  -40.7549 H         1 UNK         0.3000 
    155 H155       -3.6884  -18.7307  -44.0735 H         1 UNK         0.0600 
    156 H156       -5.7041  -18.6180  -41.7672 H         1 UNK         0.0600 
    157 H157       -6.0534  -19.1855  -43.3961 H         1 UNK         0.0600 
    158 H158       -5.6193  -17.5043  -43.1328 H         1 UNK         0.0600 
    159 H159       -3.5829  -17.2188  -41.7495 H         1 UNK         0.3000 
    160 H160       -1.7934  -16.4998  -40.6495 H         1 UNK         0.0600 
    161 H161        0.9423  -17.6921  -41.3292 H         1 UNK         0.0600 
    162 H162       -0.1145  -18.2647  -40.0455 H         1 UNK         0.0600 
    163 H163        0.5569  -16.6428  -39.9690 H         1 UNK         0.0600 
    164 H164        0.3113  -15.6346  -42.4220 H         1 UNK         0.3000 
    165 H165       -1.2605  -13.9099  -44.6878 H         1 UNK         0.0600 
    166 H166       -1.1045  -11.5562  -43.8931 H         1 UNK         0.0600 
    167 H167       -2.5812  -12.3267  -43.3449 H         1 UNK         0.0600 
    168 H168       -1.2439  -12.1055  -42.2230 H         1 UNK         0.0600 
    169 H169        0.8900  -13.0306  -42.8882 H         1 UNK         0.3000 
    170 H170        0.0797  -15.7570  -45.1685 H         1 UNK         0.0600 
    171 H171        1.5181  -13.9608  -47.1833 H         1 UNK         0.0600 
    172 H172        0.2416  -15.1155  -47.5542 H         1 UNK         0.0600 
    173 H173       -0.1141  -13.6766  -46.6181 H         1 UNK         0.0600 
    174 H174        2.4543  -16.1451  -46.7024 H         1 UNK         0.3000 
    175 H175        4.1231  -18.3279  -44.5649 H         1 UNK         0.0600 
    176 H176        2.3032  -19.5093  -46.7184 H         1 UNK         0.0600 
    177 H177        3.6397  -20.2978  -45.8901 H         1 UNK         0.0600 
    178 H178        2.1806  -19.8849  -45.0087 H         1 UNK         0.0600 
    179 H179        4.1470  -18.1724  -47.4298 H         1 UNK         0.3000 
    180 H180        6.7385  -15.7144  -47.5424 H         1 UNK         0.0600 
    181 H181        6.6712  -18.7476  -48.0552 H         1 UNK         0.0600 
    182 H182        7.6897  -17.9893  -46.8382 H         1 UNK         0.0600 
    183 H183        7.9469  -17.6272  -48.5287 H         1 UNK         0.0600 
    184 H184        4.3544  -16.3702  -48.6942 H         1 UNK         0.3000 
    185 H185        5.1507  -16.1273  -52.1518 H         1 UNK         0.0600 
    186 H186        4.0883  -18.2034  -51.3154 H         1 UNK         0.0600 
    187 H187        3.0430  -17.2854  -50.2463 H         1 UNK         0.0600 
    188 H188        2.8937  -17.1085  -51.9898 H         1 UNK         0.0600 
    189 H189        4.2510  -14.1565  -51.8523 H         1 UNK         0.3000 
    190 H190       -2.6877  -22.4797  -44.5122 H         1 UNK         0.3000 
    191 H191       -3.6332  -24.4677  -46.3026 H         1 UNK         0.0600 
    192 H192       -4.9593  -23.6405  -44.3880 H         1 UNK         0.0600 
    193 H193       -4.7599  -25.3825  -44.2741 H         1 UNK         0.0600 
    194 H194       -3.8016  -24.3225  -43.2481 H         1 UNK         0.0600 
    195 H195       -1.2091  -24.6695  -43.6481 H         1 UNK         0.3000 
    196 H196       -0.6214  -27.4267  -43.9075 H         1 UNK         0.0600 
    197 H197        1.4317  -26.8413  -42.6139 H         1 UNK         0.0600 
    198 H198        0.0077  -26.0745  -41.9272 H         1 UNK         0.0600 
    199 H199        1.1375  -25.1300  -42.8956 H         1 UNK         0.0600 
    200 H200        0.7881  -24.5836  -45.5499 H         1 UNK         0.3000 
    201 H201        2.7415  -26.0530  -47.0829 H         1 UNK         0.0600 
    202 H202        2.9828  -23.8579  -48.2567 H         1 UNK         0.0600 
    203 H203        2.9800  -23.6401  -46.5138 H         1 UNK         0.0600 
    204 H204        1.5397  -23.2537  -47.4518 H         1 UNK         0.0600 
    205 H205       -0.6427  -25.7890  -47.4016 H         1 UNK         0.3000 
    206 H206       -2.1974  -26.2424  -48.8789 H         1 UNK         0.0600 
    207 H207       -0.9360  -28.3693  -49.3218 H         1 UNK         0.0600 
    208 H208       -1.8379  -27.8146  -50.7223 H         1 UNK         0.0600 
    209 H209       -0.0981  -27.5834  -50.6604 H         1 UNK         0.0600 
    210 H210       -0.5387  -23.7904  -49.0252 H         1 UNK         0.3000 
    211 H211       -0.6845  -22.8278  -51.8003 H         1 UNK         0.0600 
    212 H212        0.1947  -21.5928  -49.1463 H         1 UNK         0.0600 
    213 H213        0.1998  -20.7104  -50.6751 H         1 UNK         0.0600 
    214 H214        1.2280  -22.1218  -50.4664 H         1 UNK         0.0600 
    215 H215       -2.6517  -22.8381  -48.9139 H         1 UNK         0.3000 
    216 H216       -4.3446  -20.6166  -49.3665 H         1 UNK         0.0600 
    217 H217       -5.9116  -21.8510  -47.8445 H         1 UNK         0.0600 
    218 H218       -4.2770  -21.8243  -47.2190 H         1 UNK         0.0600 
    219 H219       -4.9073  -23.2874  -47.9807 H         1 UNK         0.0600 
    220 H220       -4.1535  -23.5488  -51.1636 H         1 UNK         0.3000 
    221 H221       -6.8499  -23.5751  -52.2361 H         1 UNK         0.0600 
    222 H222       -4.2714  -24.9755  -53.1294 H         1 UNK         0.0600 
    223 H223       -5.4779  -25.6431  -52.0302 H         1 UNK         0.0600 
    224 H224       -5.8910  -25.3441  -53.7104 H         1 UNK         0.0600 
    225 H225       -4.1096  -21.5620  -52.8636 H         1 UNK         0.3000 
    226 H226       -4.3269  -21.2299  -55.6851 H         1 UNK         0.0600 
    227 H227       -2.9423  -19.1943  -55.2660 H         1 UNK         0.0600 
    228 H228       -3.2368  -19.3303  -53.5379 H         1 UNK         0.0600 
    229 H229       -2.3140  -20.5730  -54.3775 H         1 UNK         0.0600 
    230 H230       -5.3010  -19.6496  -56.9243 H         1 UNK         0.3000 
    231 H231       -7.9307  -18.9968  -56.3595 H         1 UNK         0.0600 
    232 H232       -6.0459  -17.7904  -58.4549 H         1 UNK         0.0600 
    233 H233       -7.8022  -17.6931  -58.4950 H         1 UNK         0.0600 
    234 H234       -7.0131  -19.2541  -58.6432 H         1 UNK         0.0600 
    235 H235       -5.1003  -17.0670  -55.6462 H         1 UNK         0.3000 
    236 H236       -6.2736  -14.5140  -55.2489 H         1 UNK         0.0600 
    237 H237       -3.8410  -14.8379  -55.4180 H         1 UNK         0.0600 
    238 H238       -4.2004  -14.1418  -53.8459 H         1 UNK         0.0600 
    239 H239       -3.8291  -15.8576  -53.9810 H         1 UNK         0.0600 
    240 H240       -6.4819  -17.4242  -53.3142 H         1 UNK         0.3000 
    241 H241       -7.6604  -15.9765  -51.0004 H         1 UNK         0.0600 
    242 H242      -10.4701  -17.4977  -53.3304 H         1 UNK         0.3800 
    243 H243       -8.9270  -16.9463  -53.9286 H         1 UNK         0.3800 
    244 H244       -6.6508  -18.8489  -51.2750 H         1 UNK         0.0800 
    245 H245       -7.5181  -18.2610  -49.8836 H         1 UNK         0.0800 
    246 H246       -4.2733  -17.5794  -52.0790 H         1 UNK         0.0800 
    247 H247       -4.1392  -19.0253  -51.1139 H         1 UNK         0.0800 
@<TRIPOS>BOND
     1    1    2 1    
     2    1  127 1    
     3    1  128 1    
     4    1  129 1    
     5    2    3 2    
     6    2    4 am   BACKBONE|DICT|INTERRES
     7    4    5 1    
     8    4  130 1    
     9    5    6 1    
    10    5   65 1    
    11    5  131 1    
    12    6    7 1    
    13    6  132 1    
    14    6  133 1    
    15    7    8 1    
    16    8    9 1    
    17    8  134 1    
    18    8  135 1    
    19    9   10 ar   
    20    9   14 ar   
    21   10   11 ar   
    22   10  136 1    
    23   11   12 ar   
    24   11  126 1    
    25   12   13 ar   
    26   12  137 1    
    27   13   14 ar   
    28   13   15 1    
    29   14  138 1    
    30   15   16 1    
    31   15  139 1    
    32   15  140 1    
    33   16   17 1    
    34   17   18 1    
    35   17  141 1    
    36   17  142 1    
    37   18   19 1    
    38   18   67 1    
    39   18  143 1    
    40   19   20 am   BACKBONE|DICT|INTERRES
    41   19  144 1    
    42   20   21 2    
    43   20   22 1    
    44   22   23 1    
    45   22   24 1    
    46   22  145 1    
    47   23  146 1    
    48   23  147 1    
    49   23  148 1    
    50   24   25 am   BACKBONE|DICT|INTERRES
    51   24  149 1    
    52   25   26 2    
    53   25   27 1    
    54   27   28 1    
    55   27   29 1    
    56   27  150 1    
    57   28  151 1    
    58   28  152 1    
    59   28  153 1    
    60   29   30 am   BACKBONE|DICT|INTERRES
    61   29  154 1    
    62   30   31 2    
    63   30   32 1    
    64   32   33 1    
    65   32   34 1    
    66   32  155 1    
    67   33  156 1    
    68   33  157 1    
    69   33  158 1    
    70   34   35 am   BACKBONE|DICT|INTERRES
    71   34  159 1    
    72   35   36 2    
    73   35   37 1    
    74   37   38 1    
    75   37   39 1    
    76   37  160 1    
    77   38  161 1    
    78   38  162 1    
    79   38  163 1    
    80   39   40 am   BACKBONE|DICT|INTERRES
    81   39  164 1    
    82   40   41 2    
    83   40   42 1    
    84   42   43 1    
    85   42   44 1    
    86   42  165 1    
    87   43  166 1    
    88   43  167 1    
    89   43  168 1    
    90   44   45 am   BACKBONE|DICT|INTERRES
    91   44  169 1    
    92   45   46 2    
    93   45   47 1    
    94   47   48 1    
    95   47   49 1    
    96   47  170 1    
    97   48  171 1    
    98   48  172 1    
    99   48  173 1    
   100   49   50 am   BACKBONE|DICT|INTERRES
   101   49  174 1    
   102   50   51 2    
   103   50   52 1    
   104   52   53 1    
   105   52   54 1    
   106   52  175 1    
   107   53  176 1    
   108   53  177 1    
   109   53  178 1    
   110   54   55 am   BACKBONE|DICT|INTERRES
   111   54  179 1    
   112   55   56 2    
   113   55   57 1    
   114   57   58 1    
   115   57   59 1    
   116   57  180 1    
   117   58  181 1    
   118   58  182 1    
   119   58  183 1    
   120   59   60 am   BACKBONE|DICT|INTERRES
   121   59  184 1    
   122   60   61 2    
   123   60   62 1    
   124   62   63 1    
   125   62   64 1    
   126   62  185 1    
   127   63  186 1    
   128   63  187 1    
   129   63  188 1    
   130   64   65 am   BACKBONE|DICT|INTERRES
   131   64  189 1    
   132   65   66 2    
   133   67   68 2    
   134   67   69 am   BACKBONE|DICT|INTERRES
   135   69   70 1    
   136   69  190 1    
   137   70   71 1    
   138   70   72 1    
   139   70  191 1    
   140   71  192 1    
   141   71  193 1    
   142   71  194 1    
   143   72   73 2    
   144   72   74 am   BACKBONE|DICT|INTERRES
   145   74   75 1    
   146   74  195 1    
   147   75   76 1    
   148   75   77 1    
   149   75  196 1    
   150   76  197 1    
   151   76  198 1    
   152   76  199 1    
   153   77   78 2    
   154   77   79 am   BACKBONE|DICT|INTERRES
   155   79   80 1    
   156   79  200 1    
   157   80   81 1    
   158   80   82 1    
   159   80  201 1    
   160   81  202 1    
   161   81  203 1    
   162   81  204 1    
   163   82   83 2    
   164   82   84 am   BACKBONE|DICT|INTERRES
   165   84   85 1    
   166   84  205 1    
   167   85   86 1    
   168   85   87 1    
   169   85  206 1    
   170   86  207 1    
   171   86  208 1    
   172   86  209 1    
   173   87   88 2    
   174   87   89 am   BACKBONE|DICT|INTERRES
   175   89   90 1    
   176   89  210 1    
   177   90   91 1    
   178   90   92 1    
   179   90  211 1    
   180   91  212 1    
   181   91  213 1    
   182   91  214 1    
   183   92   93 2    
   184   92   94 am   BACKBONE|DICT|INTERRES
   185   94   95 1    
   186   94  215 1    
   187   95   96 1    
   188   95   97 1    
   189   95  216 1    
   190   96  217 1    
   191   96  218 1    
   192   96  219 1    
   193   97   98 2    
   194   97   99 am   BACKBONE|DICT|INTERRES
   195   99  100 1    
   196   99  220 1    
   197  100  101 1    
   198  100  102 1    
   199  100  221 1    
   200  101  222 1    
   201  101  223 1    
   202  101  224 1    
   203  102  103 2    
   204  102  104 am   BACKBONE|DICT|INTERRES
   205  104  105 1    
   206  104  225 1    
   207  105  106 1    
   208  105  107 1    
   209  105  226 1    
   210  106  227 1    
   211  106  228 1    
   212  106  229 1    
   213  107  108 2    
   214  107  109 am   BACKBONE|DICT|INTERRES
   215  109  110 1    
   216  109  230 1    
   217  110  111 1    
   218  110  112 1    
   219  110  231 1    
   220  111  232 1    
   221  111  233 1    
   222  111  234 1    
   223  112  113 2    
   224  112  114 am   BACKBONE|DICT|INTERRES
   225  114  115 1    
   226  114  235 1    
   227  115  116 1    
   228  115  117 1    
   229  115  236 1    
   230  116  237 1    
   231  116  238 1    
   232  116  239 1    
   233  117  118 2    
   234  117  119 am   BACKBONE|DICT|INTERRES
   235  119  120 1    
   236  119  240 1    
   237  120  121 1    
   238  120  124 1    
   239  120  241 1    
   240  121  122 am   BACKBONE|DICT|INTERRES
   241  121  123 2    
   242  122  242 1    
   243  122  243 1    
   244  124  125 1    
   245  124  244 1    
   246  124  245 1    
   247  125  126 1    
   248  126  246 1    
   249  126  247 1    
@<TRIPOS>SUBSTRUCTURE
     1 UNK         1 GROUP             0       ****    0 ROOT    
