@<TRIPOS>MOLECULE
3R540
247   249    1
SMALL
USER_CHARGES


@<TRIPOS>ATOM
      1 CA          4.6814  -13.4701  -45.2338 C.3       0 UNK        -0.1800 
      2 C           3.6010  -14.0022  -46.1641 C.2       0 UNK         0.5000 
      3 O           3.3298  -15.2013  -46.1630 O.2       0 UNK        -0.5000 
      4 N           2.9882  -13.1141  -46.9504 N.am      1 UNK        -0.5000 
      5 CA          1.8878  -13.3872  -47.8725 C.3       1 UNK         0.1400 
      6 C6          2.2863  -14.2640  -49.0912 C.3       23 UNK        -0.0398 
      7 S7          3.5772  -13.5266  -50.1560 S.3       23 UNK        -0.2404 
      8 C8          4.9132  -14.7627  -50.0268 C.3       23 UNK        -0.0205 
      9 C9          4.4992  -16.1461  -50.5189 C.ar      23 UNK        -0.0193 
     10 C10         3.8680  -16.3058  -51.7563 C.ar      23 UNK        -0.1150 
     11 C11         3.4588  -17.5689  -52.1907 C.ar      23 UNK        -0.0193 
     12 C12         3.7189  -18.6884  -51.3947 C.ar      23 UNK        -0.1150 
     13 C13         4.3698  -18.5471  -50.1647 C.ar      23 UNK        -0.0193 
     14 C14         4.7499  -17.2732  -49.7306 C.ar      23 UNK        -0.1150 
     15 C15         4.6841  -19.7644  -49.3065 C.3       23 UNK        -0.0205 
     16 S16         3.4234  -20.0355  -48.0222 S.3       23 UNK        -0.2404 
     17 C17         2.1279  -20.9212  -48.9535 C.3       23 UNK        -0.0398 
     18 CA          1.9695  -22.3888  -48.4893 C.3       11 UNK         0.1400 
     19 N           1.6279  -22.5095  -47.0673 N.am      11 UNK        -0.5000 
     20 C           1.8259  -23.6198  -46.3409 C.2       10 UNK         0.5000 
     21 O           2.3964  -24.6195  -46.7768 O.2       10 UNK        -0.5000 
     22 CA          1.3064  -23.6358  -44.8887 C.3       10 UNK         0.1400 
     23 CB          2.4631  -23.4068  -43.9041 C.3       10 UNK        -0.1800 
     24 N           0.2621  -22.6470  -44.6234 N.am      10 UNK        -0.5000 
     25 C          -0.9894  -22.6922  -45.1004 C.2       9 UNK         0.5000 
     26 O          -1.4242  -23.6090  -45.7982 O.2       9 UNK        -0.5000 
     27 CA         -1.8812  -21.4744  -44.7877 C.3       9 UNK         0.1400 
     28 CB         -2.6516  -21.6885  -43.4779 C.3       9 UNK        -0.1800 
     29 N          -1.1379  -20.2126  -44.7021 N.am      9 UNK        -0.5000 
     30 C          -0.3940  -19.6831  -45.6834 C.2       8 UNK         0.5000 
     31 O          -0.2783  -20.2128  -46.7883 O.2       8 UNK        -0.5000 
     32 CA          0.3655  -18.3760  -45.3758 C.3       8 UNK         0.1400 
     33 CB          0.5799  -17.5205  -46.6362 C.3       8 UNK        -0.1800 
     34 N          -0.3073  -17.5665  -44.3586 N.am      8 UNK        -0.5000 
     35 C          -0.1047  -17.6466  -43.0360 C.2       7 UNK         0.5000 
     36 O           0.6509  -18.4705  -42.5206 O.2       7 UNK        -0.5000 
     37 CA         -0.8792  -16.6676  -42.1304 C.3       7 UNK         0.1400 
     38 CB          0.0789  -15.6415  -41.5038 C.3       7 UNK        -0.1800 
     39 N          -1.9342  -15.9537  -42.8518 N.am      7 UNK        -0.5000 
     40 C          -3.1885  -16.4030  -43.0084 C.2       6 UNK         0.5000 
     41 O          -3.6070  -17.4413  -42.4963 O.2       6 UNK        -0.5000 
     42 CA         -4.1317  -15.5723  -43.9070 C.3       6 UNK         0.1400 
     43 CB         -4.9908  -14.6259  -43.0556 C.3       6 UNK        -0.1800 
     44 N          -3.4358  -14.7899  -44.9324 N.am      6 UNK        -0.5000 
     45 C          -2.6899  -15.3162  -45.9125 C.2       5 UNK         0.5000 
     46 O          -2.5621  -16.5256  -46.0865 O.2       5 UNK        -0.5000 
     47 CA         -1.8984  -14.3462  -46.8081 C.3       5 UNK         0.1400 
     48 CB         -2.6508  -14.1004  -48.1226 C.3       5 UNK        -0.1800 
     49 N          -1.5469  -13.0658  -46.1746 N.am      5 UNK        -0.5000 
     50 C          -0.8271  -12.9417  -45.0451 C.2       4 UNK         0.5000 
     51 O          -0.4310  -13.9137  -44.4025 O.2       4 UNK        -0.5000 
     52 CA         -0.4922  -11.5242  -44.5372 C.3       4 UNK         0.1400 
     53 CB          0.9522  -11.4434  -44.0119 C.3       4 UNK        -0.1800 
     54 N          -0.6660  -10.5102  -45.5756 N.am      4 UNK        -0.5000 
     55 C          -1.6819   -9.6407  -45.6591 C.2       3 UNK         0.5000 
     56 O          -2.6000   -9.5797  -44.8411 O.2       3 UNK        -0.5000 
     57 CA         -1.6872   -8.6918  -46.8775 C.3       3 UNK         0.1400 
     58 CB         -1.0752   -7.3335  -46.5034 C.3       3 UNK        -0.1800 
     59 N          -0.9722   -9.2333  -48.0369 N.am      3 UNK        -0.5000 
     60 C          -1.3409  -10.3294  -48.7125 C.2       2 UNK         0.5000 
     61 O          -2.3739  -10.9535  -48.4721 O.2       2 UNK        -0.5000 
     62 CA         -0.3731  -10.8659  -49.7857 C.3       2 UNK         0.1400 
     63 CB          0.5708   -9.7922  -50.3719 C.3       2 UNK        -0.1800 
     64 N           0.3900  -12.0181  -49.2871 N.am      2 UNK        -0.5000 
     65 C           1.2201  -12.0416  -48.2322 C.2       1 UNK         0.5000 
     66 O           1.4511  -11.0522  -47.5296 O.2       1 UNK        -0.5000 
     67 C           0.9294  -23.1238  -49.3564 C.2       11 UNK         0.5000 
     68 O           1.3006  -23.7381  -50.3573 O.2       11 UNK        -0.5000 
     69 N          -0.3436  -23.0720  -48.9389 N.am      12 UNK        -0.5000 
     70 CA         -1.4438  -23.7977  -49.5648 C.3       12 UNK         0.1400 
     71 CB         -2.7714  -23.1481  -49.1613 C.3       12 UNK        -0.1800 
     72 C          -1.4232  -25.2849  -49.1830 C.2       12 UNK         0.5000 
     73 O          -1.5119  -26.1360  -50.0690 O.2       12 UNK        -0.5000 
     74 N          -1.2918  -25.5618  -47.8754 N.am      13 UNK        -0.5000 
     75 CA         -1.2088  -26.8819  -47.2456 C.3       13 UNK         0.1400 
     76 CB          0.1832  -27.5017  -47.4957 C.3       13 UNK        -0.1800 
     77 C          -2.3790  -27.7961  -47.6617 C.2       13 UNK         0.5000 
     78 O          -3.4962  -27.6033  -47.1802 O.2       13 UNK        -0.5000 
     79 N          -2.1115  -28.7379  -48.5774 N.am      14 UNK        -0.5000 
     80 CA         -3.0771  -29.6637  -49.1710 C.3       14 UNK         0.1400 
     81 CB         -2.3295  -30.6419  -50.0895 C.3       14 UNK        -0.1800 
     82 C          -4.2250  -28.9762  -49.9370 C.2       14 UNK         0.5000 
     83 O          -5.3070  -29.5571  -50.0377 O.2       14 UNK        -0.5000 
     84 N          -4.0072  -27.7436  -50.4212 N.am      15 UNK        -0.5000 
     85 CA         -5.0272  -26.8839  -51.0280 C.3       15 UNK         0.1400 
     86 CB         -4.3456  -25.8496  -51.9420 C.3       15 UNK        -0.1800 
     87 C          -5.9340  -26.2370  -49.9568 C.2       15 UNK         0.5000 
     88 O          -6.0089  -25.0111  -49.8588 O.2       15 UNK        -0.5000 
     89 N          -6.5815  -27.0902  -49.1493 N.am      16 UNK        -0.5000 
     90 CA         -7.5736  -26.7951  -48.1071 C.3       16 UNK         0.1400 
     91 CB         -8.8810  -26.3049  -48.7635 C.3       16 UNK        -0.1800 
     92 C          -7.0961  -25.8367  -46.9923 C.2       16 UNK         0.5000 
     93 O          -7.9342  -25.2488  -46.3062 O.2       16 UNK        -0.5000 
     94 N          -5.7712  -25.6793  -46.8389 N.am      17 UNK        -0.5000 
     95 CA         -5.0880  -24.7075  -45.9763 C.3       17 UNK         0.1400 
     96 CB         -5.2175  -25.1233  -44.4970 C.3       17 UNK        -0.1800 
     97 C          -5.5270  -23.2465  -46.2408 C.2       17 UNK         0.5000 
     98 O          -5.6316  -22.4527  -45.3036 O.2       17 UNK        -0.5000 
     99 N          -5.8097  -22.9340  -47.5149 N.am      18 UNK        -0.5000 
    100 CA        -6.2670  -21.6302  -47.9977 C.3       18 UNK         0.1400 
    101 CB        -6.6855  -21.7833  -49.4688 C.3       18 UNK        -0.1800 
    102 C         -5.2210  -20.5079  -47.8357 C.2       18 UNK         0.5000 
    103 O         -4.0521  -20.7733  -47.5560 O.2       18 UNK        -0.5000 
    104 N         -5.6614  -19.2581  -48.0223 N.am      19 UNK        -0.5000 
    105 CA        -4.8261  -18.0638  -47.9154 C.3       19 UNK         0.1400 
    106 CB        -5.7329  -16.8227  -47.8515 C.3       19 UNK        -0.1800 
    107 C         -3.8023  -17.9738  -49.0664 C.2       19 UNK         0.5000 
    108 O         -4.1386  -17.4886  -50.1487 O.2       19 UNK        -0.5000 
    109 N         -2.5852  -18.4728  -48.8150 N.am      20 UNK        -0.5000 
    110 CA        -1.4018  -18.5275  -49.6825 C.3       20 UNK         0.1400 
    111 CB        -0.9569  -17.1195  -50.1224 C.3       20 UNK        -0.1800 
    112 C         -1.5288  -19.4903  -50.8805 C.2       20 UNK         0.5000 
    113 O         -0.6354  -20.3124  -51.0820 O.2       20 UNK        -0.5000 
    114 N         -2.6338  -19.3814  -51.6331 N.am      21 UNK        -0.5000 
    115 CA        -3.0219  -20.1956  -52.7924 C.3       21 UNK         0.1400 
    116 CB        -3.4049  -21.6197  -52.3446 C.3       21 UNK        -0.1800 
    117 C         -1.9776  -20.1897  -53.9309 C.2       21 UNK         0.5000 
    118 O         -1.6828  -21.2366  -54.5111 O.2       21 UNK        -0.5000 
    119 N         -1.4328  -19.0032  -54.2266 N.am      22 UNK        -0.5000 
    120 CA        -0.3751  -18.7911  -55.2323 C.3       22 UNK         0.1400 
    121 C         -0.8303  -18.9381  -56.7153 C.2       22 UNK         0.5000 
    122 N         -2.1221  -18.9843  -57.0177 N.am      22 UNK        -0.7600 
    123 O          0.0078  -19.0146  -57.6097 O.2       22 UNK        -0.5000 
    124 C124        0.3582  -17.4405  -55.0276 C.3       23 UNK        -0.0398 
    125 S125        0.9842  -17.2137  -53.3301 S.3       23 UNK        -0.2404 
    126 C126        2.7233  -17.7104  -53.5131 C.3       23 UNK        -0.0205 
    127 H127        4.8175  -12.3939  -45.3439 H         1 UNK         0.0600 
    128 H128        5.6329  -13.9572  -45.4467 H         1 UNK         0.0600 
    129 H129        4.4160  -13.6747  -44.1966 H         1 UNK         0.0600 
    130 H130        3.2157  -12.1294  -46.8864 H         1 UNK         0.3000 
    131 H131        1.1395  -13.9400  -47.3044 H         1 UNK         0.0600 
    132 H132        1.4185  -14.4904  -49.7116 H         1 UNK         0.0800 
    133 H133        2.6234  -15.2367  -48.7324 H         1 UNK         0.0800 
    134 H134        5.2468  -14.8046  -48.9886 H         1 UNK         0.0800 
    135 H135        5.7670  -14.4226  -50.6139 H         1 UNK         0.0800 
    136 H136        3.6677  -15.4405  -52.3726 H         1 UNK         0.1150 
    137 H137        3.4136  -19.6678  -51.7342 H         1 UNK         0.1150 
    138 H138        5.2420  -17.1622  -48.7743 H         1 UNK         0.1150 
    139 H139        4.7890  -20.6582  -49.9235 H         1 UNK         0.0800 
    140 H140        5.6499  -19.6222  -48.8194 H         1 UNK         0.0800 
    141 H141        2.3582  -20.8890  -50.0187 H         1 UNK         0.0800 
    142 H142        1.1934  -20.3743  -48.8433 H         1 UNK         0.0800 
    143 H143        2.9294  -22.8846  -48.6516 H         1 UNK         0.0600 
    144 H144        1.1319  -21.7244  -46.6632 H         1 UNK         0.3000 
    145 H145        0.8888  -24.6278  -44.7034 H         1 UNK         0.0600 
    146 H146        2.1249  -23.4900  -42.8710 H         1 UNK         0.0600 
    147 H147        3.2510  -24.1476  -44.0469 H         1 UNK         0.0600 
    148 H148        2.9120  -22.4211  -44.0336 H         1 UNK         0.0600 
    149 H149        0.5280  -21.8503  -44.0634 H         1 UNK         0.3000 
    150 H150       -2.6034  -21.3845  -45.5979 H         1 UNK         0.0600 
    151 H151       -3.2258  -22.6141  -43.5108 H         1 UNK         0.0600 
    152 H152       -3.3586  -20.8774  -43.3012 H         1 UNK         0.0600 
    153 H153       -1.9817  -21.7463  -42.6192 H         1 UNK         0.0600 
    154 H154       -1.1791  -19.7206  -43.8218 H         1 UNK         0.3000 
    155 H155        1.3526  -18.6634  -45.0081 H         1 UNK         0.0600 
    156 H156       -0.3604  -17.3071  -47.1391 H         1 UNK         0.0600 
    157 H157        1.0532  -16.5697  -46.3941 H         1 UNK         0.0600 
    158 H158        1.2244  -18.0290  -47.3535 H         1 UNK         0.0600 
    159 H159       -1.0103  -16.9255  -44.7047 H         1 UNK         0.3000 
    160 H160       -1.3225  -17.2499  -41.3200 H         1 UNK         0.0600 
    161 H161        0.8301  -16.1362  -40.8870 H         1 UNK         0.0600 
    162 H162       -0.4563  -14.9404  -40.8632 H         1 UNK         0.0600 
    163 H163        0.6094  -15.0658  -42.2627 H         1 UNK         0.0600 
    164 H164       -1.6415  -15.1122  -43.3386 H         1 UNK         0.3000 
    165 H165       -4.7960  -16.2729  -44.4177 H         1 UNK         0.0600 
    166 H166       -5.7205  -14.0962  -43.6683 H         1 UNK         0.0600 
    167 H167       -5.5461  -15.1786  -42.2965 H         1 UNK         0.0600 
    168 H168       -4.3805  -13.8831  -42.5404 H         1 UNK         0.0600 
    169 H169       -3.4850  -13.7851  -44.8513 H         1 UNK         0.3000 
    170 H170       -0.9647  -14.8533  -47.0532 H         1 UNK         0.0600 
    171 H171       -2.9468  -15.0399  -48.5905 H         1 UNK         0.0600 
    172 H172       -3.5554  -13.5121  -47.9649 H         1 UNK         0.0600 
    173 H173       -2.0261  -13.5745  -48.8429 H         1 UNK         0.0600 
    174 H174       -1.8610  -12.2280  -46.6486 H         1 UNK         0.3000 
    175 H175       -1.1627  -11.3257  -43.6990 H         1 UNK         0.0600 
    176 H176        1.6774  -11.6828  -44.7894 H         1 UNK         0.0600 
    177 H177        1.1795  -10.4444  -43.6397 H         1 UNK         0.0600 
    178 H178        1.1137  -12.1384  -43.1867 H         1 UNK         0.0600 
    179 H179        0.0445  -10.4988  -46.3026 H         1 UNK         0.3000 
    180 H180       -2.7282   -8.5323  -47.1662 H         1 UNK         0.0600 
    181 H181       -1.6014   -6.8871  -45.6585 H         1 UNK         0.0600 
    182 H182       -1.1394   -6.6295  -47.3333 H         1 UNK         0.0600 
    183 H183       -0.0253   -7.4292  -46.2232 H         1 UNK         0.0600 
    184 H184       -0.0869   -8.8045  -48.2656 H         1 UNK         0.3000 
    185 H185       -0.9966  -11.2336  -50.6021 H         1 UNK         0.0600 
    186 H186        1.2794   -9.4079  -49.6380 H         1 UNK         0.0600 
    187 H187        1.1500  -10.1994  -51.2007 H         1 UNK         0.0600 
    188 H188        0.0051   -8.9448  -50.7615 H         1 UNK         0.0600 
    189 H189        0.2454  -12.8731  -49.8037 H         1 UNK         0.3000 
    190 H190       -0.5604  -22.5447  -48.1048 H         1 UNK         0.3000 
    191 H191       -1.3423  -23.7245  -50.6494 H         1 UNK         0.0600 
    192 H192       -2.9227  -23.1771  -48.0824 H         1 UNK         0.0600 
    193 H193       -3.6195  -23.6495  -49.6257 H         1 UNK         0.0600 
    194 H194       -2.8010  -22.1042  -49.4717 H         1 UNK         0.0600 
    195 H195       -1.2811  -24.7818  -47.2216 H         1 UNK         0.3000 
    196 H196       -1.3119  -26.7209  -46.1715 H         1 UNK         0.0600 
    197 H197        0.2609  -28.4932  -47.0476 H         1 UNK         0.0600 
    198 H198        0.9638  -26.8887  -47.0466 H         1 UNK         0.0600 
    199 H199        0.4126  -27.5937  -48.5578 H         1 UNK         0.0600 
    200 H200       -1.1718  -28.7805  -48.9440 H         1 UNK         0.3000 
    201 H201       -3.5279  -30.2340  -48.3564 H         1 UNK         0.0600 
    202 H202       -1.5744  -31.2029  -49.5385 H         1 UNK         0.0600 
    203 H203       -1.8319  -30.1220  -50.9092 H         1 UNK         0.0600 
    204 H204       -3.0150  -31.3679  -50.5288 H         1 UNK         0.0600 
    205 H205       -3.0943  -27.3213  -50.2770 H         1 UNK         0.3000 
    206 H206       -5.6715  -27.4980  -51.6607 H         1 UNK         0.0600 
    207 H207       -3.7553  -26.3382  -52.7171 H         1 UNK         0.0600 
    208 H208       -5.0848  -25.2234  -52.4432 H         1 UNK         0.0600 
    209 H209       -3.6822  -25.1889  -51.3865 H         1 UNK         0.0600 
    210 H210       -6.3929  -28.0766  -49.3008 H         1 UNK         0.3000 
    211 H211       -7.7850  -27.7448  -47.6140 H         1 UNK         0.0600 
    212 H212       -8.7544  -25.3259  -49.2273 H         1 UNK         0.0600 
    213 H213       -9.6845  -26.2194  -48.0310 H         1 UNK         0.0600 
    214 H214       -9.2211  -26.9987  -49.5323 H         1 UNK         0.0600 
    215 H215       -5.1588  -26.2623  -47.3977 H         1 UNK         0.3000 
    216 H216       -4.0305  -24.7572  -46.2405 H         1 UNK         0.0600 
    217 H217       -4.6061  -24.4898  -43.8551 H         1 UNK         0.0600 
    218 H218       -4.8831  -26.1500  -44.3481 H         1 UNK         0.0600 
    219 H219       -6.2468  -25.0503  -44.1450 H         1 UNK         0.0600 
    220 H220       -5.7240  -23.6587  -48.2185 H         1 UNK         0.3000 
    221 H221       -7.1454  -21.3502  -47.4130 H         1 UNK         0.0600 
    222 H222       -5.8547  -22.1272  -50.0842 H         1 UNK         0.0600 
    223 H223       -7.4935  -22.5081  -49.5722 H         1 UNK         0.0600 
    224 H224       -7.0412  -20.8419  -49.8887 H         1 UNK         0.0600 
    225 H225       -6.6256  -19.1087  -48.2809 H         1 UNK         0.3000 
    226 H226       -4.2843  -18.1276  -46.9709 H         1 UNK         0.0600 
    227 H227       -6.3875  -16.8583  -46.9805 H         1 UNK         0.0600 
    228 H228       -5.1416  -15.9105  -47.7726 H         1 UNK         0.0600 
    229 H229       -6.3594  -16.7317  -48.7397 H         1 UNK         0.0600 
    230 H230       -2.4661  -18.9411  -47.9255 H         1 UNK         0.3000 
    231 H231       -0.6085  -18.9253  -49.0519 H         1 UNK         0.0600 
    232 H232        0.0372  -17.1559  -50.5673 H         1 UNK         0.0600 
    233 H233       -0.9026  -16.4349  -49.2771 H         1 UNK         0.0600 
    234 H234       -1.6332  -16.6867  -50.8599 H         1 UNK         0.0600 
    235 H235       -3.2982  -18.6648  -51.3494 H         1 UNK         0.3000 
    236 H236       -3.9193  -19.7299  -53.2017 H         1 UNK         0.0600 
    237 H237       -3.8426  -22.1870  -53.1667 H         1 UNK         0.0600 
    238 H238       -2.5359  -22.1739  -51.9919 H         1 UNK         0.0600 
    239 H239       -4.1391  -21.5947  -51.5414 H         1 UNK         0.0600 
    240 H240       -1.7083  -18.1935  -53.6910 H         1 UNK         0.3000 
    241 H241        0.3647  -19.5789  -55.0770 H         1 UNK         0.0600 
    242 H242       -2.4038  -19.0834  -57.9805 H         1 UNK         0.3800 
    243 H243       -2.8207  -18.9245  -56.2946 H         1 UNK         0.3800 
    244 H244        1.1898  -17.3421  -55.7278 H         1 UNK         0.0800 
    245 H245       -0.3168  -16.6111  -55.2452 H         1 UNK         0.0800 
    246 H246        2.7718  -18.7395  -53.8725 H         1 UNK         0.0800 
    247 H247        3.2061  -17.0899  -54.2696 H         1 UNK         0.0800 
@<TRIPOS>BOND
     1    1    2 1    
     2    1  127 1    
     3    1  128 1    
     4    1  129 1    
     5    2    3 2    
     6    2    4 am   BACKBONE|DICT|INTERRES
     7    4    5 1    
     8    4  130 1    
     9    5    6 1    
    10    5   65 1    
    11    5  131 1    
    12    6    7 1    
    13    6  132 1    
    14    6  133 1    
    15    7    8 1    
    16    8    9 1    
    17    8  134 1    
    18    8  135 1    
    19    9   10 ar   
    20    9   14 ar   
    21   10   11 ar   
    22   10  136 1    
    23   11   12 ar   
    24   11  126 1    
    25   12   13 ar   
    26   12  137 1    
    27   13   14 ar   
    28   13   15 1    
    29   14  138 1    
    30   15   16 1    
    31   15  139 1    
    32   15  140 1    
    33   16   17 1    
    34   17   18 1    
    35   17  141 1    
    36   17  142 1    
    37   18   19 1    
    38   18   67 1    
    39   18  143 1    
    40   19   20 am   BACKBONE|DICT|INTERRES
    41   19  144 1    
    42   20   21 2    
    43   20   22 1    
    44   22   23 1    
    45   22   24 1    
    46   22  145 1    
    47   23  146 1    
    48   23  147 1    
    49   23  148 1    
    50   24   25 am   BACKBONE|DICT|INTERRES
    51   24  149 1    
    52   25   26 2    
    53   25   27 1    
    54   27   28 1    
    55   27   29 1    
    56   27  150 1    
    57   28  151 1    
    58   28  152 1    
    59   28  153 1    
    60   29   30 am   BACKBONE|DICT|INTERRES
    61   29  154 1    
    62   30   31 2    
    63   30   32 1    
    64   32   33 1    
    65   32   34 1    
    66   32  155 1    
    67   33  156 1    
    68   33  157 1    
    69   33  158 1    
    70   34   35 am   BACKBONE|DICT|INTERRES
    71   34  159 1    
    72   35   36 2    
    73   35   37 1    
    74   37   38 1    
    75   37   39 1    
    76   37  160 1    
    77   38  161 1    
    78   38  162 1    
    79   38  163 1    
    80   39   40 am   BACKBONE|DICT|INTERRES
    81   39  164 1    
    82   40   41 2    
    83   40   42 1    
    84   42   43 1    
    85   42   44 1    
    86   42  165 1    
    87   43  166 1    
    88   43  167 1    
    89   43  168 1    
    90   44   45 am   BACKBONE|DICT|INTERRES
    91   44  169 1    
    92   45   46 2    
    93   45   47 1    
    94   47   48 1    
    95   47   49 1    
    96   47  170 1    
    97   48  171 1    
    98   48  172 1    
    99   48  173 1    
   100   49   50 am   BACKBONE|DICT|INTERRES
   101   49  174 1    
   102   50   51 2    
   103   50   52 1    
   104   52   53 1    
   105   52   54 1    
   106   52  175 1    
   107   53  176 1    
   108   53  177 1    
   109   53  178 1    
   110   54   55 am   BACKBONE|DICT|INTERRES
   111   54  179 1    
   112   55   56 2    
   113   55   57 1    
   114   57   58 1    
   115   57   59 1    
   116   57  180 1    
   117   58  181 1    
   118   58  182 1    
   119   58  183 1    
   120   59   60 am   BACKBONE|DICT|INTERRES
   121   59  184 1    
   122   60   61 2    
   123   60   62 1    
   124   62   63 1    
   125   62   64 1    
   126   62  185 1    
   127   63  186 1    
   128   63  187 1    
   129   63  188 1    
   130   64   65 am   BACKBONE|DICT|INTERRES
   131   64  189 1    
   132   65   66 2    
   133   67   68 2    
   134   67   69 am   BACKBONE|DICT|INTERRES
   135   69   70 1    
   136   69  190 1    
   137   70   71 1    
   138   70   72 1    
   139   70  191 1    
   140   71  192 1    
   141   71  193 1    
   142   71  194 1    
   143   72   73 2    
   144   72   74 am   BACKBONE|DICT|INTERRES
   145   74   75 1    
   146   74  195 1    
   147   75   76 1    
   148   75   77 1    
   149   75  196 1    
   150   76  197 1    
   151   76  198 1    
   152   76  199 1    
   153   77   78 2    
   154   77   79 am   BACKBONE|DICT|INTERRES
   155   79   80 1    
   156   79  200 1    
   157   80   81 1    
   158   80   82 1    
   159   80  201 1    
   160   81  202 1    
   161   81  203 1    
   162   81  204 1    
   163   82   83 2    
   164   82   84 am   BACKBONE|DICT|INTERRES
   165   84   85 1    
   166   84  205 1    
   167   85   86 1    
   168   85   87 1    
   169   85  206 1    
   170   86  207 1    
   171   86  208 1    
   172   86  209 1    
   173   87   88 2    
   174   87   89 am   BACKBONE|DICT|INTERRES
   175   89   90 1    
   176   89  210 1    
   177   90   91 1    
   178   90   92 1    
   179   90  211 1    
   180   91  212 1    
   181   91  213 1    
   182   91  214 1    
   183   92   93 2    
   184   92   94 am   BACKBONE|DICT|INTERRES
   185   94   95 1    
   186   94  215 1    
   187   95   96 1    
   188   95   97 1    
   189   95  216 1    
   190   96  217 1    
   191   96  218 1    
   192   96  219 1    
   193   97   98 2    
   194   97   99 am   BACKBONE|DICT|INTERRES
   195   99  100 1    
   196   99  220 1    
   197  100  101 1    
   198  100  102 1    
   199  100  221 1    
   200  101  222 1    
   201  101  223 1    
   202  101  224 1    
   203  102  103 2    
   204  102  104 am   BACKBONE|DICT|INTERRES
   205  104  105 1    
   206  104  225 1    
   207  105  106 1    
   208  105  107 1    
   209  105  226 1    
   210  106  227 1    
   211  106  228 1    
   212  106  229 1    
   213  107  108 2    
   214  107  109 am   BACKBONE|DICT|INTERRES
   215  109  110 1    
   216  109  230 1    
   217  110  111 1    
   218  110  112 1    
   219  110  231 1    
   220  111  232 1    
   221  111  233 1    
   222  111  234 1    
   223  112  113 2    
   224  112  114 am   BACKBONE|DICT|INTERRES
   225  114  115 1    
   226  114  235 1    
   227  115  116 1    
   228  115  117 1    
   229  115  236 1    
   230  116  237 1    
   231  116  238 1    
   232  116  239 1    
   233  117  118 2    
   234  117  119 am   BACKBONE|DICT|INTERRES
   235  119  120 1    
   236  119  240 1    
   237  120  121 1    
   238  120  124 1    
   239  120  241 1    
   240  121  122 am   BACKBONE|DICT|INTERRES
   241  121  123 2    
   242  122  242 1    
   243  122  243 1    
   244  124  125 1    
   245  124  244 1    
   246  124  245 1    
   247  125  126 1    
   248  126  246 1    
   249  126  247 1    
@<TRIPOS>SUBSTRUCTURE
     1 UNK         1 GROUP             0       ****    0 ROOT    
