@<TRIPOS>MOLECULE
3R540
247   249    1
SMALL
USER_CHARGES


@<TRIPOS>ATOM
      1 CA         -1.6743   -7.4129  -48.5743 C.3       0 UNK        -0.1800 
      2 C          -0.6951   -8.4765  -49.0514 C.2       0 UNK         0.5000 
      3 O          -0.1188   -8.3384  -50.1309 O.2       0 UNK        -0.5000 
      4 N          -0.5111   -9.5382  -48.2568 N.am      1 UNK        -0.5000 
      5 CA          0.4404  -10.6230  -48.5148 C.3       1 UNK         0.1400 
      6 C6          0.1426  -11.8559  -47.6226 C.3       23 UNK        -0.0398 
      7 S7          0.6201  -13.4278  -48.4194 S.3       23 UNK        -0.2404 
      8 C8         -1.0313  -14.1582  -48.6903 C.3       23 UNK        -0.0205 
      9 C9         -1.0232  -15.5596  -49.2948 C.ar      23 UNK        -0.0193 
     10 C10        -2.0371  -15.9217  -50.1875 C.ar      23 UNK        -0.1150 
     11 C11        -2.1055  -17.2174  -50.7064 C.ar      23 UNK        -0.0193 
     12 C12        -1.1571  -18.1649  -50.3120 C.ar      23 UNK        -0.1150 
     13 C13        -0.1308  -17.8177  -49.4311 C.ar      23 UNK        -0.0193 
     14 C14        -0.0664  -16.5141  -48.9304 C.ar      23 UNK        -0.1150 
     15 C15         0.9094  -18.8502  -49.0225 C.3       23 UNK        -0.0205 
     16 S16         0.6865  -19.4011  -47.3034 S.3       23 UNK        -0.2404 
     17 C17        -0.8853  -20.3221  -47.3673 C.3       23 UNK        -0.0398 
     18 CA         -0.7117  -21.7770  -46.8809 C.3       11 UNK         0.1400 
     19 N          -0.2020  -21.8499  -45.5092 N.am      11 UNK        -0.5000 
     20 C           0.3421  -22.9413  -44.9581 C.2       10 UNK         0.5000 
     21 O           0.4527  -24.0192  -45.5413 O.2       10 UNK        -0.5000 
     22 CA          0.7982  -22.8105  -43.4946 C.3       10 UNK         0.1400 
     23 CB          2.1138  -22.0245  -43.4116 C.3       10 UNK        -0.1800 
     24 N          -0.2090  -22.1597  -42.6559 N.am      10 UNK        -0.5000 
     25 C          -1.4193  -22.6729  -42.3942 C.2       9 UNK         0.5000 
     26 O          -1.8036  -23.7640  -42.8124 O.2       9 UNK        -0.5000 
     27 CA         -2.3821  -21.8064  -41.5637 C.3       9 UNK         0.1400 
     28 CB         -2.1531  -22.0346  -40.0625 C.3       9 UNK        -0.1800 
     29 N          -2.2892  -20.3747  -41.8484 N.am      9 UNK        -0.5000 
     30 C          -2.4546  -19.7899  -43.0412 C.2       8 UNK         0.5000 
     31 O          -2.6660  -20.4149  -44.0812 O.2       8 UNK        -0.5000 
     32 CA         -2.3462  -18.2544  -43.1005 C.3       8 UNK         0.1400 
     33 CB         -3.7388  -17.5985  -43.0751 C.3       8 UNK        -0.1800 
     34 N          -1.4484  -17.6531  -42.1021 N.am      8 UNK        -0.5000 
     35 C          -1.5776  -17.5555  -40.7704 C.2       7 UNK         0.5000 
     36 O          -2.5260  -18.0294  -40.1442 O.2       7 UNK        -0.5000 
     37 CA         -0.4560  -16.8062  -40.0150 C.3       7 UNK         0.1400 
     38 CB         -0.2452  -17.3345  -38.5800 C.3       7 UNK        -0.1800 
     39 N           0.8123  -16.7358  -40.7559 N.am      7 UNK        -0.5000 
     40 C           1.6428  -17.7471  -41.0551 C.2       6 UNK         0.5000 
     41 O           1.4717  -18.9136  -40.6962 O.2       6 UNK        -0.5000 
     42 CA          2.8241  -17.3714  -41.9794 C.3       6 UNK         0.1400 
     43 CB          3.7372  -18.5661  -42.3163 C.3       6 UNK        -0.1800 
     44 N           2.3803  -16.7076  -43.2145 N.am      6 UNK        -0.5000 
     45 C           1.4494  -17.1519  -44.0749 C.2       5 UNK         0.5000 
     46 O           0.8330  -18.2090  -43.9447 O.2       5 UNK        -0.5000 
     47 CA          1.1111  -16.2343  -45.2612 C.3       5 UNK         0.1400 
     48 CB          0.1155  -15.1473  -44.8263 C.3       5 UNK        -0.1800 
     49 N           2.2695  -15.6035  -45.8956 N.am      5 UNK        -0.5000 
     50 C           3.3015  -16.2492  -46.4601 C.2       4 UNK         0.5000 
     51 O           3.4563  -17.4690  -46.4274 O.2       4 UNK        -0.5000 
     52 CA          4.3285  -15.3923  -47.2216 C.3       4 UNK         0.1400 
     53 CB          4.0971  -15.5080  -48.7371 C.3       4 UNK        -0.1800 
     54 N           4.3036  -13.9762  -46.8537 N.am      4 UNK        -0.5000 
     55 C           4.8361  -13.4610  -45.7377 C.2       3 UNK         0.5000 
     56 O           5.3260  -14.1542  -44.8450 O.2       3 UNK        -0.5000 
     57 CA          4.8028  -11.9228  -45.5774 C.3       3 UNK         0.1400 
     58 CB          6.1372  -11.3698  -45.0363 C.3       3 UNK        -0.1800 
     59 N           4.3846  -11.1860  -46.7800 N.am      3 UNK        -0.5000 
     60 C           4.9905  -11.1182  -47.9754 C.2       2 UNK         0.5000 
     61 O           6.0493  -11.6912  -48.2356 O.2       2 UNK        -0.5000 
     62 CA          4.2558  -10.3106  -49.0711 C.3       2 UNK         0.1400 
     63 CB          4.8617  -10.5244  -50.4702 C.3       2 UNK        -0.1800 
     64 N           2.8225  -10.6217  -49.1314 N.am      2 UNK        -0.5000 
     65 C           1.8881  -10.1320  -48.3077 C.2       1 UNK         0.5000 
     66 O           2.1455   -9.3694  -47.3724 O.2       1 UNK        -0.5000 
     67 C          -2.0218  -22.5695  -47.0453 C.2       11 UNK         0.5000 
     68 O          -2.2757  -23.0937  -48.1305 O.2       11 UNK        -0.5000 
     69 N          -2.8260  -22.6558  -45.9770 N.am      12 UNK        -0.5000 
     70 CA         -4.0200  -23.4952  -45.9100 C.3       12 UNK         0.1400 
     71 CB         -4.8662  -23.0997  -44.6918 C.3       12 UNK        -0.1800 
     72 C          -3.6616  -24.9917  -45.8814 C.2       12 UNK         0.5000 
     73 O          -4.2544  -25.7644  -46.6329 O.2       12 UNK        -0.5000 
     74 N          -2.6673  -25.3677  -45.0624 N.am      13 UNK        -0.5000 
     75 CA         -2.1353  -26.7308  -44.9607 C.3       13 UNK         0.1400 
     76 CB         -1.1645  -26.8193  -43.7737 C.3       13 UNK        -0.1800 
     77 C          -1.4541  -27.2110  -46.2562 C.2       13 UNK         0.5000 
     78 O          -1.6033  -28.3757  -46.6267 O.2       13 UNK        -0.5000 
     79 N          -0.7590  -26.2948  -46.9444 N.am      14 UNK        -0.5000 
     80 CA         -0.1662  -26.5058  -48.2684 C.3       14 UNK         0.1400 
     81 CB          0.8584  -25.3905  -48.5309 C.3       14 UNK        -0.1800 
     82 C          -1.2038  -26.5524  -49.4113 C.2       14 UNK         0.5000 
     83 O          -0.8382  -26.8849  -50.5385 O.2       14 UNK        -0.5000 
     84 N          -2.4588  -26.1863  -49.1104 N.am      15 UNK        -0.5000 
     85 CA         -3.6270  -26.0774  -49.9908 C.3       15 UNK         0.1400 
     86 CB         -3.9413  -27.4119  -50.6948 C.3       15 UNK        -0.1800 
     87 C          -3.5761  -24.8964  -50.9808 C.2       15 UNK         0.5000 
     88 O          -4.5214  -24.7157  -51.7487 O.2       15 UNK        -0.5000 
     89 N          -2.5193  -24.0774  -50.9156 N.am      16 UNK        -0.5000 
     90 CA         -2.3008  -22.8934  -51.7435 C.3       16 UNK         0.1400 
     91 CB         -0.8906  -22.3477  -51.4710 C.3       16 UNK        -0.1800 
     92 C          -3.3593  -21.8048  -51.5061 C.2       16 UNK         0.5000 
     93 O          -3.8434  -21.2103  -52.4710 O.2       16 UNK        -0.5000 
     94 N          -3.7140  -21.5885  -50.2316 N.am      17 UNK        -0.5000 
     95 CA         -4.7749  -20.6669  -49.8184 C.3       17 UNK         0.1400 
     96 CB         -4.4649  -20.1060  -48.4231 C.3       17 UNK        -0.1800 
     97 C          -6.1684  -21.3177  -49.8459 C.2       17 UNK         0.5000 
     98 O          -7.1583  -20.5973  -49.9668 O.2       17 UNK        -0.5000 
     99 N          -6.2304  -22.6549  -49.7566 N.am      18 UNK        -0.5000 
    100 CA        -7.4750  -23.4254  -49.8327 C.3       18 UNK         0.1400 
    101 CB        -7.2430  -24.8535  -49.3159 C.3       18 UNK        -0.1800 
    102 C         -8.0420  -23.4419  -51.2632 C.2       18 UNK         0.5000 
    103 O         -9.2364  -23.2086  -51.4500 O.2       18 UNK        -0.5000 
    104 N         -7.1622  -23.6731  -52.2482 N.am      19 UNK        -0.5000 
    105 CA        -7.4689  -23.5628  -53.6756 C.3       19 UNK         0.1400 
    106 CB        -6.4055  -24.3371  -54.4706 C.3       19 UNK        -0.1800 
    107 C         -7.5259  -22.0992  -54.1561 C.2       19 UNK         0.5000 
    108 O         -8.1153  -21.8308  -55.2030 O.2       19 UNK        -0.5000 
    109 N         -6.8878  -21.1956  -53.3954 N.am      20 UNK        -0.5000 
    110 CA        -6.6960  -19.7641  -53.6589 C.3       20 UNK         0.1400 
    111 CB        -8.0437  -19.0147  -53.6797 C.3       20 UNK        -0.1800 
    112 C         -5.8284  -19.4903  -54.9065 C.2       20 UNK         0.5000 
    113 O         -5.9418  -18.4286  -55.5211 O.2       20 UNK        -0.5000 
    114 N         -4.9677  -20.4573  -55.2493 N.am      21 UNK        -0.5000 
    115 CA        -3.9889  -20.3680  -56.3301 C.3       21 UNK         0.1400 
    116 CB        -3.6285  -21.7897  -56.7880 C.3       21 UNK        -0.1800 
    117 C         -2.7263  -19.6062  -55.8908 C.2       21 UNK         0.5000 
    118 O         -2.0814  -18.9697  -56.7245 O.2       21 UNK        -0.5000 
    119 N         -2.4055  -19.6898  -54.5921 N.am      22 UNK        -0.5000 
    120 CA        -1.2778  -19.0214  -53.9223 C.3       22 UNK         0.1400 
    121 C          0.1401  -19.4983  -54.3642 C.2       22 UNK         0.5000 
    122 N          0.2770  -20.6445  -55.0195 N.am      22 UNK        -0.7600 
    123 O          1.1380  -18.8422  -54.0796 O.2       22 UNK        -0.5000 
    124 C124       -1.4061  -17.4707  -53.8908 C.3       23 UNK        -0.0398 
    125 S125       -3.0221  -16.8320  -53.3146 S.3       23 UNK        -0.2404 
    126 C126       -3.2182  -17.5974  -51.6724 C.3       23 UNK        -0.0205 
    127 H127       -2.1165   -7.6709  -47.6117 H         1 UNK         0.0600 
    128 H128       -2.4809   -7.2935  -49.2977 H         1 UNK         0.0600 
    129 H129       -1.1650   -6.4550  -48.4685 H         1 UNK         0.0600 
    130 H130       -0.9866   -9.5723  -47.3665 H         1 UNK         0.3000 
    131 H131        0.3172  -10.9088  -49.5622 H         1 UNK         0.0600 
    132 H132        0.6343  -11.7851  -46.6502 H         1 UNK         0.0800 
    133 H133       -0.9234  -11.9004  -47.3952 H         1 UNK         0.0800 
    134 H134       -1.6007  -13.4803  -49.3284 H         1 UNK         0.0800 
    135 H135       -1.5613  -14.2089  -47.7386 H         1 UNK         0.0800 
    136 H136       -2.7856  -15.1968  -50.4758 H         1 UNK         0.1150 
    137 H137       -1.2165  -19.1768  -50.6837 H         1 UNK         0.1150 
    138 H138        0.7230  -16.2523  -48.2427 H         1 UNK         0.1150 
    139 H139        1.9035  -18.4115  -49.1205 H         1 UNK         0.0800 
    140 H140        0.8895  -19.7148  -49.6879 H         1 UNK         0.0800 
    141 H141       -1.2650  -20.3110  -48.3894 H         1 UNK         0.0800 
    142 H142       -1.6177  -19.7919  -46.7557 H         1 UNK         0.0800 
    143 H143        0.0251  -22.2528  -47.5312 H         1 UNK         0.0600 
    144 H144       -0.2753  -21.0065  -44.9578 H         1 UNK         0.3000 
    145 H145        0.9698  -23.8149  -43.1019 H         1 UNK         0.0600 
    146 H146        2.9028  -22.5237  -43.9754 H         1 UNK         0.0600 
    147 H147        2.4575  -21.9298  -42.3812 H         1 UNK         0.0600 
    148 H148        2.0015  -21.0212  -43.8237 H         1 UNK         0.0600 
    149 H149        0.0204  -21.2483  -42.2847 H         1 UNK         0.3000 
    150 H150       -3.3990  -22.1204  -41.8054 H         1 UNK         0.0600 
    151 H151       -1.1639  -21.6964  -39.7511 H         1 UNK         0.0600 
    152 H152       -2.2346  -23.0928  -39.8103 H         1 UNK         0.0600 
    153 H153       -2.8927  -21.5007  -39.4653 H         1 UNK         0.0600 
    154 H154       -2.1752  -19.7582  -41.0515 H         1 UNK         0.3000 
    155 H155       -1.9006  -18.0237  -44.0693 H         1 UNK         0.0600 
    156 H156       -4.2727  -17.8080  -42.1479 H         1 UNK         0.0600 
    157 H157       -4.3561  -17.9687  -43.8947 H         1 UNK         0.0600 
    158 H158       -3.6671  -16.5165  -43.1857 H         1 UNK         0.0600 
    159 H159       -0.5661  -17.3455  -42.4879 H         1 UNK         0.3000 
    160 H160       -0.8033  -15.7757  -39.9286 H         1 UNK         0.0600 
    161 H161        0.0027  -18.3961  -38.5681 H         1 UNK         0.0600 
    162 H162       -1.1474  -17.2070  -37.9808 H         1 UNK         0.0600 
    163 H163        0.5561  -16.7959  -38.0742 H         1 UNK         0.0600 
    164 H164        1.0462  -15.8208  -41.1161 H         1 UNK         0.3000 
    165 H165        3.4250  -16.6456  -41.4296 H         1 UNK         0.0600 
    166 H166        4.1131  -19.0429  -41.4104 H         1 UNK         0.0600 
    167 H167        3.2102  -19.3235  -42.8933 H         1 UNK         0.0600 
    168 H168        4.6010  -18.2469  -42.8994 H         1 UNK         0.0600 
    169 H169        2.8272  -15.8260  -43.4244 H         1 UNK         0.3000 
    170 H170        0.6183  -16.8493  -46.0131 H         1 UNK         0.0600 
    171 H171       -0.2197  -14.5560  -45.6773 H         1 UNK         0.0600 
    172 H172        0.5541  -14.4649  -44.0974 H         1 UNK         0.0600 
    173 H173       -0.7735  -15.5874  -44.3727 H         1 UNK         0.0600 
    174 H174        2.2404  -14.5998  -45.9916 H         1 UNK         0.3000 
    175 H175        5.3200  -15.7912  -46.9970 H         1 UNK         0.0600 
    176 H176        4.1505  -16.5478  -49.0627 H         1 UNK         0.0600 
    177 H177        3.1178  -15.1257  -49.0267 H         1 UNK         0.0600 
    178 H178        4.8526  -14.9545  -49.2952 H         1 UNK         0.0600 
    179 H179        3.9241  -13.3378  -47.5364 H         1 UNK         0.3000 
    180 H180        4.0378  -11.7215  -44.8264 H         1 UNK         0.0600 
    181 H181        6.9698  -11.5938  -45.7035 H         1 UNK         0.0600 
    182 H182        6.3755  -11.8011  -44.0634 H         1 UNK         0.0600 
    183 H183        6.0923  -10.2885  -44.9065 H         1 UNK         0.0600 
    184 H184        3.5282  -10.6492  -46.6853 H         1 UNK         0.3000 
    185 H185        4.3759   -9.2549  -48.8189 H         1 UNK         0.0600 
    186 H186        5.9146  -10.2398  -50.4907 H         1 UNK         0.0600 
    187 H187        4.7958  -11.5675  -50.7822 H         1 UNK         0.0600 
    188 H188        4.3509   -9.9174  -51.2180 H         1 UNK         0.0600 
    189 H189        2.5421  -11.2773  -49.8471 H         1 UNK         0.3000 
    190 H190       -2.5930  -22.1183  -45.1480 H         1 UNK         0.3000 
    191 H191       -4.6164  -23.3114  -46.8064 H         1 UNK         0.0600 
    192 H192       -5.1380  -22.0444  -44.7273 H         1 UNK         0.0600 
    193 H193       -5.7922  -23.6748  -44.6584 H         1 UNK         0.0600 
    194 H194       -4.3366  -23.2770  -43.7563 H         1 UNK         0.0600 
    195 H195       -2.2579  -24.6798  -44.4358 H         1 UNK         0.3000 
    196 H196       -2.9744  -27.4007  -44.7625 H         1 UNK         0.0600 
    197 H197       -0.7592  -27.8268  -43.6728 H         1 UNK         0.0600 
    198 H198       -1.6658  -26.5758  -42.8368 H         1 UNK         0.0600 
    199 H199       -0.3230  -26.1356  -43.8897 H         1 UNK         0.0600 
    200 H200       -0.6063  -25.3848  -46.5199 H         1 UNK         0.3000 
    201 H201        0.3601  -27.4624  -48.2634 H         1 UNK         0.0600 
    202 H202        1.3670  -25.5392  -49.4842 H         1 UNK         0.0600 
    203 H203        1.6247  -25.3674  -47.7558 H         1 UNK         0.0600 
    204 H204        0.3832  -24.4100  -48.5623 H         1 UNK         0.0600 
    205 H205       -2.6426  -25.9281  -48.1489 H         1 UNK         0.3000 
    206 H206       -4.4587  -25.8634  -49.3214 H         1 UNK         0.0600 
    207 H207       -3.9937  -28.2323  -49.9791 H         1 UNK         0.0600 
    208 H208       -4.9043  -27.3654  -51.2048 H         1 UNK         0.0600 
    209 H209       -3.1914  -27.6647  -51.4444 H         1 UNK         0.0600 
    210 H210       -1.8378  -24.2559  -50.1922 H         1 UNK         0.3000 
    211 H211       -2.3607  -23.1973  -52.7905 H         1 UNK         0.0600 
    212 H212       -0.1314  -23.1025  -51.6772 H         1 UNK         0.0600 
    213 H213       -0.6704  -21.4909  -52.1061 H         1 UNK         0.0600 
    214 H214       -0.7712  -22.0301  -50.4343 H         1 UNK         0.0600 
    215 H215       -3.2575  -22.1334  -49.5054 H         1 UNK         0.3000 
    216 H216       -4.8101  -19.8241  -50.5096 H         1 UNK         0.0600 
    217 H217       -4.3949  -20.8938  -47.6741 H         1 UNK         0.0600 
    218 H218       -5.2462  -19.4179  -48.0976 H         1 UNK         0.0600 
    219 H219       -3.5307  -19.5463  -48.4246 H         1 UNK         0.0600 
    220 H220       -5.3700  -23.1750  -49.6899 H         1 UNK         0.3000 
    221 H221       -8.2102  -22.9482  -49.1810 H         1 UNK         0.0600 
    222 H222       -6.6251  -25.4364  -49.9981 H         1 UNK         0.0600 
    223 H223       -6.7635  -24.8526  -48.3366 H         1 UNK         0.0600 
    224 H224       -8.1912  -25.3822  -49.2128 H         1 UNK         0.0600 
    225 H225       -6.2049  -23.9252  -52.0127 H         1 UNK         0.3000 
    226 H226       -8.4429  -24.0183  -53.8666 H         1 UNK         0.0600 
    227 H227       -6.3740  -25.3845  -54.1699 H         1 UNK         0.0600 
    228 H228       -6.6190  -24.3112  -55.5399 H         1 UNK         0.0600 
    229 H229       -5.4089  -23.9181  -54.3241 H         1 UNK         0.0600 
    230 H230       -6.4216  -21.5448  -52.5710 H         1 UNK         0.3000 
    231 H231       -6.1241  -19.3800  -52.8130 H         1 UNK         0.0600 
    232 H232       -8.6468  -19.2858  -54.5465 H         1 UNK         0.0600 
    233 H233       -7.8900  -17.9357  -53.7142 H         1 UNK         0.0600 
    234 H234       -8.6259  -19.2297  -52.7835 H         1 UNK         0.0600 
    235 H235       -4.9225  -21.2739  -54.6567 H         1 UNK         0.3000 
    236 H236       -4.4315  -19.8348  -57.1742 H         1 UNK         0.0600 
    237 H237       -3.1887  -22.3758  -55.9799 H         1 UNK         0.0600 
    238 H238       -4.5098  -22.3225  -57.1459 H         1 UNK         0.0600 
    239 H239       -2.9087  -21.7653  -57.6073 H         1 UNK         0.0600 
    240 H240       -3.0111  -20.2305  -53.9838 H         1 UNK         0.3000 
    241 H241       -1.3407  -19.3643  -52.8943 H         1 UNK         0.0600 
    242 H242        1.1976  -20.9505  -55.2930 H         1 UNK         0.3800 
    243 H243       -0.5283  -21.1949  -55.2679 H         1 UNK         0.3800 
    244 H244       -1.2253  -17.0628  -54.8862 H         1 UNK         0.0800 
    245 H245       -0.6360  -17.0404  -53.2483 H         1 UNK         0.0800 
    246 H246       -4.1762  -17.2868  -51.2532 H         1 UNK         0.0800 
    247 H247       -3.2778  -18.6777  -51.7905 H         1 UNK         0.0800 
@<TRIPOS>BOND
     1    1    2 1    
     2    1  127 1    
     3    1  128 1    
     4    1  129 1    
     5    2    3 2    
     6    2    4 am   BACKBONE|DICT|INTERRES
     7    4    5 1    
     8    4  130 1    
     9    5    6 1    
    10    5   65 1    
    11    5  131 1    
    12    6    7 1    
    13    6  132 1    
    14    6  133 1    
    15    7    8 1    
    16    8    9 1    
    17    8  134 1    
    18    8  135 1    
    19    9   10 ar   
    20    9   14 ar   
    21   10   11 ar   
    22   10  136 1    
    23   11   12 ar   
    24   11  126 1    
    25   12   13 ar   
    26   12  137 1    
    27   13   14 ar   
    28   13   15 1    
    29   14  138 1    
    30   15   16 1    
    31   15  139 1    
    32   15  140 1    
    33   16   17 1    
    34   17   18 1    
    35   17  141 1    
    36   17  142 1    
    37   18   19 1    
    38   18   67 1    
    39   18  143 1    
    40   19   20 am   BACKBONE|DICT|INTERRES
    41   19  144 1    
    42   20   21 2    
    43   20   22 1    
    44   22   23 1    
    45   22   24 1    
    46   22  145 1    
    47   23  146 1    
    48   23  147 1    
    49   23  148 1    
    50   24   25 am   BACKBONE|DICT|INTERRES
    51   24  149 1    
    52   25   26 2    
    53   25   27 1    
    54   27   28 1    
    55   27   29 1    
    56   27  150 1    
    57   28  151 1    
    58   28  152 1    
    59   28  153 1    
    60   29   30 am   BACKBONE|DICT|INTERRES
    61   29  154 1    
    62   30   31 2    
    63   30   32 1    
    64   32   33 1    
    65   32   34 1    
    66   32  155 1    
    67   33  156 1    
    68   33  157 1    
    69   33  158 1    
    70   34   35 am   BACKBONE|DICT|INTERRES
    71   34  159 1    
    72   35   36 2    
    73   35   37 1    
    74   37   38 1    
    75   37   39 1    
    76   37  160 1    
    77   38  161 1    
    78   38  162 1    
    79   38  163 1    
    80   39   40 am   BACKBONE|DICT|INTERRES
    81   39  164 1    
    82   40   41 2    
    83   40   42 1    
    84   42   43 1    
    85   42   44 1    
    86   42  165 1    
    87   43  166 1    
    88   43  167 1    
    89   43  168 1    
    90   44   45 am   BACKBONE|DICT|INTERRES
    91   44  169 1    
    92   45   46 2    
    93   45   47 1    
    94   47   48 1    
    95   47   49 1    
    96   47  170 1    
    97   48  171 1    
    98   48  172 1    
    99   48  173 1    
   100   49   50 am   BACKBONE|DICT|INTERRES
   101   49  174 1    
   102   50   51 2    
   103   50   52 1    
   104   52   53 1    
   105   52   54 1    
   106   52  175 1    
   107   53  176 1    
   108   53  177 1    
   109   53  178 1    
   110   54   55 am   BACKBONE|DICT|INTERRES
   111   54  179 1    
   112   55   56 2    
   113   55   57 1    
   114   57   58 1    
   115   57   59 1    
   116   57  180 1    
   117   58  181 1    
   118   58  182 1    
   119   58  183 1    
   120   59   60 am   BACKBONE|DICT|INTERRES
   121   59  184 1    
   122   60   61 2    
   123   60   62 1    
   124   62   63 1    
   125   62   64 1    
   126   62  185 1    
   127   63  186 1    
   128   63  187 1    
   129   63  188 1    
   130   64   65 am   BACKBONE|DICT|INTERRES
   131   64  189 1    
   132   65   66 2    
   133   67   68 2    
   134   67   69 am   BACKBONE|DICT|INTERRES
   135   69   70 1    
   136   69  190 1    
   137   70   71 1    
   138   70   72 1    
   139   70  191 1    
   140   71  192 1    
   141   71  193 1    
   142   71  194 1    
   143   72   73 2    
   144   72   74 am   BACKBONE|DICT|INTERRES
   145   74   75 1    
   146   74  195 1    
   147   75   76 1    
   148   75   77 1    
   149   75  196 1    
   150   76  197 1    
   151   76  198 1    
   152   76  199 1    
   153   77   78 2    
   154   77   79 am   BACKBONE|DICT|INTERRES
   155   79   80 1    
   156   79  200 1    
   157   80   81 1    
   158   80   82 1    
   159   80  201 1    
   160   81  202 1    
   161   81  203 1    
   162   81  204 1    
   163   82   83 2    
   164   82   84 am   BACKBONE|DICT|INTERRES
   165   84   85 1    
   166   84  205 1    
   167   85   86 1    
   168   85   87 1    
   169   85  206 1    
   170   86  207 1    
   171   86  208 1    
   172   86  209 1    
   173   87   88 2    
   174   87   89 am   BACKBONE|DICT|INTERRES
   175   89   90 1    
   176   89  210 1    
   177   90   91 1    
   178   90   92 1    
   179   90  211 1    
   180   91  212 1    
   181   91  213 1    
   182   91  214 1    
   183   92   93 2    
   184   92   94 am   BACKBONE|DICT|INTERRES
   185   94   95 1    
   186   94  215 1    
   187   95   96 1    
   188   95   97 1    
   189   95  216 1    
   190   96  217 1    
   191   96  218 1    
   192   96  219 1    
   193   97   98 2    
   194   97   99 am   BACKBONE|DICT|INTERRES
   195   99  100 1    
   196   99  220 1    
   197  100  101 1    
   198  100  102 1    
   199  100  221 1    
   200  101  222 1    
   201  101  223 1    
   202  101  224 1    
   203  102  103 2    
   204  102  104 am   BACKBONE|DICT|INTERRES
   205  104  105 1    
   206  104  225 1    
   207  105  106 1    
   208  105  107 1    
   209  105  226 1    
   210  106  227 1    
   211  106  228 1    
   212  106  229 1    
   213  107  108 2    
   214  107  109 am   BACKBONE|DICT|INTERRES
   215  109  110 1    
   216  109  230 1    
   217  110  111 1    
   218  110  112 1    
   219  110  231 1    
   220  111  232 1    
   221  111  233 1    
   222  111  234 1    
   223  112  113 2    
   224  112  114 am   BACKBONE|DICT|INTERRES
   225  114  115 1    
   226  114  235 1    
   227  115  116 1    
   228  115  117 1    
   229  115  236 1    
   230  116  237 1    
   231  116  238 1    
   232  116  239 1    
   233  117  118 2    
   234  117  119 am   BACKBONE|DICT|INTERRES
   235  119  120 1    
   236  119  240 1    
   237  120  121 1    
   238  120  124 1    
   239  120  241 1    
   240  121  122 am   BACKBONE|DICT|INTERRES
   241  121  123 2    
   242  122  242 1    
   243  122  243 1    
   244  124  125 1    
   245  124  244 1    
   246  124  245 1    
   247  125  126 1    
   248  126  246 1    
   249  126  247 1    
@<TRIPOS>SUBSTRUCTURE
     1 UNK         1 GROUP             0       ****    0 ROOT    
