@<TRIPOS>MOLECULE
3R540
247   249    1
SMALL
USER_CHARGES


@<TRIPOS>ATOM
      1 CA         -2.3148  -10.1440  -48.4228 C.3       0 UNK        -0.1800 
      2 C          -1.0070  -10.9063  -48.5820 C.2       0 UNK         0.5000 
      3 O           0.0628  -10.3382  -48.3617 O.2       0 UNK        -0.5000 
      4 N          -1.0900  -12.1853  -48.9666 N.am      1 UNK        -0.5000 
      5 CA          0.0476  -13.1051  -49.0533 C.3       1 UNK         0.1400 
      6 C6         -0.1972  -14.2027  -50.1200 C.3       23 UNK        -0.0398 
      7 S7          1.3630  -14.8679  -50.8009 S.3       23 UNK        -0.2404 
      8 C8          0.7506  -16.0659  -52.0227 C.3       23 UNK        -0.0205 
      9 C9          0.1755  -17.3109  -51.3656 C.ar      23 UNK        -0.0193 
     10 C10        -1.1903  -17.3866  -51.0893 C.ar      23 UNK        -0.1150 
     11 C11        -1.7479  -18.5462  -50.5464 C.ar      23 UNK        -0.0193 
     12 C12        -0.9151  -19.6310  -50.2516 C.ar      23 UNK        -0.1150 
     13 C13         0.4633  -19.5544  -50.4863 C.ar      23 UNK        -0.0193 
     14 C14         1.0002  -18.3951  -51.0537 C.ar      23 UNK        -0.1150 
     15 C15         1.3730  -20.7264  -50.1402 C.3       23 UNK        -0.0205 
     16 S16         2.3324  -20.4642  -48.6045 S.3       23 UNK        -0.2404 
     17 C17         1.0213  -20.2212  -47.3617 C.3       23 UNK        -0.0398 
     18 CA          0.3264  -21.5464  -46.9673 C.3       11 UNK         0.1400 
     19 N           1.1388  -22.3654  -46.0648 N.am      11 UNK        -0.5000 
     20 C           1.0912  -23.7040  -46.0087 C.2       10 UNK         0.5000 
     21 O           0.4158  -24.3983  -46.7668 O.2       10 UNK        -0.5000 
     22 CA          1.9283  -24.3924  -44.9124 C.3       10 UNK         0.1400 
     23 CB          3.3339  -24.7211  -45.4378 C.3       10 UNK        -0.1800 
     24 N           2.0490  -23.6027  -43.6860 N.am      10 UNK        -0.5000 
     25 C           1.0284  -23.2854  -42.8775 C.2       9 UNK         0.5000 
     26 O          -0.1316  -23.6470  -43.0645 O.2       9 UNK        -0.5000 
     27 CA          1.3455  -22.3547  -41.6929 C.3       9 UNK         0.1400 
     28 CB          1.7808  -23.1722  -40.4682 C.3       9 UNK        -0.1800 
     29 N           2.3614  -21.3389  -41.9808 N.am      9 UNK        -0.5000 
     30 C           2.3372  -20.4600  -42.9912 C.2       8 UNK         0.5000 
     31 O           1.4555  -20.4287  -43.8524 O.2       8 UNK        -0.5000 
     32 CA          3.4883  -19.4396  -43.0180 C.3       8 UNK         0.1400 
     33 CB          3.7100  -18.8463  -44.4191 C.3       8 UNK        -0.1800 
     34 N           3.2327  -18.3608  -42.0645 N.am      8 UNK        -0.5000 
     35 C           3.3877  -18.4594  -40.7356 C.2       7 UNK         0.5000 
     36 O           3.8152  -19.4773  -40.1863 O.2       7 UNK        -0.5000 
     37 CA          3.0240  -17.2248  -39.8827 C.3       7 UNK         0.1400 
     38 CB          3.8191  -17.1742  -38.5652 C.3       7 UNK        -0.1800 
     39 N           3.2516  -15.9767  -40.6123 N.am      7 UNK        -0.5000 
     40 C           2.3222  -15.2945  -41.2894 C.2       6 UNK         0.5000 
     41 O           1.1355  -15.6250  -41.3449 O.2       6 UNK        -0.5000 
     42 CA          2.8196  -14.0419  -42.0282 C.3       6 UNK         0.1400 
     43 CB          3.9588  -14.3657  -43.0148 C.3       6 UNK        -0.1800 
     44 N           1.7149  -13.4260  -42.7558 N.am      6 UNK        -0.5000 
     45 C           1.5149  -12.1098  -42.8804 C.2       5 UNK         0.5000 
     46 O           2.2672  -11.2620  -42.3971 O.2       5 UNK        -0.5000 
     47 CA          0.2891  -11.6420  -43.6883 C.3       5 UNK         0.1400 
     48 CB          0.7369  -10.9370  -44.9779 C.3       5 UNK        -0.1800 
     49 N          -0.6405  -12.7176  -44.0414 N.am      5 UNK        -0.5000 
     50 C          -1.5813  -13.2084  -43.2230 C.2       4 UNK         0.5000 
     51 O          -1.7159  -12.8496  -42.0528 O.2       4 UNK        -0.5000 
     52 CA         -2.5412  -14.2614  -43.8011 C.3       4 UNK         0.1400 
     53 CB         -3.7123  -13.5771  -44.5242 C.3       4 UNK        -0.1800 
     54 N          -1.8673  -15.1618  -44.7362 N.am      4 UNK        -0.5000 
     55 C          -1.8485  -16.4987  -44.6359 C.2       3 UNK         0.5000 
     56 O          -2.4240  -17.1299  -43.7494 O.2       3 UNK        -0.5000 
     57 CA         -1.0704  -17.2732  -45.7214 C.3       3 UNK         0.1400 
     58 CB         -2.0353  -17.6749  -46.8495 C.3       3 UNK        -0.1800 
     59 N           0.0434  -16.5213  -46.3046 N.am      3 UNK        -0.5000 
     60 C           1.0885  -16.0243  -45.6274 C.2       2 UNK         0.5000 
     61 O           1.2972  -16.2464  -44.4367 O.2       2 UNK        -0.5000 
     62 CA          2.0416  -15.0789  -46.3870 C.3       2 UNK         0.1400 
     63 CB          3.3226  -15.8256  -46.7877 C.3       2 UNK        -0.1800 
     64 N           1.4820  -14.4406  -47.5836 N.am      2 UNK        -0.5000 
     65 C           0.3628  -13.7091  -47.6658 C.2       1 UNK         0.5000 
     66 O          -0.4102  -13.5420  -46.7169 O.2       1 UNK        -0.5000 
     67 C          -1.0659  -21.2766  -46.3721 C.2       11 UNK         0.5000 
     68 O          -2.0259  -21.1677  -47.1319 O.2       11 UNK        -0.5000 
     69 N          -1.1608  -21.1631  -45.0406 N.am      12 UNK        -0.5000 
     70 CA         -2.4180  -20.9459  -44.3268 C.3       12 UNK         0.1400 
     71 CB         -2.1202  -20.5488  -42.8739 C.3       12 UNK        -0.1800 
     72 C          -3.3491  -22.1719  -44.3833 C.2       12 UNK         0.5000 
     73 O          -4.5409  -22.0124  -44.6528 O.2       12 UNK        -0.5000 
     74 N          -2.7875  -23.3656  -44.1362 N.am      13 UNK        -0.5000 
     75 CA         -3.4753  -24.6584  -44.0995 C.3       13 UNK         0.1400 
     76 CB         -2.4613  -25.7626  -43.7598 C.3       13 UNK        -0.1800 
     77 C          -4.2101  -24.9722  -45.4144 C.2       13 UNK         0.5000 
     78 O          -3.5639  -25.2647  -46.4227 O.2       13 UNK        -0.5000 
     79 N          -5.5461  -24.8496  -45.3838 N.am      14 UNK        -0.5000 
     80 CA         -6.4819  -25.0236  -46.5036 C.3       14 UNK         0.1400 
     81 CB         -6.5737  -26.5142  -46.8916 C.3       14 UNK        -0.1800 
     82 C          -6.1680  -24.1204  -47.7177 C.2       14 UNK         0.5000 
     83 O          -6.4461  -24.5061  -48.8548 O.2       14 UNK        -0.5000 
     84 N          -5.5336  -22.9634  -47.4626 N.am      15 UNK        -0.5000 
     85 CA         -4.9816  -22.0235  -48.4474 C.3       15 UNK         0.1400 
     86 CB         -6.1263  -21.3401  -49.2244 C.3       15 UNK        -0.1800 
     87 C          -3.9316  -22.6644  -49.3896 C.2       15 UNK         0.5000 
     88 O          -3.7632  -22.2020  -50.5191 O.2       15 UNK        -0.5000 
     89 N          -3.3001  -23.7658  -48.9473 N.am      16 UNK        -0.5000 
     90 CA         -2.4498  -24.6703  -49.7298 C.3       16 UNK         0.1400 
     91 CB         -1.1025  -24.0005  -50.0603 C.3       16 UNK        -0.1800 
     92 C          -3.1677  -25.2482  -50.9717 C.2       16 UNK         0.5000 
     93 O          -2.5417  -25.4375  -52.0153 O.2       16 UNK        -0.5000 
     94 N          -4.4831  -25.4865  -50.8363 N.am      17 UNK        -0.5000 
     95 CA         -5.4302  -25.8771  -51.8862 C.3       17 UNK         0.1400 
     96 CB         -5.0942  -27.2720  -52.4549 C.3       17 UNK        -0.1800 
     97 C          -5.5893  -24.7912  -52.9737 C.2       17 UNK         0.5000 
     98 O          -5.7835  -25.1172  -54.1458 O.2       17 UNK        -0.5000 
     99 N          -5.5042  -23.5205  -52.5490 N.am      18 UNK        -0.5000 
    100 CA        -5.5150  -22.2967  -53.3532 C.3       18 UNK         0.1400 
    101 CB        -6.8694  -22.1044  -54.0662 C.3       18 UNK        -0.1800 
    102 C         -4.3040  -22.2427  -54.3032 C.2       18 UNK         0.5000 
    103 O         -4.4721  -22.1777  -55.5235 O.2       18 UNK        -0.5000 
    104 N         -3.0998  -22.3055  -53.7162 N.am      19 UNK        -0.5000 
    105 CA        -1.8094  -22.3020  -54.4116 C.3       19 UNK         0.1400 
    106 CB        -0.6738  -22.4023  -53.3828 C.3       19 UNK        -0.1800 
    107 C         -1.6336  -21.0601  -55.3041 C.2       19 UNK         0.5000 
    108 O         -1.5656  -19.9453  -54.7855 O.2       19 UNK        -0.5000 
    109 N         -1.6291  -21.2741  -56.6291 N.am      20 UNK        -0.5000 
    110 CA        -1.6124  -20.2518  -57.6870 C.3       20 UNK         0.1400 
    111 CB        -0.2462  -19.5356  -57.7242 C.3       20 UNK        -0.1800 
    112 C         -2.8016  -19.2666  -57.5949 C.2       20 UNK         0.5000 
    113 O         -2.6529  -18.0833  -57.9070 O.2       20 UNK        -0.5000 
    114 N         -3.9476  -19.7687  -57.1057 N.am      21 UNK        -0.5000 
    115 CA        -5.1688  -19.0371  -56.7469 C.3       21 UNK         0.1400 
    116 CB        -5.8217  -18.4071  -57.9948 C.3       21 UNK        -0.1800 
    117 C         -4.9688  -18.0161  -55.6028 C.2       21 UNK         0.5000 
    118 O         -5.8195  -17.1456  -55.4131 O.2       21 UNK        -0.5000 
    119 N         -3.8544  -18.1353  -54.8663 N.am      22 UNK        -0.5000 
    120 CA        -3.3932  -17.2311  -53.8024 C.3       22 UNK         0.1400 
    121 C         -3.0505  -15.7863  -54.2796 C.2       22 UNK         0.5000 
    122 N         -2.8078  -15.5577  -55.5657 N.am      22 UNK        -0.7600 
    123 O         -2.9617  -14.8638  -53.4740 O.2       22 UNK        -0.5000 
    124 C124       -4.2960  -17.2776  -52.5381 C.3       23 UNK        -0.0398 
    125 S125       -4.2464  -18.9198  -51.7398 S.3       23 UNK        -0.2404 
    126 C126       -3.2405  -18.6121  -50.2487 C.3       23 UNK        -0.0205 
    127 H127       -2.3254   -9.2742  -49.0796 H         1 UNK         0.0600 
    128 H128       -2.4226   -9.7983  -47.3946 H         1 UNK         0.0600 
    129 H129       -3.1782  -10.7641  -48.6649 H         1 UNK         0.0600 
    130 H130       -2.0013  -12.6010  -49.0943 H         1 UNK         0.3000 
    131 H131        0.9214  -12.5247  -49.3582 H         1 UNK         0.0600 
    132 H132       -0.8092  -15.0108  -49.7174 H         1 UNK         0.0800 
    133 H133       -0.7575  -13.7895  -50.9606 H         1 UNK         0.0800 
    134 H134        1.5744  -16.3485  -52.6798 H         1 UNK         0.0800 
    135 H135        0.0042  -15.5910  -52.6620 H         1 UNK         0.0800 
    136 H136       -1.8200  -16.5391  -51.3129 H         1 UNK         0.1150 
    137 H137       -1.3400  -20.5289  -49.8238 H         1 UNK         0.1150 
    138 H138        2.0614  -18.3370  -51.2513 H         1 UNK         0.1150 
    139 H139        0.7952  -21.6470  -50.0596 H         1 UNK         0.0800 
    140 H140        2.0718  -20.8887  -50.9620 H         1 UNK         0.0800 
    141 H141        0.3152  -19.4992  -47.7665 H         1 UNK         0.0800 
    142 H142        1.4553  -19.7379  -46.4854 H         1 UNK         0.0800 
    143 H143        0.1492  -22.1092  -47.8820 H         1 UNK         0.0600 
    144 H144        1.6724  -21.8627  -45.3670 H         1 UNK         0.3000 
    145 H145        1.4294  -25.3301  -44.6584 H         1 UNK         0.0600 
    146 H146        3.8922  -23.8177  -45.6865 H         1 UNK         0.0600 
    147 H147        3.9100  -25.2815  -44.7012 H         1 UNK         0.0600 
    148 H148        3.2800  -25.3322  -46.3398 H         1 UNK         0.0600 
    149 H149        2.9679  -23.2543  -43.4561 H         1 UNK         0.3000 
    150 H150        0.4276  -21.8251  -41.4352 H         1 UNK         0.0600 
    151 H151        1.0311  -23.9222  -40.2118 H         1 UNK         0.0600 
    152 H152        1.9120  -22.5338  -39.5942 H         1 UNK         0.0600 
    153 H153        2.7215  -23.6947  -40.6467 H         1 UNK         0.0600 
    154 H154        3.0901  -21.2250  -41.2863 H         1 UNK         0.3000 
    155 H155        4.4075  -19.9561  -42.7330 H         1 UNK         0.0600 
    156 H156        3.9529  -19.6287  -45.1391 H         1 UNK         0.0600 
    157 H157        4.5358  -18.1349  -44.4199 H         1 UNK         0.0600 
    158 H158        2.8227  -18.3337  -44.7865 H         1 UNK         0.0600 
    159 H159        2.8206  -17.5182  -42.4410 H         1 UNK         0.3000 
    160 H160        1.9667  -17.3193  -39.6267 H         1 UNK         0.0600 
    161 H161        3.5471  -16.2992  -37.9746 H         1 UNK         0.0600 
    162 H162        4.8942  -17.1368  -38.7451 H         1 UNK         0.0600 
    163 H163        3.6182  -18.0515  -37.9490 H         1 UNK         0.0600 
    164 H164        4.2073  -15.6501  -40.6347 H         1 UNK         0.3000 
    165 H165        3.1919  -13.3528  -41.2673 H         1 UNK         0.0600 
    166 H166        3.6770  -15.1570  -43.7086 H         1 UNK         0.0600 
    167 H167        4.2355  -13.4896  -43.6017 H         1 UNK         0.0600 
    168 H168        4.8569  -14.6950  -42.4919 H         1 UNK         0.0600 
    169 H169        1.0196  -14.0740  -43.1045 H         1 UNK         0.3000 
    170 H170       -0.2405  -10.9098  -43.0752 H         1 UNK         0.0600 
    171 H171        1.3079  -11.6034  -45.6249 H         1 UNK         0.0600 
    172 H172       -0.1198  -10.5712  -45.5437 H         1 UNK         0.0600 
    173 H173        1.3688  -10.0760  -44.7568 H         1 UNK         0.0600 
    174 H174       -0.5982  -13.0378  -45.0061 H         1 UNK         0.3000 
    175 H175       -2.9448  -14.8205  -42.9544 H         1 UNK         0.0600 
    176 H176       -3.3721  -13.0042  -45.3881 H         1 UNK         0.0600 
    177 H177       -4.4392  -14.3101  -44.8743 H         1 UNK         0.0600 
    178 H178       -4.2369  -12.8906  -43.8585 H         1 UNK         0.0600 
    179 H179       -1.3642  -14.7256  -45.5022 H         1 UNK         0.3000 
    180 H180       -0.6626  -18.1767  -45.2630 H         1 UNK         0.0600 
    181 H181       -2.4769  -16.8009  -47.3300 H         1 UNK         0.0600 
    182 H182       -2.8538  -18.2858  -46.4672 H         1 UNK         0.0600 
    183 H183       -1.5362  -18.2568  -47.6209 H         1 UNK         0.0600 
    184 H184       -0.0374  -16.2836  -47.2814 H         1 UNK         0.3000 
    185 H185        2.3122  -14.2777  -45.6966 H         1 UNK         0.0600 
    186 H186        4.0424  -15.1543  -47.2561 H         1 UNK         0.0600 
    187 H187        3.8122  -16.2620  -45.9172 H         1 UNK         0.0600 
    188 H188        3.1125  -16.6360  -47.4874 H         1 UNK         0.0600 
    189 H189        2.0215  -14.5599  -48.4309 H         1 UNK         0.3000 
    190 H190       -0.3129  -21.1979  -44.4859 H         1 UNK         0.3000 
    191 H191       -2.9347  -20.1097  -44.8020 H         1 UNK         0.0600 
    192 H192       -1.6738  -21.3699  -42.3143 H         1 UNK         0.0600 
    193 H193       -1.4394  -19.6982  -42.8266 H         1 UNK         0.0600 
    194 H194       -3.0362  -20.2613  -42.3567 H         1 UNK         0.0600 
    195 H195       -1.7962  -23.3932  -43.9104 H         1 UNK         0.3000 
    196 H196       -4.2076  -24.6189  -43.2909 H         1 UNK         0.0600 
    197 H197       -2.0338  -25.6132  -42.7683 H         1 UNK         0.0600 
    198 H198       -1.6399  -25.7881  -44.4777 H         1 UNK         0.0600 
    199 H199       -2.9342  -26.7455  -43.7640 H         1 UNK         0.0600 
    200 H200       -5.9702  -24.5500  -44.5165 H         1 UNK         0.3000 
    201 H201       -7.4620  -24.7123  -46.1401 H         1 UNK         0.0600 
    202 H202       -7.3616  -26.6818  -47.6269 H         1 UNK         0.0600 
    203 H203       -6.8053  -27.1336  -46.0252 H         1 UNK         0.0600 
    204 H204       -5.6405  -26.8774  -47.3235 H         1 UNK         0.0600 
    205 H205       -5.3240  -22.7442  -46.4939 H         1 UNK         0.3000 
    206 H206       -4.4660  -21.2504  -47.8789 H         1 UNK         0.0600 
    207 H207       -6.6392  -22.0343  -49.8905 H         1 UNK         0.0600 
    208 H208       -5.7507  -20.5221  -49.8367 H         1 UNK         0.0600 
    209 H209       -6.8666  -20.9173  -48.5455 H         1 UNK         0.0600 
    210 H210       -3.4978  -24.0866  -48.0036 H         1 UNK         0.3000 
    211 H211       -2.2397  -25.5254  -49.0858 H         1 UNK         0.0600 
    212 H212       -0.5528  -23.7831  -49.1490 H         1 UNK         0.0600 
    213 H213       -0.4664  -24.6501  -50.6623 H         1 UNK         0.0600 
    214 H214       -1.2357  -23.0652  -50.6016 H         1 UNK         0.0600 
    215 H215       -4.9191  -25.2538  -49.9494 H         1 UNK         0.3000 
    216 H216       -6.4023  -25.9522  -51.3967 H         1 UNK         0.0600 
    217 H217       -5.8883  -27.6252  -53.1135 H         1 UNK         0.0600 
    218 H218       -4.1711  -27.2645  -53.0348 H         1 UNK         0.0600 
    219 H219       -4.9849  -28.0070  -51.6575 H         1 UNK         0.0600 
    220 H220       -5.2649  -23.3746  -51.5766 H         1 UNK         0.3000 
    221 H221       -5.4001  -21.4703  -52.6519 H         1 UNK         0.0600 
    222 H222       -7.0451  -22.8650  -54.8273 H         1 UNK         0.0600 
    223 H223       -7.6958  -22.1424  -53.3566 H         1 UNK         0.0600 
    224 H224       -6.9112  -21.1334  -54.5599 H         1 UNK         0.0600 
    225 H225       -3.0674  -22.3335  -52.7041 H         1 UNK         0.3000 
    226 H226       -1.7720  -23.1938  -55.0401 H         1 UNK         0.0600 
    227 H227       -0.6967  -23.3652  -52.8744 H         1 UNK         0.0600 
    228 H228        0.3016  -22.3164  -53.8634 H         1 UNK         0.0600 
    229 H229       -0.7402  -21.6146  -52.6310 H         1 UNK         0.0600 
    230 H230       -1.7276  -22.2259  -56.9550 H         1 UNK         0.3000 
    231 H231       -1.7333  -20.7831  -58.6319 H         1 UNK         0.0600 
    232 H232       -0.1743  -18.8735  -58.5878 H         1 UNK         0.0600 
    233 H233        0.5724  -20.2514  -57.7973 H         1 UNK         0.0600 
    234 H234       -0.0826  -18.9288  -56.8330 H         1 UNK         0.0600 
    235 H235       -3.9522  -20.7447  -56.8222 H         1 UNK         0.3000 
    236 H236       -5.8605  -19.7860  -56.3602 H         1 UNK         0.0600 
    237 H237       -5.9498  -19.1440  -58.7876 H         1 UNK         0.0600 
    238 H238       -6.8102  -18.0104  -57.7607 H         1 UNK         0.0600 
    239 H239       -5.2279  -17.5841  -58.3931 H         1 UNK         0.0600 
    240 H240       -3.2007  -18.8808  -55.0821 H         1 UNK         0.3000 
    241 H241       -2.4216  -17.6323  -53.5165 H         1 UNK         0.0600 
    242 H242       -2.5744  -14.6253  -55.8680 H         1 UNK         0.3800 
    243 H243       -2.8503  -16.3093  -56.2399 H         1 UNK         0.3800 
    244 H244       -4.0083  -16.5227  -51.8068 H         1 UNK         0.0800 
    245 H245       -5.3299  -17.0472  -52.7959 H         1 UNK         0.0800 
    246 H246       -3.4347  -19.4129  -49.5338 H         1 UNK         0.0800 
    247 H247       -3.5665  -17.6926  -49.7612 H         1 UNK         0.0800 
@<TRIPOS>BOND
     1    1    2 1    
     2    1  127 1    
     3    1  128 1    
     4    1  129 1    
     5    2    3 2    
     6    2    4 am   BACKBONE|DICT|INTERRES
     7    4    5 1    
     8    4  130 1    
     9    5    6 1    
    10    5   65 1    
    11    5  131 1    
    12    6    7 1    
    13    6  132 1    
    14    6  133 1    
    15    7    8 1    
    16    8    9 1    
    17    8  134 1    
    18    8  135 1    
    19    9   10 ar   
    20    9   14 ar   
    21   10   11 ar   
    22   10  136 1    
    23   11   12 ar   
    24   11  126 1    
    25   12   13 ar   
    26   12  137 1    
    27   13   14 ar   
    28   13   15 1    
    29   14  138 1    
    30   15   16 1    
    31   15  139 1    
    32   15  140 1    
    33   16   17 1    
    34   17   18 1    
    35   17  141 1    
    36   17  142 1    
    37   18   19 1    
    38   18   67 1    
    39   18  143 1    
    40   19   20 am   BACKBONE|DICT|INTERRES
    41   19  144 1    
    42   20   21 2    
    43   20   22 1    
    44   22   23 1    
    45   22   24 1    
    46   22  145 1    
    47   23  146 1    
    48   23  147 1    
    49   23  148 1    
    50   24   25 am   BACKBONE|DICT|INTERRES
    51   24  149 1    
    52   25   26 2    
    53   25   27 1    
    54   27   28 1    
    55   27   29 1    
    56   27  150 1    
    57   28  151 1    
    58   28  152 1    
    59   28  153 1    
    60   29   30 am   BACKBONE|DICT|INTERRES
    61   29  154 1    
    62   30   31 2    
    63   30   32 1    
    64   32   33 1    
    65   32   34 1    
    66   32  155 1    
    67   33  156 1    
    68   33  157 1    
    69   33  158 1    
    70   34   35 am   BACKBONE|DICT|INTERRES
    71   34  159 1    
    72   35   36 2    
    73   35   37 1    
    74   37   38 1    
    75   37   39 1    
    76   37  160 1    
    77   38  161 1    
    78   38  162 1    
    79   38  163 1    
    80   39   40 am   BACKBONE|DICT|INTERRES
    81   39  164 1    
    82   40   41 2    
    83   40   42 1    
    84   42   43 1    
    85   42   44 1    
    86   42  165 1    
    87   43  166 1    
    88   43  167 1    
    89   43  168 1    
    90   44   45 am   BACKBONE|DICT|INTERRES
    91   44  169 1    
    92   45   46 2    
    93   45   47 1    
    94   47   48 1    
    95   47   49 1    
    96   47  170 1    
    97   48  171 1    
    98   48  172 1    
    99   48  173 1    
   100   49   50 am   BACKBONE|DICT|INTERRES
   101   49  174 1    
   102   50   51 2    
   103   50   52 1    
   104   52   53 1    
   105   52   54 1    
   106   52  175 1    
   107   53  176 1    
   108   53  177 1    
   109   53  178 1    
   110   54   55 am   BACKBONE|DICT|INTERRES
   111   54  179 1    
   112   55   56 2    
   113   55   57 1    
   114   57   58 1    
   115   57   59 1    
   116   57  180 1    
   117   58  181 1    
   118   58  182 1    
   119   58  183 1    
   120   59   60 am   BACKBONE|DICT|INTERRES
   121   59  184 1    
   122   60   61 2    
   123   60   62 1    
   124   62   63 1    
   125   62   64 1    
   126   62  185 1    
   127   63  186 1    
   128   63  187 1    
   129   63  188 1    
   130   64   65 am   BACKBONE|DICT|INTERRES
   131   64  189 1    
   132   65   66 2    
   133   67   68 2    
   134   67   69 am   BACKBONE|DICT|INTERRES
   135   69   70 1    
   136   69  190 1    
   137   70   71 1    
   138   70   72 1    
   139   70  191 1    
   140   71  192 1    
   141   71  193 1    
   142   71  194 1    
   143   72   73 2    
   144   72   74 am   BACKBONE|DICT|INTERRES
   145   74   75 1    
   146   74  195 1    
   147   75   76 1    
   148   75   77 1    
   149   75  196 1    
   150   76  197 1    
   151   76  198 1    
   152   76  199 1    
   153   77   78 2    
   154   77   79 am   BACKBONE|DICT|INTERRES
   155   79   80 1    
   156   79  200 1    
   157   80   81 1    
   158   80   82 1    
   159   80  201 1    
   160   81  202 1    
   161   81  203 1    
   162   81  204 1    
   163   82   83 2    
   164   82   84 am   BACKBONE|DICT|INTERRES
   165   84   85 1    
   166   84  205 1    
   167   85   86 1    
   168   85   87 1    
   169   85  206 1    
   170   86  207 1    
   171   86  208 1    
   172   86  209 1    
   173   87   88 2    
   174   87   89 am   BACKBONE|DICT|INTERRES
   175   89   90 1    
   176   89  210 1    
   177   90   91 1    
   178   90   92 1    
   179   90  211 1    
   180   91  212 1    
   181   91  213 1    
   182   91  214 1    
   183   92   93 2    
   184   92   94 am   BACKBONE|DICT|INTERRES
   185   94   95 1    
   186   94  215 1    
   187   95   96 1    
   188   95   97 1    
   189   95  216 1    
   190   96  217 1    
   191   96  218 1    
   192   96  219 1    
   193   97   98 2    
   194   97   99 am   BACKBONE|DICT|INTERRES
   195   99  100 1    
   196   99  220 1    
   197  100  101 1    
   198  100  102 1    
   199  100  221 1    
   200  101  222 1    
   201  101  223 1    
   202  101  224 1    
   203  102  103 2    
   204  102  104 am   BACKBONE|DICT|INTERRES
   205  104  105 1    
   206  104  225 1    
   207  105  106 1    
   208  105  107 1    
   209  105  226 1    
   210  106  227 1    
   211  106  228 1    
   212  106  229 1    
   213  107  108 2    
   214  107  109 am   BACKBONE|DICT|INTERRES
   215  109  110 1    
   216  109  230 1    
   217  110  111 1    
   218  110  112 1    
   219  110  231 1    
   220  111  232 1    
   221  111  233 1    
   222  111  234 1    
   223  112  113 2    
   224  112  114 am   BACKBONE|DICT|INTERRES
   225  114  115 1    
   226  114  235 1    
   227  115  116 1    
   228  115  117 1    
   229  115  236 1    
   230  116  237 1    
   231  116  238 1    
   232  116  239 1    
   233  117  118 2    
   234  117  119 am   BACKBONE|DICT|INTERRES
   235  119  120 1    
   236  119  240 1    
   237  120  121 1    
   238  120  124 1    
   239  120  241 1    
   240  121  122 am   BACKBONE|DICT|INTERRES
   241  121  123 2    
   242  122  242 1    
   243  122  243 1    
   244  124  125 1    
   245  124  244 1    
   246  124  245 1    
   247  125  126 1    
   248  126  246 1    
   249  126  247 1    
@<TRIPOS>SUBSTRUCTURE
     1 UNK         1 GROUP             0       ****    0 ROOT    
