@<TRIPOS>MOLECULE
3R540
247   249    1
SMALL
USER_CHARGES


@<TRIPOS>ATOM
      1 CA         -5.8597  -14.5211  -47.1245 C.3       0 UNK        -0.1800 
      2 C          -4.9931  -13.5837  -46.2961 C.2       0 UNK         0.5000 
      3 O          -5.2989  -13.3260  -45.1320 O.2       0 UNK        -0.5000 
      4 N          -3.8962  -13.0906  -46.8826 N.am      1 UNK        -0.5000 
      5 CA         -2.8940  -12.1970  -46.2870 C.3       1 UNK         0.1400 
      6 C6         -2.1498  -11.3791  -47.3821 C.3       23 UNK        -0.0398 
      7 S7         -1.0679  -12.3376  -48.5083 S.3       23 UNK        -0.2404 
      8 C8         -2.2261  -12.9514  -49.7736 C.3       23 UNK        -0.0205 
      9 C9         -2.0380  -14.4449  -50.0079 C.ar      23 UNK        -0.0193 
     10 C10        -1.6648  -14.9202  -51.2700 C.ar      23 UNK        -0.1150 
     11 C11        -1.4678  -16.2881  -51.4814 C.ar      23 UNK        -0.0193 
     12 C12        -1.6480  -17.1794  -50.4230 C.ar      23 UNK        -0.1150 
     13 C13        -2.0242  -16.7222  -49.1604 C.ar      23 UNK        -0.0193 
     14 C14        -2.2225  -15.3555  -48.9600 C.ar      23 UNK        -0.1150 
     15 C15        -2.1713  -17.7024  -48.0097 C.3       23 UNK        -0.0205 
     16 S16        -3.7156  -18.6508  -48.1174 S.3       23 UNK        -0.2404 
     17 C17        -3.5797  -19.7229  -46.6454 C.3       23 UNK        -0.0398 
     18 CA         -2.8947  -21.0745  -46.9742 C.3       11 UNK         0.1400 
     19 N          -1.4357  -21.0211  -46.8551 N.am      11 UNK        -0.5000 
     20 C          -0.6138  -21.9523  -47.3604 C.2       10 UNK         0.5000 
     21 O          -1.0014  -22.9418  -47.9820 O.2       10 UNK        -0.5000 
     22 CA          0.8886  -21.7766  -47.0836 C.3       10 UNK         0.1400 
     23 CB          1.4762  -20.6428  -47.9376 C.3       10 UNK        -0.1800 
     24 N           1.1766  -21.5356  -45.6694 N.am      10 UNK        -0.5000 
     25 C           0.8948  -22.3947  -44.6786 C.2       9 UNK         0.5000 
     26 O           0.3586  -23.4895  -44.8491 O.2       9 UNK        -0.5000 
     27 CA          1.2367  -21.9407  -43.2497 C.3       9 UNK         0.1400 
     28 CB          2.7341  -22.1225  -42.9576 C.3       9 UNK        -0.1800 
     29 N           0.8529  -20.5528  -42.9991 N.am      9 UNK        -0.5000 
     30 C          -0.4113  -20.1086  -42.9600 C.2       8 UNK         0.5000 
     31 O          -1.3989  -20.8217  -43.1267 O.2       8 UNK        -0.5000 
     32 CA         -0.5950  -18.5949  -42.7540 C.3       8 UNK         0.1400 
     33 CB         -0.3558  -18.2256  -41.2817 C.3       8 UNK        -0.1800 
     34 N           0.2854  -17.8021  -43.6150 N.am      8 UNK        -0.5000 
     35 C           0.3027  -17.8808  -44.9541 C.2       7 UNK         0.5000 
     36 O          -0.4566  -18.5968  -45.6046 O.2       7 UNK        -0.5000 
     37 CA          1.3934  -17.0841  -45.6859 C.3       7 UNK         0.1400 
     38 CB          0.9410  -15.6459  -45.9646 C.3       7 UNK        -0.1800 
     39 N           2.6672  -17.0841  -44.9633 N.am      7 UNK        -0.5000 
     40 C           3.4230  -18.1792  -44.7882 C.2       6 UNK         0.5000 
     41 O           3.0803  -19.2953  -45.1836 O.2       6 UNK        -0.5000 
     42 CA          4.7528  -18.0369  -44.0149 C.3       6 UNK         0.1400 
     43 CB          5.8885  -18.8552  -44.6632 C.3       6 UNK        -0.1800 
     44 N           5.1795  -16.6551  -43.7607 N.am      6 UNK        -0.5000 
     45 C           5.5422  -15.7226  -44.6535 C.2       5 UNK         0.5000 
     46 O           5.5709  -15.8938  -45.8735 O.2       5 UNK        -0.5000 
     47 CA          5.9043  -14.3443  -44.0646 C.3       5 UNK         0.1400 
     48 CB          7.2707  -13.8632  -44.5798 C.3       5 UNK        -0.1800 
     49 N           4.9006  -13.3119  -44.3388 N.am      5 UNK        -0.5000 
     50 C           3.5888  -13.3887  -44.0752 C.2       4 UNK         0.5000 
     51 O           3.0353  -14.3957  -43.6256 O.2       4 UNK        -0.5000 
     52 CA          2.7669  -12.1181  -44.3730 C.3       4 UNK         0.1400 
     53 CB          2.4283  -12.0155  -45.8683 C.3       4 UNK        -0.1800 
     54 N           1.5279  -12.0713  -43.5951 N.am      4 UNK        -0.5000 
     55 C           1.4716  -11.8520  -42.2723 C.2       3 UNK         0.5000 
     56 O           2.4589  -11.5696  -41.5909 O.2       3 UNK        -0.5000 
     57 CA          0.0931  -11.9449  -41.5814 C.3       3 UNK         0.1400 
     58 CB         -0.4784  -10.5402  -41.3332 C.3       3 UNK        -0.1800 
     59 N          -0.8931  -12.7267  -42.3273 N.am      3 UNK        -0.5000 
     60 C          -0.8389  -14.0506  -42.5228 C.2       2 UNK         0.5000 
     61 O           0.0041  -14.7801  -42.0027 O.2       2 UNK        -0.5000 
     62 CA         -1.8882  -14.6700  -43.4705 C.3       2 UNK         0.1400 
     63 CB         -2.9761  -15.4018  -42.6699 C.3       2 UNK        -0.1800 
     64 N          -2.5430  -13.7422  -44.4002 N.am      2 UNK        -0.5000 
     65 C          -1.9568  -12.9322  -45.2927 C.2       1 UNK         0.5000 
     66 O          -0.7398  -12.7598  -45.3378 O.2       1 UNK        -0.5000 
     67 C          -3.4984  -22.2388  -46.1634 C.2       11 UNK         0.5000 
     68 O          -4.4436  -22.8572  -46.6502 O.2       11 UNK        -0.5000 
     69 N          -2.9465  -22.5579  -44.9824 N.am      12 UNK        -0.5000 
     70 CA         -3.3756  -23.7061  -44.1768 C.3       12 UNK         0.1400 
     71 CB         -2.7055  -23.6744  -42.7953 C.3       12 UNK        -0.1800 
     72 C          -3.1166  -25.0535  -44.8746 C.2       12 UNK         0.5000 
     73 O          -4.0019  -25.9094  -44.8819 O.2       12 UNK        -0.5000 
     74 N          -1.9278  -25.2044  -45.4751 N.am      13 UNK        -0.5000 
     75 CA         -1.5299  -26.3887  -46.2378 C.3       13 UNK         0.1400 
     76 CB         -0.0278  -26.3120  -46.5506 C.3       13 UNK        -0.1800 
     77 C          -2.3444  -26.5674  -47.5322 C.2       13 UNK         0.5000 
     78 O          -2.7228  -27.6913  -47.8646 O.2       13 UNK        -0.5000 
     79 N          -2.6062  -25.4560  -48.2309 N.am      14 UNK        -0.5000 
     80 CA         -3.3540  -25.4211  -49.4875 C.3       14 UNK         0.1400 
     81 CB         -3.0067  -24.1169  -50.2116 C.3       14 UNK        -0.1800 
     82 C          -4.8817  -25.5153  -49.3187 C.2       14 UNK         0.5000 
     83 O          -5.5736  -25.7296  -50.3133 O.2       14 UNK        -0.5000 
     84 N          -5.3845  -25.2951  -48.0953 N.am      15 UNK        -0.5000 
     85 CA         -6.7981  -25.1029  -47.7473 C.3       15 UNK         0.1400 
     86 CB         -7.6195  -26.3865  -47.9892 C.3       15 UNK        -0.1800 
     87 C          -7.3853  -23.8518  -48.4393 C.2       15 UNK         0.5000 
     88 O          -8.4652  -23.9046  -49.0296 O.2       15 UNK        -0.5000 
     89 N          -6.6216  -22.7527  -48.3600 N.am      16 UNK        -0.5000 
     90 CA         -6.8742  -21.4092  -48.8929 C.3       16 UNK         0.1400 
     91 CB         -8.1422  -20.7974  -48.2635 C.3       16 UNK        -0.1800 
     92 C          -6.8713  -21.3019  -50.4337 C.2       16 UNK         0.5000 
     93 O          -7.2521  -20.2563  -50.9631 O.2       16 UNK        -0.5000 
     94 N          -6.4279  -22.3522  -51.1377 N.am      17 UNK        -0.5000 
     95 CA         -6.2843  -22.3678  -52.5911 C.3       17 UNK         0.1400 
     96 CB         -6.2658  -23.8230  -53.0865 C.3       17 UNK        -0.1800 
     97 C          -5.0093  -21.6164  -53.0086 C.2       17 UNK         0.5000 
     98 O          -3.9150  -22.1773  -52.9246 O.2       17 UNK        -0.5000 
     99 N          -5.1609  -20.3654  -53.4640 N.am      18 UNK        -0.5000 
    100 CA        -4.0632  -19.4911  -53.8973 C.3       18 UNK         0.1400 
    101 CB        -4.6252  -18.1183  -54.2917 C.3       18 UNK        -0.1800 
    102 C         -3.2098  -20.0767  -55.0405 C.2       18 UNK         0.5000 
    103 O         -2.0022  -19.8384  -55.0859 O.2       18 UNK        -0.5000 
    104 N         -3.8405  -20.8833  -55.9046 N.am      19 UNK        -0.5000 
    105 CA        -3.2016  -21.6308  -56.9889 C.3       19 UNK         0.1400 
    106 CB        -4.2952  -22.2517  -57.8713 C.3       19 UNK        -0.1800 
    107 C         -2.2181  -22.7189  -56.5083 C.2       19 UNK         0.5000 
    108 O         -1.3247  -23.0889  -57.2707 O.2       19 UNK        -0.5000 
    109 N         -2.3887  -23.2025  -55.2702 N.am      20 UNK        -0.5000 
    110 CA        -1.4991  -24.1680  -54.6269 C.3       20 UNK         0.1400 
    111 CB        -2.3414  -25.2582  -53.9467 C.3       20 UNK        -0.1800 
    112 C         -0.5643  -23.4831  -53.6151 C.2       20 UNK         0.5000 
    113 O          0.6051  -23.8599  -53.5318 O.2       20 UNK        -0.5000 
    114 N         -1.0826  -22.4962  -52.8679 N.am      21 UNK        -0.5000 
    115 CA        -0.3368  -21.7442  -51.8558 C.3       21 UNK         0.1400 
    116 CB        -1.3122  -20.9143  -51.0106 C.3       21 UNK        -0.1800 
    117 C          0.7590  -20.8442  -52.4578 C.2       21 UNK         0.5000 
    118 O          1.8691  -20.8096  -51.9256 O.2       21 UNK        -0.5000 
    119 N          0.4318  -20.1575  -53.5588 N.am      22 UNK        -0.5000 
    120 CA         1.3650  -19.3592  -54.3693 C.3       22 UNK         0.1400 
    121 C          1.5567  -20.0003  -55.7670 C.2       22 UNK         0.5000 
    122 N          0.4864  -20.4154  -56.4331 N.am      22 UNK        -0.7600 
    123 O          2.6795  -20.1272  -56.2473 O.2       22 UNK        -0.5000 
    124 C124        0.9118  -17.8846  -54.5276 C.3       23 UNK        -0.0398 
    125 S125        0.7567  -17.0070  -52.9372 S.3       23 UNK        -0.2404 
    126 C126       -1.0480  -16.8139  -52.8425 C.3       23 UNK        -0.0205 
    127 H127       -5.4573  -14.6659  -48.1276 H         1 UNK         0.0600 
    128 H128       -6.8679  -14.1177  -47.2164 H         1 UNK         0.0600 
    129 H129       -5.9232  -15.4965  -46.6420 H         1 UNK         0.0600 
    130 H130       -3.6966  -13.3655  -47.8321 H         1 UNK         0.3000 
    131 H131       -3.4377  -11.4687  -45.6818 H         1 UNK         0.0600 
    132 H132       -1.5278  -10.6201  -46.9049 H         1 UNK         0.0800 
    133 H133       -2.8706  -10.8199  -47.9802 H         1 UNK         0.0800 
    134 H134       -2.0529  -12.3918  -50.6941 H         1 UNK         0.0800 
    135 H135       -3.2613  -12.7555  -49.4970 H         1 UNK         0.0800 
    136 H136       -1.5145  -14.2269  -52.0856 H         1 UNK         0.1150 
    137 H137       -1.4809  -18.2316  -50.5773 H         1 UNK         0.1150 
    138 H138       -2.4866  -15.0040  -47.9752 H         1 UNK         0.1150 
    139 H139       -1.3262  -18.3909  -48.0250 H         1 UNK         0.0800 
    140 H140       -2.1384  -17.1758  -47.0551 H         1 UNK         0.0800 
    141 H141       -4.6027  -19.8740  -46.2948 H         1 UNK         0.0800 
    142 H142       -3.0676  -19.2016  -45.8353 H         1 UNK         0.0800 
    143 H143       -3.1157  -21.3127  -48.0174 H         1 UNK         0.0600 
    144 H144       -1.0429  -20.2321  -46.3464 H         1 UNK         0.3000 
    145 H145        1.3881  -22.7056  -47.3661 H         1 UNK         0.0600 
    146 H146        2.5470  -20.5331  -47.7652 H         1 UNK         0.0600 
    147 H147        1.3385  -20.8443  -49.0004 H         1 UNK         0.0600 
    148 H148        1.0035  -19.6850  -47.7210 H         1 UNK         0.0600 
    149 H149        1.6510  -20.6669  -45.4427 H         1 UNK         0.3000 
    150 H150        0.6781  -22.5739  -42.5572 H         1 UNK         0.0600 
    151 H151        3.0370  -23.1588  -43.1130 H         1 UNK         0.0600 
    152 H152        2.9680  -21.8679  -41.9239 H         1 UNK         0.0600 
    153 H153        3.3532  -21.5005  -43.6047 H         1 UNK         0.0600 
    154 H154        1.6020  -19.8846  -42.9033 H         1 UNK         0.3000 
    155 H155       -1.6265  -18.3456  -43.0109 H         1 UNK         0.0600 
    156 H156        0.6769  -18.4061  -40.9814 H         1 UNK         0.0600 
    157 H157       -0.9968  -18.8135  -40.6233 H         1 UNK         0.0600 
    158 H158       -0.5778  -17.1771  -41.0913 H         1 UNK         0.0600 
    159 H159        0.9344  -17.1774  -43.1572 H         1 UNK         0.3000 
    160 H160        1.5572  -17.5687  -46.6504 H         1 UNK         0.0600 
    161 H161        0.8432  -15.0669  -45.0466 H         1 UNK         0.0600 
    162 H162       -0.0238  -15.6240  -46.4734 H         1 UNK         0.0600 
    163 H163        1.6562  -15.1359  -46.6090 H         1 UNK         0.0600 
    164 H164        2.9740  -16.1997  -44.5701 H         1 UNK         0.3000 
    165 H165        4.5636  -18.4711  -43.0322 H         1 UNK         0.0600 
    166 H166        6.0900  -18.5313  -45.6845 H         1 UNK         0.0600 
    167 H167        6.8137  -18.7673  -44.0936 H         1 UNK         0.0600 
    168 H168        5.6348  -19.9152  -44.7034 H         1 UNK         0.0600 
    169 H169        5.1468  -16.3777  -42.7893 H         1 UNK         0.3000 
    170 H170        5.9772  -14.4401  -42.9794 H         1 UNK         0.0600 
    171 H171        7.2536  -13.6766  -45.6544 H         1 UNK         0.0600 
    172 H172        7.5790  -12.9425  -44.0840 H         1 UNK         0.0600 
    173 H173        8.0443  -14.6082  -44.3886 H         1 UNK         0.0600 
    174 H174        5.2568  -12.4560  -44.7381 H         1 UNK         0.3000 
    175 H175        3.3710  -11.2502  -44.1003 H         1 UNK         0.0600 
    176 H176        1.8079  -12.8468  -46.2002 H         1 UNK         0.0600 
    177 H177        1.8877  -11.0944  -46.0868 H         1 UNK         0.0600 
    178 H178        3.3312  -12.0157  -46.4798 H         1 UNK         0.0600 
    179 H179        0.6796  -12.3301  -44.0911 H         1 UNK         0.3000 
    180 H180        0.2457  -12.4280  -40.6141 H         1 UNK         0.0600 
    181 H181       -1.4148  -10.5871  -40.7769 H         1 UNK         0.0600 
    182 H182       -0.6680  -10.0127  -42.2689 H         1 UNK         0.0600 
    183 H183        0.2147   -9.9335  -40.7489 H         1 UNK         0.0600 
    184 H184       -1.6162  -12.2086  -42.8033 H         1 UNK         0.3000 
    185 H185       -1.3665  -15.4101  -44.0778 H         1 UNK         0.0600 
    186 H186       -3.6413  -15.9605  -43.3287 H         1 UNK         0.0600 
    187 H187       -2.5421  -16.1154  -41.9698 H         1 UNK         0.0600 
    188 H188       -3.5834  -14.7044  -42.0917 H         1 UNK         0.0600 
    189 H189       -3.5582  -13.7753  -44.4235 H         1 UNK         0.3000 
    190 H190       -2.1960  -21.9904  -44.6026 H         1 UNK         0.3000 
    191 H191       -4.4535  -23.6194  -44.0241 H         1 UNK         0.0600 
    192 H192       -2.9975  -24.5391  -42.1982 H         1 UNK         0.0600 
    193 H193       -2.9977  -22.7850  -42.2373 H         1 UNK         0.0600 
    194 H194       -1.6182  -23.6815  -42.8736 H         1 UNK         0.0600 
    195 H195       -1.2344  -24.4657  -45.3893 H         1 UNK         0.3000 
    196 H196       -1.7024  -27.2667  -45.6120 H         1 UNK         0.0600 
    197 H197        0.2151  -25.4277  -47.1414 H         1 UNK         0.0600 
    198 H198        0.5630  -26.2733  -45.6353 H         1 UNK         0.0600 
    199 H199        0.3008  -27.1862  -47.1140 H         1 UNK         0.0600 
    200 H200       -2.2031  -24.5770  -47.9206 H         1 UNK         0.3000 
    201 H201       -3.0366  -26.2577  -50.1135 H         1 UNK         0.0600 
    202 H202       -3.5321  -24.0439  -51.1611 H         1 UNK         0.0600 
    203 H203       -3.2920  -23.2493  -49.6165 H         1 UNK         0.0600 
    204 H204       -1.9393  -24.0524  -50.4224 H         1 UNK         0.0600 
    205 H205       -4.7262  -25.0854  -47.3560 H         1 UNK         0.3000 
    206 H206       -6.8202  -24.8978  -46.6759 H         1 UNK         0.0600 
    207 H207       -7.1697  -27.2418  -47.4850 H         1 UNK         0.0600 
    208 H208       -8.6327  -26.2765  -47.6013 H         1 UNK         0.0600 
    209 H209       -7.7028  -26.6272  -49.0492 H         1 UNK         0.0600 
    210 H210       -5.7626  -22.8384  -47.8167 H         1 UNK         0.3000 
    211 H211       -6.0283  -20.8057  -48.5614 H         1 UNK         0.0600 
    212 H212       -8.2415  -19.7436  -48.5263 H         1 UNK         0.0600 
    213 H213       -8.1096  -20.8555  -47.1756 H         1 UNK         0.0600 
    214 H214       -9.0469  -21.3034  -48.6011 H         1 UNK         0.0600 
    215 H215       -6.1329  -23.1818  -50.6431 H         1 UNK         0.3000 
    216 H216       -7.1489  -21.8767  -53.0428 H         1 UNK         0.0600 
    217 H217       -5.4337  -24.3873  -52.6660 H         1 UNK         0.0600 
    218 H218       -6.1723  -23.8646  -54.1724 H         1 UNK         0.0600 
    219 H219       -7.1863  -24.3416  -52.8178 H         1 UNK         0.0600 
    220 H220       -6.0865  -19.9601  -53.4636 H         1 UNK         0.3000 
    221 H221       -3.4057  -19.3481  -53.0400 H         1 UNK         0.0600 
    222 H222       -5.1406  -17.6484  -53.4537 H         1 UNK         0.0600 
    223 H223       -5.3295  -18.1944  -55.1210 H         1 UNK         0.0600 
    224 H224       -3.8262  -17.4422  -54.5992 H         1 UNK         0.0600 
    225 H225       -4.8329  -21.0222  -55.7853 H         1 UNK         0.3000 
    226 H226       -2.6335  -20.9218  -57.5947 H         1 UNK         0.0600 
    227 H227       -4.9119  -22.9559  -57.3113 H         1 UNK         0.0600 
    228 H228       -4.9506  -21.4857  -58.2861 H         1 UNK         0.0600 
    229 H229       -3.8591  -22.7935  -58.7118 H         1 UNK         0.0600 
    230 H230       -3.1267  -22.8211  -54.6905 H         1 UNK         0.3000 
    231 H231       -0.8683  -24.6588  -55.3711 H         1 UNK         0.0600 
    232 H232       -3.0517  -24.8361  -53.2381 H         1 UNK         0.0600 
    233 H233       -1.7102  -25.9624  -53.4031 H         1 UNK         0.0600 
    234 H234       -2.9084  -25.8289  -54.6821 H         1 UNK         0.0600 
    235 H235       -2.0750  -22.2905  -52.9471 H         1 UNK         0.3000 
    236 H236        0.1489  -22.4645  -51.1937 H         1 UNK         0.0600 
    237 H237       -2.0554  -21.5392  -50.5219 H         1 UNK         0.0600 
    238 H238       -0.7837  -20.3746  -50.2247 H         1 UNK         0.0600 
    239 H239       -1.8453  -20.1883  -51.6209 H         1 UNK         0.0600 
    240 H240       -0.5014  -20.2542  -53.9431 H         1 UNK         0.3000 
    241 H241        2.3479  -19.3463  -53.8945 H         1 UNK         0.0600 
    242 H242        0.5980  -20.8547  -57.3330 H         1 UNK         0.3800 
    243 H243       -0.4424  -20.2665  -56.0521 H         1 UNK         0.3800 
    244 H244       -0.0335  -17.8282  -55.0704 H         1 UNK         0.0800 
    245 H245        1.6354  -17.3336  -55.1309 H         1 UNK         0.0800 
    246 H246       -1.5239  -17.7775  -53.0270 H         1 UNK         0.0800 
    247 H247       -1.3868  -16.1423  -53.6328 H         1 UNK         0.0800 
@<TRIPOS>BOND
     1    1    2 1    
     2    1  127 1    
     3    1  128 1    
     4    1  129 1    
     5    2    3 2    
     6    2    4 am   BACKBONE|DICT|INTERRES
     7    4    5 1    
     8    4  130 1    
     9    5    6 1    
    10    5   65 1    
    11    5  131 1    
    12    6    7 1    
    13    6  132 1    
    14    6  133 1    
    15    7    8 1    
    16    8    9 1    
    17    8  134 1    
    18    8  135 1    
    19    9   10 ar   
    20    9   14 ar   
    21   10   11 ar   
    22   10  136 1    
    23   11   12 ar   
    24   11  126 1    
    25   12   13 ar   
    26   12  137 1    
    27   13   14 ar   
    28   13   15 1    
    29   14  138 1    
    30   15   16 1    
    31   15  139 1    
    32   15  140 1    
    33   16   17 1    
    34   17   18 1    
    35   17  141 1    
    36   17  142 1    
    37   18   19 1    
    38   18   67 1    
    39   18  143 1    
    40   19   20 am   BACKBONE|DICT|INTERRES
    41   19  144 1    
    42   20   21 2    
    43   20   22 1    
    44   22   23 1    
    45   22   24 1    
    46   22  145 1    
    47   23  146 1    
    48   23  147 1    
    49   23  148 1    
    50   24   25 am   BACKBONE|DICT|INTERRES
    51   24  149 1    
    52   25   26 2    
    53   25   27 1    
    54   27   28 1    
    55   27   29 1    
    56   27  150 1    
    57   28  151 1    
    58   28  152 1    
    59   28  153 1    
    60   29   30 am   BACKBONE|DICT|INTERRES
    61   29  154 1    
    62   30   31 2    
    63   30   32 1    
    64   32   33 1    
    65   32   34 1    
    66   32  155 1    
    67   33  156 1    
    68   33  157 1    
    69   33  158 1    
    70   34   35 am   BACKBONE|DICT|INTERRES
    71   34  159 1    
    72   35   36 2    
    73   35   37 1    
    74   37   38 1    
    75   37   39 1    
    76   37  160 1    
    77   38  161 1    
    78   38  162 1    
    79   38  163 1    
    80   39   40 am   BACKBONE|DICT|INTERRES
    81   39  164 1    
    82   40   41 2    
    83   40   42 1    
    84   42   43 1    
    85   42   44 1    
    86   42  165 1    
    87   43  166 1    
    88   43  167 1    
    89   43  168 1    
    90   44   45 am   BACKBONE|DICT|INTERRES
    91   44  169 1    
    92   45   46 2    
    93   45   47 1    
    94   47   48 1    
    95   47   49 1    
    96   47  170 1    
    97   48  171 1    
    98   48  172 1    
    99   48  173 1    
   100   49   50 am   BACKBONE|DICT|INTERRES
   101   49  174 1    
   102   50   51 2    
   103   50   52 1    
   104   52   53 1    
   105   52   54 1    
   106   52  175 1    
   107   53  176 1    
   108   53  177 1    
   109   53  178 1    
   110   54   55 am   BACKBONE|DICT|INTERRES
   111   54  179 1    
   112   55   56 2    
   113   55   57 1    
   114   57   58 1    
   115   57   59 1    
   116   57  180 1    
   117   58  181 1    
   118   58  182 1    
   119   58  183 1    
   120   59   60 am   BACKBONE|DICT|INTERRES
   121   59  184 1    
   122   60   61 2    
   123   60   62 1    
   124   62   63 1    
   125   62   64 1    
   126   62  185 1    
   127   63  186 1    
   128   63  187 1    
   129   63  188 1    
   130   64   65 am   BACKBONE|DICT|INTERRES
   131   64  189 1    
   132   65   66 2    
   133   67   68 2    
   134   67   69 am   BACKBONE|DICT|INTERRES
   135   69   70 1    
   136   69  190 1    
   137   70   71 1    
   138   70   72 1    
   139   70  191 1    
   140   71  192 1    
   141   71  193 1    
   142   71  194 1    
   143   72   73 2    
   144   72   74 am   BACKBONE|DICT|INTERRES
   145   74   75 1    
   146   74  195 1    
   147   75   76 1    
   148   75   77 1    
   149   75  196 1    
   150   76  197 1    
   151   76  198 1    
   152   76  199 1    
   153   77   78 2    
   154   77   79 am   BACKBONE|DICT|INTERRES
   155   79   80 1    
   156   79  200 1    
   157   80   81 1    
   158   80   82 1    
   159   80  201 1    
   160   81  202 1    
   161   81  203 1    
   162   81  204 1    
   163   82   83 2    
   164   82   84 am   BACKBONE|DICT|INTERRES
   165   84   85 1    
   166   84  205 1    
   167   85   86 1    
   168   85   87 1    
   169   85  206 1    
   170   86  207 1    
   171   86  208 1    
   172   86  209 1    
   173   87   88 2    
   174   87   89 am   BACKBONE|DICT|INTERRES
   175   89   90 1    
   176   89  210 1    
   177   90   91 1    
   178   90   92 1    
   179   90  211 1    
   180   91  212 1    
   181   91  213 1    
   182   91  214 1    
   183   92   93 2    
   184   92   94 am   BACKBONE|DICT|INTERRES
   185   94   95 1    
   186   94  215 1    
   187   95   96 1    
   188   95   97 1    
   189   95  216 1    
   190   96  217 1    
   191   96  218 1    
   192   96  219 1    
   193   97   98 2    
   194   97   99 am   BACKBONE|DICT|INTERRES
   195   99  100 1    
   196   99  220 1    
   197  100  101 1    
   198  100  102 1    
   199  100  221 1    
   200  101  222 1    
   201  101  223 1    
   202  101  224 1    
   203  102  103 2    
   204  102  104 am   BACKBONE|DICT|INTERRES
   205  104  105 1    
   206  104  225 1    
   207  105  106 1    
   208  105  107 1    
   209  105  226 1    
   210  106  227 1    
   211  106  228 1    
   212  106  229 1    
   213  107  108 2    
   214  107  109 am   BACKBONE|DICT|INTERRES
   215  109  110 1    
   216  109  230 1    
   217  110  111 1    
   218  110  112 1    
   219  110  231 1    
   220  111  232 1    
   221  111  233 1    
   222  111  234 1    
   223  112  113 2    
   224  112  114 am   BACKBONE|DICT|INTERRES
   225  114  115 1    
   226  114  235 1    
   227  115  116 1    
   228  115  117 1    
   229  115  236 1    
   230  116  237 1    
   231  116  238 1    
   232  116  239 1    
   233  117  118 2    
   234  117  119 am   BACKBONE|DICT|INTERRES
   235  119  120 1    
   236  119  240 1    
   237  120  121 1    
   238  120  124 1    
   239  120  241 1    
   240  121  122 am   BACKBONE|DICT|INTERRES
   241  121  123 2    
   242  122  242 1    
   243  122  243 1    
   244  124  125 1    
   245  124  244 1    
   246  124  245 1    
   247  125  126 1    
   248  126  246 1    
   249  126  247 1    
@<TRIPOS>SUBSTRUCTURE
     1 UNK         1 GROUP             0       ****    0 ROOT    
