@<TRIPOS>MOLECULE
3R540
247   249    1
SMALL
USER_CHARGES


@<TRIPOS>ATOM
      1 CA         -2.2268  -12.4832  -46.4420 C.3       0 UNK        -0.1800 
      2 C          -1.2676  -12.5635  -47.6208 C.2       0 UNK         0.5000 
      3 O          -0.5321  -11.6101  -47.8750 O.2       0 UNK        -0.5000 
      4 N          -1.2576  -13.7002  -48.3328 N.am      1 UNK        -0.5000 
      5 CA         -0.4131  -13.9590  -49.5115 C.3       1 UNK         0.1400 
      6 C6         -0.7794  -15.3051  -50.1897 C.3       23 UNK        -0.0398 
      7 S7         -0.6965  -15.2337  -52.0103 S.3       23 UNK        -0.2404 
      8 C8          0.9166  -16.0025  -52.3672 C.3       23 UNK        -0.0205 
      9 C9          0.9636  -17.4852  -52.0234 C.ar      23 UNK        -0.0193 
     10 C10         0.1330  -18.3908  -52.6908 C.ar      23 UNK        -0.1150 
     11 C11         0.1987  -19.7641  -52.4185 C.ar      23 UNK        -0.0193 
     12 C12         1.1085  -20.2149  -51.4591 C.ar      23 UNK        -0.1150 
     13 C13         1.9273  -19.3194  -50.7651 C.ar      23 UNK        -0.0193 
     14 C14         1.8574  -17.9555  -51.0577 C.ar      23 UNK        -0.1150 
     15 C15         2.8616  -19.8302  -49.6768 C.3       23 UNK        -0.0205 
     16 S16         2.2985  -19.3780  -48.0011 S.3       23 UNK        -0.2404 
     17 C17         0.5933  -20.0247  -47.9690 C.3       23 UNK        -0.0398 
     18 CA          0.4808  -21.4243  -47.3239 C.3       11 UNK         0.1400 
     19 N           0.5895  -21.3738  -45.8630 N.am      11 UNK        -0.5000 
     20 C           0.5982  -22.4376  -45.0481 C.2       10 UNK         0.5000 
     21 O           0.5971  -23.6016  -45.4453 O.2       10 UNK        -0.5000 
     22 CA          0.5287  -22.1583  -43.5350 C.3       10 UNK         0.1400 
     23 CB          1.9125  -21.8105  -42.9669 C.3       10 UNK        -0.1800 
     24 N          -0.4313  -21.1015  -43.2081 N.am      10 UNK        -0.5000 
     25 C          -1.7533  -21.1986  -43.4134 C.2       9 UNK         0.5000 
     26 O          -2.3021  -22.2155  -43.8378 O.2       9 UNK        -0.5000 
     27 CA         -2.6002  -19.9399  -43.1485 C.3       9 UNK         0.1400 
     28 CB         -2.9258  -19.8022  -41.6542 C.3       9 UNK        -0.1800 
     29 N          -1.9581  -18.7172  -43.6330 N.am      9 UNK        -0.5000 
     30 C          -1.7086  -18.4526  -44.9235 C.2       8 UNK         0.5000 
     31 O          -2.0614  -19.1840  -45.8481 O.2       8 UNK        -0.5000 
     32 CA         -0.8760  -17.1929  -45.2330 C.3       8 UNK         0.1400 
     33 CB         -1.7604  -15.9406  -45.2754 C.3       8 UNK        -0.1800 
     34 N           0.2189  -16.9891  -44.2834 N.am      8 UNK        -0.5000 
     35 C           1.2374  -17.8434  -44.1086 C.2       7 UNK         0.5000 
     36 O           1.3829  -18.8695  -44.7681 O.2       7 UNK        -0.5000 
     37 CA          2.2196  -17.5381  -42.9661 C.3       7 UNK         0.1400 
     38 CB          3.2666  -16.4971  -43.3848 C.3       7 UNK        -0.1800 
     39 N           1.5200  -17.0853  -41.7659 N.am      7 UNK        -0.5000 
     40 C           0.7657  -17.8810  -40.9949 C.2       6 UNK         0.5000 
     41 O           0.6210  -19.0873  -41.1932 O.2       6 UNK        -0.5000 
     42 CA          0.0167  -17.2034  -39.8332 C.3       6 UNK         0.1400 
     43 CB          0.9256  -17.0791  -38.6015 C.3       6 UNK        -0.1800 
     44 N          -0.4953  -15.8801  -40.1948 N.am      6 UNK        -0.5000 
     45 C          -1.4684  -15.6668  -41.0919 C.2       5 UNK         0.5000 
     46 O          -2.0598  -16.5678  -41.6846 O.2       5 UNK        -0.5000 
     47 CA         -1.8013  -14.1993  -41.4159 C.3       5 UNK         0.1400 
     48 CB         -2.8175  -13.6396  -40.4097 C.3       5 UNK        -0.1800 
     49 N          -0.6177  -13.3355  -41.4469 N.am      5 UNK        -0.5000 
     50 C           0.3824  -13.4555  -42.3291 C.2       4 UNK         0.5000 
     51 O           0.4313  -14.3340  -43.1933 O.2       4 UNK        -0.5000 
     52 CA          1.5442  -12.4600  -42.1903 C.3       4 UNK         0.1400 
     53 CB          2.7042  -13.0885  -41.4039 C.3       4 UNK        -0.1800 
     54 N           2.0244  -12.0450  -43.5049 N.am      4 UNK        -0.5000 
     55 C           1.4181  -11.1425  -44.2827 C.2       3 UNK         0.5000 
     56 O           0.4157  -10.5134  -43.9412 O.2       3 UNK        -0.5000 
     57 CA          2.0249  -10.8969  -45.6757 C.3       3 UNK         0.1400 
     58 CB          3.3621  -10.1354  -45.5897 C.3       3 UNK        -0.1800 
     59 N           2.1351  -12.1053  -46.5007 N.am      3 UNK        -0.5000 
     60 C           2.9344  -13.1730  -46.3513 C.2       2 UNK         0.5000 
     61 O           3.7349  -13.3005  -45.4234 O.2       2 UNK        -0.5000 
     62 CA          2.8061  -14.2836  -47.4165 C.3       2 UNK         0.1400 
     63 CB          3.1450  -15.6786  -46.8684 C.3       2 UNK        -0.1800 
     64 N           1.4558  -14.3259  -47.9753 N.am      2 UNK        -0.5000 
     65 C           1.0975  -13.8973  -49.1917 C.2       1 UNK         0.5000 
     66 O           1.8853  -13.4394  -50.0193 O.2       1 UNK        -0.5000 
     67 C          -0.8202  -22.1145  -47.7825 C.2       11 UNK         0.5000 
     68 O          -0.7642  -22.9862  -48.6487 O.2       11 UNK        -0.5000 
     69 N          -1.9587  -21.7368  -47.1836 N.am      12 UNK        -0.5000 
     70 CA         -3.2719  -22.3263  -47.4498 C.3       12 UNK         0.1400 
     71 CB         -4.3501  -21.5423  -46.6881 C.3       12 UNK        -0.1800 
     72 C          -3.3373  -23.8241  -47.1035 C.2       12 UNK         0.5000 
     73 O          -3.8884  -24.6027  -47.8833 O.2       12 UNK        -0.5000 
     74 N          -2.7381  -24.2001  -45.9649 N.am      13 UNK        -0.5000 
     75 CA         -2.5944  -25.5836  -45.5151 C.3       13 UNK         0.1400 
     76 CB         -2.0910  -25.6056  -44.0642 C.3       13 UNK        -0.1800 
     77 C          -1.6747  -26.4124  -46.4303 C.2       13 UNK         0.5000 
     78 O          -2.0176  -27.5494  -46.7529 O.2       13 UNK        -0.5000 
     79 N          -0.5495  -25.8243  -46.8625 N.am      14 UNK        -0.5000 
     80 CA          0.4021  -26.4258  -47.8012 C.3       14 UNK         0.1400 
     81 CB          1.6739  -25.5668  -47.8713 C.3       14 UNK        -0.1800 
     82 C          -0.1948  -26.6324  -49.2057 C.2       14 UNK         0.5000 
     83 O           0.0468  -27.6704  -49.8229 O.2       14 UNK        -0.5000 
     84 N          -0.9931  -25.6599  -49.6670 N.am      15 UNK        -0.5000 
     85 CA         -1.7747  -25.7315  -50.9037 C.3       15 UNK         0.1400 
     86 CB         -2.2662  -24.3190  -51.2620 C.3       15 UNK        -0.1800 
     87 C          -2.9685  -26.7048  -50.8131 C.2       15 UNK         0.5000 
     88 O          -3.4843  -27.1197  -51.8514 O.2       15 UNK        -0.5000 
     89 N          -3.3876  -27.0307  -49.5805 N.am      16 UNK        -0.5000 
     90 CA         -4.5504  -27.8386  -49.2009 C.3       16 UNK         0.1400 
     91 CB         -4.3620  -29.3078  -49.6312 C.3       16 UNK        -0.1800 
     92 C          -5.8755  -27.2206  -49.6937 C.2       16 UNK         0.5000 
     93 O          -6.7792  -27.9428  -50.1202 O.2       16 UNK        -0.5000 
     94 N          -5.9539  -25.8860  -49.6423 N.am      17 UNK        -0.5000 
     95 CA         -7.0512  -25.0812  -50.1637 C.3       17 UNK         0.1400 
     96 CB         -7.0225  -25.0736  -51.7107 C.3       17 UNK        -0.1800 
     97 C          -6.9650  -23.6859  -49.5264 C.2       17 UNK         0.5000 
     98 O          -7.2084  -23.5566  -48.3260 O.2       17 UNK        -0.5000 
     99 N          -6.6149  -22.6752  -50.3266 N.am      18 UNK        -0.5000 
    100 CA        -6.4157  -21.2900  -49.9240 C.3       18 UNK         0.1400 
    101 CB        -7.6622  -20.4679  -50.2897 C.3       18 UNK        -0.1800 
    102 C         -5.1763  -20.7518  -50.6478 C.2       18 UNK         0.5000 
    103 O         -4.8462  -21.2295  -51.7363 O.2       18 UNK        -0.5000 
    104 N         -4.5277  -19.7513  -50.0445 N.am      19 UNK        -0.5000 
    105 CA        -3.3925  -19.0366  -50.6208 C.3       19 UNK         0.1400 
    106 CB        -2.4779  -18.5624  -49.4778 C.3       19 UNK        -0.1800 
    107 C         -3.9159  -17.8838  -51.4974 C.2       19 UNK         0.5000 
    108 O         -3.8947  -16.7258  -51.0792 O.2       19 UNK        -0.5000 
    109 N         -4.4399  -18.2338  -52.6749 N.am      20 UNK        -0.5000 
    110 CA        -4.9890  -17.3172  -53.6665 C.3       20 UNK         0.1400 
    111 CB        -6.4394  -16.9518  -53.3045 C.3       20 UNK        -0.1800 
    112 C         -4.9146  -17.9939  -55.0405 C.2       20 UNK         0.5000 
    113 O         -5.1275  -19.2055  -55.1267 O.2       20 UNK        -0.5000 
    114 N         -4.6191  -17.1993  -56.0801 N.am      21 UNK        -0.5000 
    115 CA        -4.3741  -17.6227  -57.4674 C.3       21 UNK         0.1400 
    116 CB        -5.6553  -18.1958  -58.1101 C.3       21 UNK        -0.1800 
    117 C         -3.1535  -18.5635  -57.5925 C.2       21 UNK         0.5000 
    118 O         -3.1802  -19.5315  -58.3553 O.2       21 UNK        -0.5000 
    119 N         -2.1029  -18.2526  -56.8280 N.am      22 UNK        -0.5000 
    120 CA        -0.8516  -19.0093  -56.7122 C.3       22 UNK         0.1400 
    121 C          0.3060  -18.1041  -56.2092 C.2       22 UNK         0.5000 
    122 N          1.5329  -18.6066  -56.1783 N.am      22 UNK        -0.7600 
    123 O          0.1104  -16.9412  -55.8601 O.2       22 UNK        -0.5000 
    124 C124       -1.0127  -20.3320  -55.9044 C.3       23 UNK        -0.0398 
    125 S125       -1.9005  -20.1719  -54.3107 S.3       23 UNK        -0.2404 
    126 C126       -0.6972  -20.8051  -53.0931 C.3       23 UNK        -0.0205 
    127 H127       -2.9095  -13.3325  -46.4147 H         1 UNK         0.0600 
    128 H128       -2.8230  -11.5729  -46.5051 H         1 UNK         0.0600 
    129 H129       -1.6681  -12.4608  -45.5058 H         1 UNK         0.0600 
    130 H130       -1.9022  -14.4365  -48.0849 H         1 UNK         0.3000 
    131 H131       -0.6236  -13.1460  -50.2101 H         1 UNK         0.0600 
    132 H132       -1.8118  -15.5657  -49.9570 H         1 UNK         0.0800 
    133 H133       -0.1832  -16.1359  -49.8082 H         1 UNK         0.0800 
    134 H134        1.1253  -15.8882  -53.4318 H         1 UNK         0.0800 
    135 H135        1.7021  -15.4550  -51.8454 H         1 UNK         0.0800 
    136 H136       -0.5621  -18.0048  -53.4206 H         1 UNK         0.1150 
    137 H137        1.1576  -21.2704  -51.2291 H         1 UNK         0.1150 
    138 H138        2.4940  -17.2627  -50.5250 H         1 UNK         0.1150 
    139 H139        2.9646  -20.9149  -49.7342 H         1 UNK         0.0800 
    140 H140        3.8595  -19.4200  -49.8371 H         1 UNK         0.0800 
    141 H141        0.1865  -20.0248  -48.9777 H         1 UNK         0.0800 
    142 H142       -0.0184  -19.3074  -47.4257 H         1 UNK         0.0800 
    143 H143        1.3061  -22.0384  -47.6898 H         1 UNK         0.0600 
    144 H144        0.6759  -20.4476  -45.4502 H         1 UNK         0.3000 
    145 H145        0.1891  -23.0739  -43.0465 H         1 UNK         0.0600 
    146 H146        1.8679  -21.6544  -41.8889 H         1 UNK         0.0600 
    147 H147        2.6210  -22.6191  -43.1503 H         1 UNK         0.0600 
    148 H148        2.3239  -20.9084  -43.4180 H         1 UNK         0.0600 
    149 H149       -0.0555  -20.2455  -42.8159 H         1 UNK         0.3000 
    150 H150       -3.5424  -20.0557  -43.6877 H         1 UNK         0.0600 
    151 H151       -3.4262  -20.6961  -41.2799 H         1 UNK         0.0600 
    152 H152       -3.5904  -18.9574  -41.4726 H         1 UNK         0.0600 
    153 H153       -2.0269  -19.6543  -41.0560 H         1 UNK         0.0600 
    154 H154       -1.7034  -18.0270  -42.9330 H         1 UNK         0.3000 
    155 H155       -0.4311  -17.3208  -46.2214 H         1 UNK         0.0600 
    156 H156       -2.2593  -15.7670  -44.3221 H         1 UNK         0.0600 
    157 H157       -2.5336  -16.0344  -46.0388 H         1 UNK         0.0600 
    158 H158       -1.1702  -15.0549  -45.5079 H         1 UNK         0.0600 
    159 H159        0.1967  -16.1335  -43.7345 H         1 UNK         0.3000 
    160 H160        2.7478  -18.4626  -42.7230 H         1 UNK         0.0600 
    161 H161        2.8074  -15.5593  -43.6982 H         1 UNK         0.0600 
    162 H162        3.8631  -16.8667  -44.2192 H         1 UNK         0.0600 
    163 H163        3.9561  -16.2794  -42.5693 H         1 UNK         0.0600 
    164 H164        1.5481  -16.0975  -41.5655 H         1 UNK         0.3000 
    165 H165       -0.8324  -17.8374  -39.5693 H         1 UNK         0.0600 
    166 H166        0.3821  -16.6682  -37.7505 H         1 UNK         0.0600 
    167 H167        1.3091  -18.0549  -38.3002 H         1 UNK         0.0600 
    168 H168        1.7839  -16.4345  -38.7953 H         1 UNK         0.0600 
    169 H169       -0.0640  -15.0832  -39.7507 H         1 UNK         0.3000 
    170 H170       -2.2575  -14.1756  -42.4077 H         1 UNK         0.0600 
    171 H171       -3.7176  -14.2553  -40.3812 H         1 UNK         0.0600 
    172 H172       -2.4097  -13.6071  -39.3986 H         1 UNK         0.0600 
    173 H173       -3.1255  -12.6295  -40.6808 H         1 UNK         0.0600 
    174 H174       -0.5842  -12.5933  -40.7628 H         1 UNK         0.3000 
    175 H175        1.1968  -11.5795  -41.6456 H         1 UNK         0.0600 
    176 H176        2.3775  -13.4200  -40.4174 H         1 UNK         0.0600 
    177 H177        3.1231  -13.9516  -41.9202 H         1 UNK         0.0600 
    178 H178        3.5097  -12.3694  -41.2536 H         1 UNK         0.0600 
    179 H179        2.7946  -12.5703  -43.9087 H         1 UNK         0.3000 
    180 H180        1.3248  -10.2502  -46.2072 H         1 UNK         0.0600 
    181 H181        4.1268  -10.7018  -45.0579 H         1 UNK         0.0600 
    182 H182        3.2350   -9.1896  -45.0618 H         1 UNK         0.0600 
    183 H183        3.7470   -9.9036  -46.5828 H         1 UNK         0.0600 
    184 H184        1.4765  -12.1289  -47.2706 H         1 UNK         0.3000 
    185 H185        3.5340  -14.0485  -48.1954 H         1 UNK         0.0600 
    186 H186        4.1428  -15.7052  -46.4294 H         1 UNK         0.0600 
    187 H187        2.4318  -15.9881  -46.1061 H         1 UNK         0.0600 
    188 H188        3.1240  -16.4241  -47.6631 H         1 UNK         0.0600 
    189 H189        0.7294  -14.6445  -47.3509 H         1 UNK         0.3000 
    190 H190       -1.9324  -20.9711  -46.5151 H         1 UNK         0.3000 
    191 H191       -3.4686  -22.2290  -48.5190 H         1 UNK         0.0600 
    192 H192       -4.1622  -21.5372  -45.6152 H         1 UNK         0.0600 
    193 H193       -5.3361  -21.9827  -46.8382 H         1 UNK         0.0600 
    194 H194       -4.3944  -20.5057  -47.0219 H         1 UNK         0.0600 
    195 H195       -2.3574  -23.4817  -45.3558 H         1 UNK         0.3000 
    196 H196       -3.5844  -26.0439  -45.5357 H         1 UNK         0.0600 
    197 H197       -2.0042  -26.6286  -43.6964 H         1 UNK         0.0600 
    198 H198       -2.7774  -25.0780  -43.4017 H         1 UNK         0.0600 
    199 H199       -1.1110  -25.1379  -43.9692 H         1 UNK         0.0600 
    200 H200       -0.3075  -24.9053  -46.5006 H         1 UNK         0.3000 
    201 H201        0.6785  -27.4077  -47.4115 H         1 UNK         0.0600 
    202 H202        2.1476  -25.4844  -46.8930 H         1 UNK         0.0600 
    203 H203        1.4603  -24.5579  -48.2249 H         1 UNK         0.0600 
    204 H204        2.4053  -26.0056  -48.5509 H         1 UNK         0.0600 
    205 H205       -1.0705  -24.7980  -49.1322 H         1 UNK         0.3000 
    206 H206       -1.1210  -26.0820  -51.7048 H         1 UNK         0.0600 
    207 H207       -1.4296  -23.6311  -51.3838 H         1 UNK         0.0600 
    208 H208       -2.8245  -24.3214  -52.1990 H         1 UNK         0.0600 
    209 H209       -2.9224  -23.9130  -50.4911 H         1 UNK         0.0600 
    210 H210       -2.8985  -26.6032  -48.8055 H         1 UNK         0.3000 
    211 H211       -4.5921  -27.8165  -48.1111 H         1 UNK         0.0600 
    212 H212       -4.3689  -29.4178  -50.7159 H         1 UNK         0.0600 
    213 H213       -5.1595  -29.9364  -49.2336 H         1 UNK         0.0600 
    214 H214       -3.4186  -29.7074  -49.2589 H         1 UNK         0.0600 
    215 H215       -5.2003  -25.3725  -49.1913 H         1 UNK         0.3000 
    216 H216       -7.9967  -25.5182  -49.8361 H         1 UNK         0.0600 
    217 H217       -6.0594  -24.7385  -52.0984 H         1 UNK         0.0600 
    218 H218       -7.7978  -24.4235  -52.1186 H         1 UNK         0.0600 
    219 H219       -7.2055  -26.0700  -52.1130 H         1 UNK         0.0600 
    220 H220       -6.3558  -22.8694  -51.2855 H         1 UNK         0.3000 
    221 H221       -6.2470  -21.2267  -48.8487 H         1 UNK         0.0600 
    222 H222       -8.5472  -20.8467  -49.7782 H         1 UNK         0.0600 
    223 H223       -7.8593  -20.4922  -51.3624 H         1 UNK         0.0600 
    224 H224       -7.5420  -19.4229  -50.0013 H         1 UNK         0.0600 
    225 H225       -4.8911  -19.3770  -49.1802 H         1 UNK         0.3000 
    226 H226       -2.8096  -19.7100  -51.2518 H         1 UNK         0.0600 
    227 H227       -2.1906  -19.3958  -48.8388 H         1 UNK         0.0600 
    228 H228       -1.5612  -18.1278  -49.8759 H         1 UNK         0.0600 
    229 H229       -2.9590  -17.8155  -48.8452 H         1 UNK         0.0600 
    230 H230       -4.4357  -19.2091  -52.9567 H         1 UNK         0.3000 
    231 H231       -4.3803  -16.4104  -53.6887 H         1 UNK         0.0600 
    232 H232       -7.0719  -17.8385  -53.2440 H         1 UNK         0.0600 
    233 H233       -6.8733  -16.2873  -54.0525 H         1 UNK         0.0600 
    234 H234       -6.4914  -16.4380  -52.3445 H         1 UNK         0.0600 
    235 H235       -4.4808  -16.2139  -55.9023 H         1 UNK         0.3000 
    236 H236       -4.1123  -16.7188  -58.0194 H         1 UNK         0.0600 
    237 H237       -5.5104  -18.3723  -59.1765 H         1 UNK         0.0600 
    238 H238       -5.9477  -19.1451  -57.6608 H         1 UNK         0.0600 
    239 H239       -6.4913  -17.5041  -58.0075 H         1 UNK         0.0600 
    240 H240       -2.1332  -17.4208  -56.2544 H         1 UNK         0.3000 
    241 H241       -0.5609  -19.2798  -57.7291 H         1 UNK         0.0600 
    242 H242        2.2871  -18.0220  -55.8542 H         1 UNK         0.3800 
    243 H243        1.7337  -19.5477  -56.4775 H         1 UNK         0.3800 
    244 H244       -0.0472  -20.8138  -55.7484 H         1 UNK         0.0800 
    245 H245       -1.5839  -21.0391  -56.5069 H         1 UNK         0.0800 
    246 H246       -0.0776  -21.5752  -53.5541 H         1 UNK         0.0800 
    247 H247       -1.2670  -21.3098  -52.3119 H         1 UNK         0.0800 
@<TRIPOS>BOND
     1    1    2 1    
     2    1  127 1    
     3    1  128 1    
     4    1  129 1    
     5    2    3 2    
     6    2    4 am   BACKBONE|DICT|INTERRES
     7    4    5 1    
     8    4  130 1    
     9    5    6 1    
    10    5   65 1    
    11    5  131 1    
    12    6    7 1    
    13    6  132 1    
    14    6  133 1    
    15    7    8 1    
    16    8    9 1    
    17    8  134 1    
    18    8  135 1    
    19    9   10 ar   
    20    9   14 ar   
    21   10   11 ar   
    22   10  136 1    
    23   11   12 ar   
    24   11  126 1    
    25   12   13 ar   
    26   12  137 1    
    27   13   14 ar   
    28   13   15 1    
    29   14  138 1    
    30   15   16 1    
    31   15  139 1    
    32   15  140 1    
    33   16   17 1    
    34   17   18 1    
    35   17  141 1    
    36   17  142 1    
    37   18   19 1    
    38   18   67 1    
    39   18  143 1    
    40   19   20 am   BACKBONE|DICT|INTERRES
    41   19  144 1    
    42   20   21 2    
    43   20   22 1    
    44   22   23 1    
    45   22   24 1    
    46   22  145 1    
    47   23  146 1    
    48   23  147 1    
    49   23  148 1    
    50   24   25 am   BACKBONE|DICT|INTERRES
    51   24  149 1    
    52   25   26 2    
    53   25   27 1    
    54   27   28 1    
    55   27   29 1    
    56   27  150 1    
    57   28  151 1    
    58   28  152 1    
    59   28  153 1    
    60   29   30 am   BACKBONE|DICT|INTERRES
    61   29  154 1    
    62   30   31 2    
    63   30   32 1    
    64   32   33 1    
    65   32   34 1    
    66   32  155 1    
    67   33  156 1    
    68   33  157 1    
    69   33  158 1    
    70   34   35 am   BACKBONE|DICT|INTERRES
    71   34  159 1    
    72   35   36 2    
    73   35   37 1    
    74   37   38 1    
    75   37   39 1    
    76   37  160 1    
    77   38  161 1    
    78   38  162 1    
    79   38  163 1    
    80   39   40 am   BACKBONE|DICT|INTERRES
    81   39  164 1    
    82   40   41 2    
    83   40   42 1    
    84   42   43 1    
    85   42   44 1    
    86   42  165 1    
    87   43  166 1    
    88   43  167 1    
    89   43  168 1    
    90   44   45 am   BACKBONE|DICT|INTERRES
    91   44  169 1    
    92   45   46 2    
    93   45   47 1    
    94   47   48 1    
    95   47   49 1    
    96   47  170 1    
    97   48  171 1    
    98   48  172 1    
    99   48  173 1    
   100   49   50 am   BACKBONE|DICT|INTERRES
   101   49  174 1    
   102   50   51 2    
   103   50   52 1    
   104   52   53 1    
   105   52   54 1    
   106   52  175 1    
   107   53  176 1    
   108   53  177 1    
   109   53  178 1    
   110   54   55 am   BACKBONE|DICT|INTERRES
   111   54  179 1    
   112   55   56 2    
   113   55   57 1    
   114   57   58 1    
   115   57   59 1    
   116   57  180 1    
   117   58  181 1    
   118   58  182 1    
   119   58  183 1    
   120   59   60 am   BACKBONE|DICT|INTERRES
   121   59  184 1    
   122   60   61 2    
   123   60   62 1    
   124   62   63 1    
   125   62   64 1    
   126   62  185 1    
   127   63  186 1    
   128   63  187 1    
   129   63  188 1    
   130   64   65 am   BACKBONE|DICT|INTERRES
   131   64  189 1    
   132   65   66 2    
   133   67   68 2    
   134   67   69 am   BACKBONE|DICT|INTERRES
   135   69   70 1    
   136   69  190 1    
   137   70   71 1    
   138   70   72 1    
   139   70  191 1    
   140   71  192 1    
   141   71  193 1    
   142   71  194 1    
   143   72   73 2    
   144   72   74 am   BACKBONE|DICT|INTERRES
   145   74   75 1    
   146   74  195 1    
   147   75   76 1    
   148   75   77 1    
   149   75  196 1    
   150   76  197 1    
   151   76  198 1    
   152   76  199 1    
   153   77   78 2    
   154   77   79 am   BACKBONE|DICT|INTERRES
   155   79   80 1    
   156   79  200 1    
   157   80   81 1    
   158   80   82 1    
   159   80  201 1    
   160   81  202 1    
   161   81  203 1    
   162   81  204 1    
   163   82   83 2    
   164   82   84 am   BACKBONE|DICT|INTERRES
   165   84   85 1    
   166   84  205 1    
   167   85   86 1    
   168   85   87 1    
   169   85  206 1    
   170   86  207 1    
   171   86  208 1    
   172   86  209 1    
   173   87   88 2    
   174   87   89 am   BACKBONE|DICT|INTERRES
   175   89   90 1    
   176   89  210 1    
   177   90   91 1    
   178   90   92 1    
   179   90  211 1    
   180   91  212 1    
   181   91  213 1    
   182   91  214 1    
   183   92   93 2    
   184   92   94 am   BACKBONE|DICT|INTERRES
   185   94   95 1    
   186   94  215 1    
   187   95   96 1    
   188   95   97 1    
   189   95  216 1    
   190   96  217 1    
   191   96  218 1    
   192   96  219 1    
   193   97   98 2    
   194   97   99 am   BACKBONE|DICT|INTERRES
   195   99  100 1    
   196   99  220 1    
   197  100  101 1    
   198  100  102 1    
   199  100  221 1    
   200  101  222 1    
   201  101  223 1    
   202  101  224 1    
   203  102  103 2    
   204  102  104 am   BACKBONE|DICT|INTERRES
   205  104  105 1    
   206  104  225 1    
   207  105  106 1    
   208  105  107 1    
   209  105  226 1    
   210  106  227 1    
   211  106  228 1    
   212  106  229 1    
   213  107  108 2    
   214  107  109 am   BACKBONE|DICT|INTERRES
   215  109  110 1    
   216  109  230 1    
   217  110  111 1    
   218  110  112 1    
   219  110  231 1    
   220  111  232 1    
   221  111  233 1    
   222  111  234 1    
   223  112  113 2    
   224  112  114 am   BACKBONE|DICT|INTERRES
   225  114  115 1    
   226  114  235 1    
   227  115  116 1    
   228  115  117 1    
   229  115  236 1    
   230  116  237 1    
   231  116  238 1    
   232  116  239 1    
   233  117  118 2    
   234  117  119 am   BACKBONE|DICT|INTERRES
   235  119  120 1    
   236  119  240 1    
   237  120  121 1    
   238  120  124 1    
   239  120  241 1    
   240  121  122 am   BACKBONE|DICT|INTERRES
   241  121  123 2    
   242  122  242 1    
   243  122  243 1    
   244  124  125 1    
   245  124  244 1    
   246  124  245 1    
   247  125  126 1    
   248  126  246 1    
   249  126  247 1    
@<TRIPOS>SUBSTRUCTURE
     1 UNK         1 GROUP             0       ****    0 ROOT    
