@<TRIPOS>MOLECULE
3R540
247   249    1
SMALL
USER_CHARGES


@<TRIPOS>ATOM
      1 CA          1.4568  -13.0491  -54.1540 C.3       0 UNK        -0.1800 
      2 C           2.2548  -12.9154  -52.8644 C.2       0 UNK         0.5000 
      3 O           3.2993  -12.2634  -52.8538 O.2       0 UNK        -0.5000 
      4 N           1.7665  -13.5245  -51.7816 N.am      1 UNK        -0.5000 
      5 CA          2.4000  -13.5455  -50.4615 C.3       1 UNK         0.1400 
      6 C6          3.5186  -14.6186  -50.3182 C.3       23 UNK        -0.0398 
      7 S7          3.0927  -16.2779  -50.9562 S.3       23 UNK        -0.2404 
      8 C8          2.7878  -17.2085  -49.4210 C.3       23 UNK        -0.0205 
      9 C9          2.3166  -18.6222  -49.7182 C.ar      23 UNK        -0.0193 
     10 C10         1.1120  -18.8217  -50.3963 C.ar      23 UNK        -0.1150 
     11 C11         0.6616  -20.1120  -50.6990 C.ar      23 UNK        -0.0193 
     12 C12         1.4182  -21.2060  -50.2687 C.ar      23 UNK        -0.1150 
     13 C13         2.6093  -21.0246  -49.5595 C.ar      23 UNK        -0.0193 
     14 C14         3.0674  -19.7269  -49.3101 C.ar      23 UNK        -0.1150 
     15 C15         3.3867  -22.2405  -49.0678 C.3       23 UNK        -0.0205 
     16 S16         3.8512  -22.1731  -47.3005 S.3       23 UNK        -0.2404 
     17 C17         2.3302  -21.6057  -46.4612 C.3       23 UNK        -0.0398 
     18 CA          1.3871  -22.7505  -46.0230 C.3       11 UNK         0.1400 
     19 N           0.5780  -22.3619  -44.8660 N.am      11 UNK        -0.5000 
     20 C          -0.2203  -23.1833  -44.1709 C.2       10 UNK         0.5000 
     21 O          -0.3151  -24.3923  -44.3860 O.2       10 UNK        -0.5000 
     22 CA         -1.1009  -22.5279  -43.0903 C.3       10 UNK         0.1400 
     23 CB         -0.3028  -22.2819  -41.8014 C.3       10 UNK        -0.1800 
     24 N          -1.7021  -21.2730  -43.5498 N.am      10 UNK        -0.5000 
     25 C          -2.5950  -21.1949  -44.5475 C.2       9 UNK         0.5000 
     26 O          -3.0450  -22.1776  -45.1340 O.2       9 UNK        -0.5000 
     27 CA         -3.0360  -19.7922  -44.9976 C.3       9 UNK         0.1400 
     28 CB         -4.1712  -19.2689  -44.1064 C.3       9 UNK        -0.1800 
     29 N          -1.9389  -18.8257  -45.0300 N.am      9 UNK        -0.5000 
     30 C          -0.8745  -18.9070  -45.8419 C.2       8 UNK         0.5000 
     31 O          -0.7144  -19.8029  -46.6674 O.2       8 UNK        -0.5000 
     32 CA          0.2302  -17.8515  -45.6555 C.3       8 UNK         0.1400 
     33 CB         -0.1644  -16.5180  -46.3066 C.3       8 UNK        -0.1800 
     34 N           0.5595  -17.6404  -44.2454 N.am      8 UNK        -0.5000 
     35 C           1.0359  -18.5898  -43.4266 C.2       7 UNK         0.5000 
     36 O           1.2962  -19.7382  -43.7853 O.2       7 UNK        -0.5000 
     37 CA          1.1948  -18.2079  -41.9470 C.3       7 UNK         0.1400 
     38 CB          2.5170  -17.4635  -41.7060 C.3       7 UNK        -0.1800 
     39 N           0.0730  -17.3928  -41.4837 N.am      7 UNK        -0.5000 
     40 C          -1.1584  -17.8692  -41.2539 C.2       6 UNK         0.5000 
     41 O          -1.4650  -19.0561  -41.3723 O.2       6 UNK        -0.5000 
     42 CA         -2.2349  -16.8391  -40.8620 C.3       6 UNK         0.1400 
     43 CB         -2.1617  -16.5213  -39.3610 C.3       6 UNK        -0.1800 
     44 N          -2.1370  -15.5946  -41.6282 N.am      6 UNK        -0.5000 
     45 C          -2.3589  -15.5073  -42.9467 C.2       5 UNK         0.5000 
     46 O          -2.6927  -16.4626  -43.6442 O.2       5 UNK        -0.5000 
     47 CA         -2.1411  -14.1379  -43.6134 C.3       5 UNK         0.1400 
     48 CB         -3.4281  -13.3022  -43.5488 C.3       5 UNK        -0.1800 
     49 N          -1.0274  -13.3476  -43.0822 N.am      5 UNK        -0.5000 
     50 C           0.2413  -13.7556  -42.9331 C.2       4 UNK         0.5000 
     51 O           0.6145  -14.9207  -43.0791 O.2       4 UNK        -0.5000 
     52 CA          1.2534  -12.6345  -42.6213 C.3       4 UNK         0.1400 
     53 CB          2.6775  -13.1568  -42.3336 C.3       4 UNK        -0.1800 
     54 N           1.2434  -11.6294  -43.6944 N.am      4 UNK        -0.5000 
     55 C           1.5498  -11.8401  -44.9840 C.2       3 UNK         0.5000 
     56 O           2.0933  -12.8601  -45.4116 O.2       3 UNK        -0.5000 
     57 CA          1.1735  -10.7181  -45.9716 C.3       3 UNK         0.1400 
     58 CB          2.3999   -9.8589  -46.3149 C.3       3 UNK        -0.1800 
     59 N           0.6133  -11.2702  -47.2070 N.am      3 UNK        -0.5000 
     60 C          -0.5343  -11.9604  -47.2887 C.2       2 UNK         0.5000 
     61 O          -1.3232  -12.0775  -46.3501 O.2       2 UNK        -0.5000 
     62 CA         -0.8717  -12.6296  -48.6390 C.3       2 UNK         0.1400 
     63 CB         -1.9922  -11.8618  -49.3579 C.3       2 UNK        -0.1800 
     64 N           0.2673  -12.7613  -49.5528 N.am      2 UNK        -0.5000 
     65 C           1.3151  -13.5782  -49.3682 C.2       1 UNK         0.5000 
     66 O           1.4344  -14.3093  -48.3878 O.2       1 UNK        -0.5000 
     67 C           0.5023  -23.2389  -47.1888 C.2       11 UNK         0.5000 
     68 O           0.7726  -24.2970  -47.7556 O.2       11 UNK        -0.5000 
     69 N          -0.5662  -22.4887  -47.4926 N.am      12 UNK        -0.5000 
     70 CA         -1.5592  -22.8201  -48.5119 C.3       12 UNK         0.1400 
     71 CB         -2.5489  -21.6595  -48.6701 C.3       12 UNK        -0.1800 
     72 C          -2.3019  -24.1323  -48.2198 C.2       12 UNK         0.5000 
     73 O          -2.4685  -24.9382  -49.1322 O.2       12 UNK        -0.5000 
     74 N          -2.6887  -24.3512  -46.9558 N.am      13 UNK        -0.5000 
     75 CA         -3.3137  -25.5870  -46.4841 C.3       13 UNK         0.1400 
     76 CB         -3.7771  -25.4127  -45.0302 C.3       13 UNK        -0.1800 
     77 C          -2.3911  -26.8116  -46.6238 C.2       13 UNK         0.5000 
     78 O          -2.8557  -27.8700  -47.0479 O.2       13 UNK        -0.5000 
     79 N          -1.0995  -26.6380  -46.3079 N.am      14 UNK        -0.5000 
     80 CA         -0.0619  -27.6567  -46.4820 C.3       14 UNK         0.1400 
     81 CB          1.2175  -27.2156  -45.7547 C.3       14 UNK        -0.1800 
     82 C           0.2250  -27.9672  -47.9646 C.2       14 UNK         0.5000 
     83 O           0.4082  -29.1327  -48.3178 O.2       14 UNK        -0.5000 
     84 N           0.2354  -26.9248  -48.8061 N.am      15 UNK        -0.5000 
     85 CA          0.4235  -27.0127  -50.2562 C.3       15 UNK         0.1400 
     86 CB          0.8047  -25.6206  -50.7869 C.3       15 UNK        -0.1800 
     87 C          -0.8084  -27.5495  -51.0151 C.2       15 UNK         0.5000 
     88 O          -0.6685  -27.9452  -52.1730 O.2       15 UNK        -0.5000 
     89 N          -1.9820  -27.5270  -50.3658 N.am      16 UNK        -0.5000 
     90 CA         -3.3175  -27.7956  -50.9111 C.3       16 UNK         0.1400 
     91 CB         -3.4533  -29.2625  -51.3699 C.3       16 UNK        -0.1800 
     92 C          -3.7134  -26.7683  -51.9951 C.2       16 UNK         0.5000 
     93 O          -4.2564  -27.1343  -53.0396 O.2       16 UNK        -0.5000 
     94 N          -3.4116  -25.4957  -51.7188 N.am      17 UNK        -0.5000 
     95 CA         -3.6585  -24.3389  -52.5724 C.3       17 UNK         0.1400 
     96 CB         -2.3375  -23.5660  -52.7107 C.3       17 UNK        -0.1800 
     97 C          -4.7444  -23.4395  -51.9574 C.2       17 UNK         0.5000 
     98 O          -5.0266  -23.5295  -50.7599 O.2       17 UNK        -0.5000 
     99 N          -5.3294  -22.5718  -52.7913 N.am      18 UNK        -0.5000 
    100 CA        -6.3311  -21.5863  -52.3925 C.3       18 UNK         0.1400 
    101 CB        -7.1425  -21.1634  -53.6289 C.3       18 UNK        -0.1800 
    102 C         -5.6583  -20.3743  -51.7261 C.2       18 UNK         0.5000 
    103 O         -5.0813  -19.5394  -52.4263 O.2       18 UNK        -0.5000 
    104 N         -5.7618  -20.2890  -50.3924 N.am      19 UNK        -0.5000 
    105 CA        -5.1884  -19.2259  -49.5568 C.3       19 UNK         0.1400 
    106 CB        -5.5594  -19.4849  -48.0881 C.3       19 UNK        -0.1800 
    107 C         -5.6246  -17.8062  -49.9658 C.2       19 UNK         0.5000 
    108 O         -4.8190  -16.8771  -49.9166 O.2       19 UNK        -0.5000 
    109 N         -6.8860  -17.6764  -50.3976 N.am      20 UNK        -0.5000 
    110 CA        -7.4802  -16.4309  -50.8816 C.3       20 UNK         0.1400 
    111 CB        -9.0000  -16.6229  -51.0014 C.3       20 UNK        -0.1800 
    112 C         -6.8935  -15.9400  -52.2202 C.2       20 UNK         0.5000 
    113 O         -6.9809  -14.7449  -52.5052 O.2       20 UNK        -0.5000 
    114 N         -6.3215  -16.8531  -53.0183 N.am      21 UNK        -0.5000 
    115 CA        -5.6908  -16.5356  -54.2966 C.3       21 UNK         0.1400 
    116 CB        -5.8094  -17.7371  -55.2484 C.3       21 UNK        -0.1800 
    117 C         -4.2223  -16.1258  -54.1060 C.2       21 UNK         0.5000 
    118 O         -3.8010  -15.1169  -54.6735 O.2       21 UNK        -0.5000 
    119 N         -3.4700  -16.9143  -53.3267 N.am      22 UNK        -0.5000 
    120 CA        -2.0342  -16.6951  -53.0853 C.3       22 UNK         0.1400 
    121 C         -1.7013  -15.6717  -51.9616 C.2       22 UNK         0.5000 
    122 N         -2.5983  -15.3856  -51.0273 N.am      22 UNK        -0.7600 
    123 O         -0.6114  -15.1063  -51.9521 O.2       22 UNK        -0.5000 
    124 C124       -1.2705  -18.0300  -52.9116 C.3       23 UNK        -0.0398 
    125 S125       -1.8451  -19.0357  -51.5003 S.3       23 UNK        -0.2404 
    126 C126       -0.6098  -20.3759  -51.5064 C.3       23 UNK        -0.0205 
    127 H127        1.1633  -12.0647  -54.5183 H         1 UNK         0.0600 
    128 H128        0.5529  -13.6420  -54.0117 H         1 UNK         0.0600 
    129 H129        2.0621  -13.5322  -54.9209 H         1 UNK         0.0600 
    130 H130        0.9062  -14.0697  -51.8503 H         1 UNK         0.3000 
    131 H131        2.8835  -12.5779  -50.3111 H         1 UNK         0.0600 
    132 H132        4.3886  -14.2850  -50.8851 H         1 UNK         0.0800 
    133 H133        3.8664  -14.6919  -49.2865 H         1 UNK         0.0800 
    134 H134        3.6962  -17.2174  -48.8168 H         1 UNK         0.0800 
    135 H135        2.0207  -16.7122  -48.8285 H         1 UNK         0.0800 
    136 H136        0.5457  -17.9536  -50.6972 H         1 UNK         0.1150 
    137 H137        1.0757  -22.2081  -50.4856 H         1 UNK         0.1150 
    138 H138        3.9956  -19.5804  -48.7759 H         1 UNK         0.1150 
    139 H139        2.8147  -23.1541  -49.2352 H         1 UNK         0.0800 
    140 H140        4.2945  -22.3389  -49.6640 H         1 UNK         0.0800 
    141 H141        1.8040  -20.8506  -47.0456 H         1 UNK         0.0800 
    142 H142        2.6834  -21.0746  -45.5770 H         1 UNK         0.0800 
    143 H143        1.9993  -23.5954  -45.7002 H         1 UNK         0.0600 
    144 H144        0.6219  -21.3842  -44.5926 H         1 UNK         0.3000 
    145 H145       -1.9114  -23.2219  -42.8578 H         1 UNK         0.0600 
    146 H146        0.1291  -23.2109  -41.4275 H         1 UNK         0.0600 
    147 H147        0.5157  -21.5796  -41.9589 H         1 UNK         0.0600 
    148 H148       -0.9408  -21.8795  -41.0144 H         1 UNK         0.0600 
    149 H149       -1.4071  -20.4234  -43.0836 H         1 UNK         0.3000 
    150 H150       -3.4209  -19.8820  -46.0141 H         1 UNK         0.0600 
    151 H151       -4.9986  -19.9787  -44.0688 H         1 UNK         0.0600 
    152 H152       -4.5686  -18.3284  -44.4883 H         1 UNK         0.0600 
    153 H153       -3.8336  -19.0999  -43.0832 H         1 UNK         0.0600 
    154 H154       -2.0264  -18.0255  -44.4081 H         1 UNK         0.3000 
    155 H155        1.1310  -18.2174  -46.1530 H         1 UNK         0.0600 
    156 H156        0.6022  -15.7579  -46.1516 H         1 UNK         0.0600 
    157 H157       -0.2930  -16.6354  -47.3836 H         1 UNK         0.0600 
    158 H158       -1.1017  -16.1343  -45.9065 H         1 UNK         0.0600 
    159 H159        0.4109  -16.7086  -43.8687 H         1 UNK         0.3000 
    160 H160        1.2165  -19.1301  -41.3623 H         1 UNK         0.0600 
    161 H161        2.5721  -16.5348  -42.2744 H         1 UNK         0.0600 
    162 H162        3.3673  -18.0785  -42.0033 H         1 UNK         0.0600 
    163 H163        2.6454  -17.2192  -40.6515 H         1 UNK         0.0600 
    164 H164        0.2202  -16.3923  -41.4673 H         1 UNK         0.3000 
    165 H165       -3.2100  -17.2863  -41.0673 H         1 UNK         0.0600 
    166 H166       -2.9719  -15.8576  -39.0587 H         1 UNK         0.0600 
    167 H167       -2.2487  -17.4310  -38.7654 H         1 UNK         0.0600 
    168 H168       -1.2181  -16.0433  -39.0948 H         1 UNK         0.0600 
    169 H169       -1.8574  -14.7637  -41.1281 H         1 UNK         0.3000 
    170 H170       -1.9181  -14.3233  -44.6651 H         1 UNK         0.0600 
    171 H171       -4.2751  -13.8555  -43.9569 H         1 UNK         0.0600 
    172 H172       -3.6781  -13.0259  -42.5237 H         1 UNK         0.0600 
    173 H173       -3.3317  -12.3857  -44.1315 H         1 UNK         0.0600 
    174 H174       -1.2213  -12.3660  -42.9512 H         1 UNK         0.3000 
    175 H175        0.9016  -12.1343  -41.7177 H         1 UNK         0.0600 
    176 H176        3.0845  -13.7307  -43.1663 H         1 UNK         0.0600 
    177 H177        3.3635  -12.3361  -42.1249 H         1 UNK         0.0600 
    178 H178        2.6783  -13.8122  -41.4619 H         1 UNK         0.0600 
    179 H179        0.8268  -10.7425  -43.4472 H         1 UNK         0.3000 
    180 H180        0.4161  -10.0783  -45.5141 H         1 UNK         0.0600 
    181 H181        3.1827  -10.4485  -46.7940 H         1 UNK         0.0600 
    182 H182        2.8283   -9.4141  -45.4158 H         1 UNK         0.0600 
    183 H183        2.1350   -9.0421  -46.9865 H         1 UNK         0.0600 
    184 H184        1.2078  -11.2475  -48.0208 H         1 UNK         0.3000 
    185 H185       -1.2365  -13.6340  -48.4137 H         1 UNK         0.0600 
    186 H186       -2.8817  -11.7894  -48.7306 H         1 UNK         0.0600 
    187 H187       -1.6846  -10.8460  -49.6092 H         1 UNK         0.0600 
    188 H188       -2.2871  -12.3610  -50.2811 H         1 UNK         0.0600 
    189 H189        0.2415  -12.1990  -50.3914 H         1 UNK         0.3000 
    190 H190       -0.6888  -21.5944  -47.0214 H         1 UNK         0.3000 
    191 H191       -1.0256  -22.9477  -49.4538 H         1 UNK         0.0600 
    192 H192       -2.0339  -20.7225  -48.8801 H         1 UNK         0.0600 
    193 H193       -3.1398  -21.5174  -47.7672 H         1 UNK         0.0600 
    194 H194       -3.2406  -21.8438  -49.4924 H         1 UNK         0.0600 
    195 H195       -2.5723  -23.6086  -46.2707 H         1 UNK         0.3000 
    196 H196       -4.1964  -25.7661  -47.1015 H         1 UNK         0.0600 
    197 H197       -4.2586  -26.3194  -44.6618 H         1 UNK         0.0600 
    198 H198       -4.5003  -24.6018  -44.9426 H         1 UNK         0.0600 
    199 H199       -2.9430  -25.1892  -44.3648 H         1 UNK         0.0600 
    200 H200       -0.8037  -25.7431  -45.9324 H         1 UNK         0.3000 
    201 H201       -0.4146  -28.5778  -46.0133 H         1 UNK         0.0600 
    202 H202        1.0314  -27.0576  -44.6922 H         1 UNK         0.0600 
    203 H203        1.6170  -26.2876  -46.1639 H         1 UNK         0.0600 
    204 H204        1.9963  -27.9743  -45.8402 H         1 UNK         0.0600 
    205 H205        0.1541  -25.9886  -48.4176 H         1 UNK         0.3000 
    206 H206        1.2538  -27.6933  -50.4550 H         1 UNK         0.0600 
    207 H207        1.7111  -25.2502  -50.3080 H         1 UNK         0.0600 
    208 H208        0.9918  -25.6463  -51.8610 H         1 UNK         0.0600 
    209 H209        0.0113  -24.8940  -50.6098 H         1 UNK         0.0600 
    210 H210       -1.9754  -27.1201  -49.4392 H         1 UNK         0.3000 
    211 H211       -4.0134  -27.6462  -50.0843 H         1 UNK         0.0600 
    212 H212       -2.8355  -29.4773  -52.2420 H         1 UNK         0.0600 
    213 H213       -4.4852  -29.4911  -51.6386 H         1 UNK         0.0600 
    214 H214       -3.1648  -29.9511  -50.5757 H         1 UNK         0.0600 
    215 H215       -3.0454  -25.2821  -50.7915 H         1 UNK         0.3000 
    216 H216       -3.9912  -24.6546  -53.5633 H         1 UNK         0.0600 
    217 H217       -1.5825  -24.1689  -53.2157 H         1 UNK         0.0600 
    218 H218       -1.9403  -23.2906  -51.7346 H         1 UNK         0.0600 
    219 H219       -2.4653  -22.6503  -53.2894 H         1 UNK         0.0600 
    220 H220       -5.0186  -22.5256  -53.7508 H         1 UNK         0.3000 
    221 H221       -7.0234  -22.0436  -51.6821 H         1 UNK         0.0600 
    222 H222       -6.5053  -20.7532  -54.4131 H         1 UNK         0.0600 
    223 H223       -7.6857  -22.0095  -54.0501 H         1 UNK         0.0600 
    224 H224       -7.8784  -20.4004  -53.3719 H         1 UNK         0.0600 
    225 H225       -6.2274  -21.0384  -49.9006 H         1 UNK         0.3000 
    226 H226       -4.1033  -19.2792  -49.6508 H         1 UNK         0.0600 
    227 H227       -5.2276  -20.4686  -47.7583 H         1 UNK         0.0600 
    228 H228       -5.0947  -18.7461  -47.4338 H         1 UNK         0.0600 
    229 H229       -6.6371  -19.4297  -47.9298 H         1 UNK         0.0600 
    230 H230       -7.4748  -18.4959  -50.4098 H         1 UNK         0.3000 
    231 H231       -7.2907  -15.6546  -50.1373 H         1 UNK         0.0600 
    232 H232       -9.4856  -15.7034  -51.3313 H         1 UNK         0.0600 
    233 H233       -9.4409  -16.8946  -50.0421 H         1 UNK         0.0600 
    234 H234       -9.2513  -17.4031  -51.7211 H         1 UNK         0.0600 
    235 H235       -6.2227  -17.8066  -52.6913 H         1 UNK         0.3000 
    236 H236       -6.2173  -15.6989  -54.7612 H         1 UNK         0.0600 
    237 H237       -6.8497  -18.0341  -55.3820 H         1 UNK         0.0600 
    238 H238       -5.4122  -17.4902  -56.2336 H         1 UNK         0.0600 
    239 H239       -5.2576  -18.6038  -54.8847 H         1 UNK         0.0600 
    240 H240       -3.8820  -17.7310  -52.8900 H         1 UNK         0.3000 
    241 H241       -1.6219  -16.2478  -53.9922 H         1 UNK         0.0600 
    242 H242       -3.4637  -15.9092  -50.9442 H         1 UNK         0.3800 
    243 H243       -2.3608  -14.7154  -50.3181 H         1 UNK         0.3800 
    244 H244       -1.3889  -18.6293  -53.8153 H         1 UNK         0.0800 
    245 H245       -0.1992  -17.8451  -52.8243 H         1 UNK         0.0800 
    246 H246       -1.1014  -21.2605  -51.1089 H         1 UNK         0.0800 
    247 H247       -0.3365  -20.6177  -52.5341 H         1 UNK         0.0800 
@<TRIPOS>BOND
     1    1    2 1    
     2    1  127 1    
     3    1  128 1    
     4    1  129 1    
     5    2    3 2    
     6    2    4 am   BACKBONE|DICT|INTERRES
     7    4    5 1    
     8    4  130 1    
     9    5    6 1    
    10    5   65 1    
    11    5  131 1    
    12    6    7 1    
    13    6  132 1    
    14    6  133 1    
    15    7    8 1    
    16    8    9 1    
    17    8  134 1    
    18    8  135 1    
    19    9   10 ar   
    20    9   14 ar   
    21   10   11 ar   
    22   10  136 1    
    23   11   12 ar   
    24   11  126 1    
    25   12   13 ar   
    26   12  137 1    
    27   13   14 ar   
    28   13   15 1    
    29   14  138 1    
    30   15   16 1    
    31   15  139 1    
    32   15  140 1    
    33   16   17 1    
    34   17   18 1    
    35   17  141 1    
    36   17  142 1    
    37   18   19 1    
    38   18   67 1    
    39   18  143 1    
    40   19   20 am   BACKBONE|DICT|INTERRES
    41   19  144 1    
    42   20   21 2    
    43   20   22 1    
    44   22   23 1    
    45   22   24 1    
    46   22  145 1    
    47   23  146 1    
    48   23  147 1    
    49   23  148 1    
    50   24   25 am   BACKBONE|DICT|INTERRES
    51   24  149 1    
    52   25   26 2    
    53   25   27 1    
    54   27   28 1    
    55   27   29 1    
    56   27  150 1    
    57   28  151 1    
    58   28  152 1    
    59   28  153 1    
    60   29   30 am   BACKBONE|DICT|INTERRES
    61   29  154 1    
    62   30   31 2    
    63   30   32 1    
    64   32   33 1    
    65   32   34 1    
    66   32  155 1    
    67   33  156 1    
    68   33  157 1    
    69   33  158 1    
    70   34   35 am   BACKBONE|DICT|INTERRES
    71   34  159 1    
    72   35   36 2    
    73   35   37 1    
    74   37   38 1    
    75   37   39 1    
    76   37  160 1    
    77   38  161 1    
    78   38  162 1    
    79   38  163 1    
    80   39   40 am   BACKBONE|DICT|INTERRES
    81   39  164 1    
    82   40   41 2    
    83   40   42 1    
    84   42   43 1    
    85   42   44 1    
    86   42  165 1    
    87   43  166 1    
    88   43  167 1    
    89   43  168 1    
    90   44   45 am   BACKBONE|DICT|INTERRES
    91   44  169 1    
    92   45   46 2    
    93   45   47 1    
    94   47   48 1    
    95   47   49 1    
    96   47  170 1    
    97   48  171 1    
    98   48  172 1    
    99   48  173 1    
   100   49   50 am   BACKBONE|DICT|INTERRES
   101   49  174 1    
   102   50   51 2    
   103   50   52 1    
   104   52   53 1    
   105   52   54 1    
   106   52  175 1    
   107   53  176 1    
   108   53  177 1    
   109   53  178 1    
   110   54   55 am   BACKBONE|DICT|INTERRES
   111   54  179 1    
   112   55   56 2    
   113   55   57 1    
   114   57   58 1    
   115   57   59 1    
   116   57  180 1    
   117   58  181 1    
   118   58  182 1    
   119   58  183 1    
   120   59   60 am   BACKBONE|DICT|INTERRES
   121   59  184 1    
   122   60   61 2    
   123   60   62 1    
   124   62   63 1    
   125   62   64 1    
   126   62  185 1    
   127   63  186 1    
   128   63  187 1    
   129   63  188 1    
   130   64   65 am   BACKBONE|DICT|INTERRES
   131   64  189 1    
   132   65   66 2    
   133   67   68 2    
   134   67   69 am   BACKBONE|DICT|INTERRES
   135   69   70 1    
   136   69  190 1    
   137   70   71 1    
   138   70   72 1    
   139   70  191 1    
   140   71  192 1    
   141   71  193 1    
   142   71  194 1    
   143   72   73 2    
   144   72   74 am   BACKBONE|DICT|INTERRES
   145   74   75 1    
   146   74  195 1    
   147   75   76 1    
   148   75   77 1    
   149   75  196 1    
   150   76  197 1    
   151   76  198 1    
   152   76  199 1    
   153   77   78 2    
   154   77   79 am   BACKBONE|DICT|INTERRES
   155   79   80 1    
   156   79  200 1    
   157   80   81 1    
   158   80   82 1    
   159   80  201 1    
   160   81  202 1    
   161   81  203 1    
   162   81  204 1    
   163   82   83 2    
   164   82   84 am   BACKBONE|DICT|INTERRES
   165   84   85 1    
   166   84  205 1    
   167   85   86 1    
   168   85   87 1    
   169   85  206 1    
   170   86  207 1    
   171   86  208 1    
   172   86  209 1    
   173   87   88 2    
   174   87   89 am   BACKBONE|DICT|INTERRES
   175   89   90 1    
   176   89  210 1    
   177   90   91 1    
   178   90   92 1    
   179   90  211 1    
   180   91  212 1    
   181   91  213 1    
   182   91  214 1    
   183   92   93 2    
   184   92   94 am   BACKBONE|DICT|INTERRES
   185   94   95 1    
   186   94  215 1    
   187   95   96 1    
   188   95   97 1    
   189   95  216 1    
   190   96  217 1    
   191   96  218 1    
   192   96  219 1    
   193   97   98 2    
   194   97   99 am   BACKBONE|DICT|INTERRES
   195   99  100 1    
   196   99  220 1    
   197  100  101 1    
   198  100  102 1    
   199  100  221 1    
   200  101  222 1    
   201  101  223 1    
   202  101  224 1    
   203  102  103 2    
   204  102  104 am   BACKBONE|DICT|INTERRES
   205  104  105 1    
   206  104  225 1    
   207  105  106 1    
   208  105  107 1    
   209  105  226 1    
   210  106  227 1    
   211  106  228 1    
   212  106  229 1    
   213  107  108 2    
   214  107  109 am   BACKBONE|DICT|INTERRES
   215  109  110 1    
   216  109  230 1    
   217  110  111 1    
   218  110  112 1    
   219  110  231 1    
   220  111  232 1    
   221  111  233 1    
   222  111  234 1    
   223  112  113 2    
   224  112  114 am   BACKBONE|DICT|INTERRES
   225  114  115 1    
   226  114  235 1    
   227  115  116 1    
   228  115  117 1    
   229  115  236 1    
   230  116  237 1    
   231  116  238 1    
   232  116  239 1    
   233  117  118 2    
   234  117  119 am   BACKBONE|DICT|INTERRES
   235  119  120 1    
   236  119  240 1    
   237  120  121 1    
   238  120  124 1    
   239  120  241 1    
   240  121  122 am   BACKBONE|DICT|INTERRES
   241  121  123 2    
   242  122  242 1    
   243  122  243 1    
   244  124  125 1    
   245  124  244 1    
   246  124  245 1    
   247  125  126 1    
   248  126  246 1    
   249  126  247 1    
@<TRIPOS>SUBSTRUCTURE
     1 UNK         1 GROUP             0       ****    0 ROOT    
