@<TRIPOS>MOLECULE
3R540
247   249    1
SMALL
USER_CHARGES


@<TRIPOS>ATOM
      1 CA          4.4609  -12.8704  -48.9853 C.3       0 UNK        -0.1800 
      2 C           3.5028  -13.8325  -48.2990 C.2       0 UNK         0.5000 
      3 O           3.6032  -14.0427  -47.0903 O.2       0 UNK        -0.5000 
      4 N           2.5537  -14.3975  -49.0569 N.am      1 UNK        -0.5000 
      5 CA          1.5592  -15.3820  -48.6028 C.3       1 UNK         0.1400 
      6 C6          1.0096  -16.2486  -49.7617 C.3       23 UNK        -0.0398 
      7 S7          0.3600  -15.2967  -51.1824 S.3       23 UNK        -0.2404 
      8 C8          1.6058  -15.6203  -52.4755 C.3       23 UNK        -0.0205 
      9 C9          1.5191  -17.0422  -53.0129 C.ar      23 UNK        -0.0193 
     10 C10         0.6472  -17.3526  -54.0608 C.ar      23 UNK        -0.1150 
     11 C11         0.5564  -18.6594  -54.5532 C.ar      23 UNK        -0.0193 
     12 C12         1.3308  -19.6657  -53.9581 C.ar      23 UNK        -0.1150 
     13 C13         2.2071  -19.3670  -52.9103 C.ar      23 UNK        -0.0193 
     14 C14         2.3153  -18.0496  -52.4639 C.ar      23 UNK        -0.1150 
     15 C15         3.0431  -20.4557  -52.2504 C.3       23 UNK        -0.0205 
     16 S16         2.0733  -21.5272  -51.1366 S.3       23 UNK        -0.2404 
     17 C17         1.2472  -20.3390  -50.0206 C.3       23 UNK        -0.0398 
     18 CA          0.3509  -21.0684  -48.9904 C.3       11 UNK         0.1400 
     19 N           1.1165  -21.8576  -48.0214 N.am      11 UNK        -0.5000 
     20 C           0.5796  -22.8168  -47.2541 C.2       10 UNK         0.5000 
     21 O          -0.6061  -23.1440  -47.2996 O.2       10 UNK        -0.5000 
     22 CA          1.5132  -23.4787  -46.2244 C.3       10 UNK         0.1400 
     23 CB          2.3805  -24.5565  -46.8921 C.3       10 UNK        -0.1800 
     24 N           2.3743  -22.5226  -45.5196 N.am      10 UNK        -0.5000 
     25 C           1.9234  -21.5144  -44.7617 C.2       9 UNK         0.5000 
     26 O           0.7289  -21.2400  -44.6347 O.2       9 UNK        -0.5000 
     27 CA          2.9807  -20.6324  -44.0754 C.3       9 UNK         0.1400 
     28 CB          3.3407  -19.4321  -44.9648 C.3       9 UNK        -0.1800 
     29 N           2.4974  -20.1443  -42.7833 N.am      9 UNK        -0.5000 
     30 C           2.4147  -20.8988  -41.6792 C.2       8 UNK         0.5000 
     31 O           2.8152  -22.0624  -41.6176 O.2       8 UNK        -0.5000 
     32 CA          1.7992  -20.2494  -40.4242 C.3       8 UNK         0.1400 
     33 CB          2.9010  -19.6676  -39.5245 C.3       8 UNK        -0.1800 
     34 N           0.8183  -19.1982  -40.7020 N.am      8 UNK        -0.5000 
     35 C          -0.3973  -19.3999  -41.2298 C.2       7 UNK         0.5000 
     36 O          -0.8008  -20.4929  -41.6261 O.2       7 UNK        -0.5000 
     37 CA         -1.3198  -18.1636  -41.2521 C.3       7 UNK         0.1400 
     38 CB         -2.7314  -18.4607  -41.7988 C.3       7 UNK        -0.1800 
     39 N          -1.3864  -17.5168  -39.9347 N.am      7 UNK        -0.5000 
     40 C          -1.8162  -18.0581  -38.7805 C.2       6 UNK         0.5000 
     41 O          -2.2966  -19.1886  -38.6919 O.2       6 UNK        -0.5000 
     42 CA         -1.6655  -17.2217  -37.4903 C.3       6 UNK         0.1400 
     43 CB         -0.5573  -17.8122  -36.6027 C.3       6 UNK        -0.1800 
     44 N          -1.3592  -15.8115  -37.7289 N.am      6 UNK        -0.5000 
     45 C          -2.2266  -14.8928  -38.1737 C.2       5 UNK         0.5000 
     46 O          -3.4256  -15.1137  -38.3467 O.2       5 UNK        -0.5000 
     47 CA         -1.6522  -13.4981  -38.5082 C.3       5 UNK         0.1400 
     48 CB         -1.9480  -12.5103  -37.3690 C.3       5 UNK        -0.1800 
     49 N          -0.2099  -13.4753  -38.7946 N.am      5 UNK        -0.5000 
     50 C           0.3956  -14.1632  -39.7720 C.2       4 UNK         0.5000 
     51 O          -0.1918  -14.9614  -40.5066 O.2       4 UNK        -0.5000 
     52 CA          1.9196  -13.9887  -39.9011 C.3       4 UNK         0.1400 
     53 CB          2.6446  -14.8637  -38.8654 C.3       4 UNK        -0.1800 
     54 N           2.3542  -14.3910  -41.2365 N.am      4 UNK        -0.5000 
     55 C           2.2274  -13.6387  -42.3357 C.2       3 UNK         0.5000 
     56 O           1.9750  -12.4311  -42.3063 O.2       3 UNK        -0.5000 
     57 CA          2.4363  -14.3563  -43.6898 C.3       3 UNK         0.1400 
     58 CB          2.1755  -15.8787  -43.6323 C.3       3 UNK        -0.1800 
     59 N           1.6692  -13.7687  -44.7930 N.am      3 UNK        -0.5000 
     60 C           0.3471  -13.5247  -44.8522 C.2       2 UNK         0.5000 
     61 O          -0.4489  -13.7563  -43.9423 O.2       2 UNK        -0.5000 
     62 CA         -0.1821  -12.9580  -46.1877 C.3       2 UNK         0.1400 
     63 CB         -0.0586  -11.4270  -46.2181 C.3       2 UNK        -0.1800 
     64 N           0.5353  -13.5240  -47.3303 N.am      2 UNK        -0.5000 
     65 C           0.4423  -14.8081  -47.7010 C.2       1 UNK         0.5000 
     66 O          -0.4561  -15.5522  -47.3102 O.2       1 UNK        -0.5000 
     67 C          -0.6227  -20.0954  -48.2947 C.2       11 UNK         0.5000 
     68 O          -1.7082  -19.8697  -48.8251 O.2       11 UNK        -0.5000 
     69 N          -0.2606  -19.5706  -47.1138 N.am      12 UNK        -0.5000 
     70 CA         -1.1355  -18.7171  -46.3036 C.3       12 UNK         0.1400 
     71 CB         -0.3342  -18.0263  -45.1900 C.3       12 UNK        -0.1800 
     72 C          -2.3216  -19.5025  -45.7221 C.2       12 UNK         0.5000 
     73 O          -3.4596  -19.0438  -45.8222 O.2       12 UNK        -0.5000 
     74 N          -2.0418  -20.6976  -45.1830 N.am      13 UNK        -0.5000 
     75 CA         -3.0359  -21.6454  -44.6721 C.3       13 UNK         0.1400 
     76 CB         -2.3127  -22.8438  -44.0396 C.3       13 UNK        -0.1800 
     77 C          -4.0259  -22.1211  -45.7542 C.2       13 UNK         0.5000 
     78 O          -5.2062  -22.3127  -45.4620 O.2       13 UNK        -0.5000 
     79 N          -3.5318  -22.2566  -46.9912 N.am      14 UNK        -0.5000 
     80 CA         -4.3004  -22.5926  -48.1897 C.3       14 UNK         0.1400 
     81 CB         -3.3852  -23.3837  -49.1376 C.3       14 UNK        -0.1800 
     82 C          -4.9432  -21.3664  -48.8818 C.2       14 UNK         0.5000 
     83 O          -5.4330  -21.5076  -50.0045 O.2       14 UNK        -0.5000 
     84 N          -4.9429  -20.2022  -48.2103 N.am      15 UNK        -0.5000 
     85 CA         -5.5670  -18.9322  -48.5995 C.3       15 UNK         0.1400 
     86 CB         -7.1014  -19.0819  -48.6753 C.3       15 UNK        -0.1800 
     87 C          -4.9571  -18.3459  -49.8861 C.2       15 UNK         0.5000 
     88 O          -5.6379  -18.2465  -50.9062 O.2       15 UNK        -0.5000 
     89 N          -3.6577  -18.0207  -49.8240 N.am      16 UNK        -0.5000 
     90 CA         -2.7944  -17.6191  -50.9468 C.3       16 UNK         0.1400 
     91 CB         -3.2248  -16.2563  -51.5273 C.3       16 UNK        -0.1800 
     92 C          -2.6912  -18.7323  -52.0112 C.2       16 UNK         0.5000 
     93 O          -2.6702  -18.4580  -53.2107 O.2       16 UNK        -0.5000 
     94 N          -2.6964  -19.9785  -51.5178 N.am      17 UNK        -0.5000 
     95 CA         -2.7847  -21.2513  -52.2313 C.3       17 UNK         0.1400 
     96 CB         -1.4466  -21.6045  -52.8969 C.3       17 UNK        -0.1800 
     97 C          -3.9890  -21.3862  -53.1836 C.2       17 UNK         0.5000 
     98 O          -3.9505  -22.2347  -54.0750 O.2       17 UNK        -0.5000 
     99 N          -5.0596  -20.6066  -52.9658 N.am      18 UNK        -0.5000 
    100 CA        -6.3016  -20.6657  -53.7398 C.3       18 UNK         0.1400 
    101 CB        -7.2281  -19.5118  -53.3350 C.3       18 UNK        -0.1800 
    102 C         -7.0287  -22.0132  -53.5961 C.2       18 UNK         0.5000 
    103 O         -7.6374  -22.4739  -54.5617 O.2       18 UNK        -0.5000 
    104 N         -6.8906  -22.6573  -52.4271 N.am      19 UNK        -0.5000 
    105 CA        -7.3897  -24.0086  -52.1563 C.3       19 UNK         0.1400 
    106 CB        -7.2385  -24.3046  -50.6564 C.3       19 UNK        -0.1800 
    107 C         -6.6976  -25.1044  -52.9971 C.2       19 UNK         0.5000 
    108 O         -7.2743  -26.1770  -53.1798 O.2       19 UNK        -0.5000 
    109 N         -5.4901  -24.8132  -53.4992 N.am      20 UNK        -0.5000 
    110 CA        -4.6942  -25.6766  -54.3721 C.3       20 UNK         0.1400 
    111 CB        -3.2889  -25.8059  -53.7583 C.3       20 UNK        -0.1800 
    112 C         -4.6069  -25.1231  -55.8099 C.2       20 UNK         0.5000 
    113 O         -3.8731  -25.6872  -56.6230 O.2       20 UNK        -0.5000 
    114 N         -5.3027  -24.0089  -56.0930 N.am      21 UNK        -0.5000 
    115 CA        -5.2707  -23.2226  -57.3347 C.3       21 UNK         0.1400 
    116 CB        -5.9912  -23.9852  -58.4651 C.3       21 UNK        -0.1800 
    117 C         -3.8504  -22.7557  -57.7387 C.2       21 UNK         0.5000 
    118 O         -3.5499  -22.6494  -58.9291 O.2       21 UNK        -0.5000 
    119 N         -2.9949  -22.5123  -56.7361 N.am      22 UNK        -0.5000 
    120 CA        -1.5506  -22.2537  -56.8613 C.3       22 UNK         0.1400 
    121 C         -0.7153  -23.4614  -57.4012 C.2       22 UNK         0.5000 
    122 N         -1.2364  -24.6834  -57.4169 N.am      22 UNK        -0.7600 
    123 O          0.4382  -23.3055  -57.7913 O.2       22 UNK        -0.5000 
    124 C124       -1.2450  -20.9049  -57.5789 C.3       23 UNK        -0.0398 
    125 S125        0.2696  -20.0953  -56.9500 S.3       23 UNK        -0.2404 
    126 C126       -0.4182  -18.9709  -55.6894 C.3       23 UNK        -0.0205 
    127 H127        4.2440  -12.7719  -50.0492 H         1 UNK         0.0600 
    128 H128        5.4863  -13.2241  -48.8785 H         1 UNK         0.0600 
    129 H129        4.3908  -11.8825  -48.5302 H         1 UNK         0.0600 
    130 H130        2.4896  -14.1491  -50.0340 H         1 UNK         0.3000 
    131 H131        2.0932  -16.0725  -47.9458 H         1 UNK         0.0600 
    132 H132        0.2313  -16.9279  -49.4110 H         1 UNK         0.0800 
    133 H133        1.8109  -16.9006  -50.0960 H         1 UNK         0.0800 
    134 H134        2.6048  -15.4195  -52.0857 H         1 UNK         0.0800 
    135 H135        1.4531  -14.9133  -53.2923 H         1 UNK         0.0800 
    136 H136        0.0310  -16.5738  -54.4878 H         1 UNK         0.1150 
    137 H137        1.2489  -20.6863  -54.3042 H         1 UNK         0.1150 
    138 H138        3.0136  -17.8150  -51.6740 H         1 UNK         0.1150 
    139 H139        3.5001  -21.0751  -53.0234 H         1 UNK         0.0800 
    140 H140        3.8687  -20.0181  -51.6871 H         1 UNK         0.0800 
    141 H141        0.6432  -19.6696  -50.6366 H         1 UNK         0.0800 
    142 H142        1.9968  -19.7202  -49.5249 H         1 UNK         0.0800 
    143 H143       -0.2774  -21.7647  -49.5508 H         1 UNK         0.0600 
    144 H144        2.1019  -21.6564  -47.9378 H         1 UNK         0.3000 
    145 H145        0.8820  -23.9654  -45.4778 H         1 UNK         0.0600 
    146 H146        2.9730  -25.0986  -46.1549 H         1 UNK         0.0600 
    147 H147        1.7611  -25.2893  -47.4111 H         1 UNK         0.0600 
    148 H148        3.0654  -24.1281  -47.6249 H         1 UNK         0.0600 
    149 H149        3.3697  -22.6780  -45.5894 H         1 UNK         0.3000 
    150 H150        3.8836  -21.2246  -43.9113 H         1 UNK         0.0600 
    151 H151        3.7432  -19.7617  -45.9235 H         1 UNK         0.0600 
    152 H152        4.0992  -18.8064  -44.4940 H         1 UNK         0.0600 
    153 H153        2.4742  -18.8059  -45.1721 H         1 UNK         0.0600 
    154 H154        2.1056  -19.2161  -42.7607 H         1 UNK         0.3000 
    155 H155        1.2905  -21.0397  -39.8679 H         1 UNK         0.0600 
    156 H156        3.4306  -18.8493  -40.0141 H         1 UNK         0.0600 
    157 H157        3.6390  -20.4289  -39.2679 H         1 UNK         0.0600 
    158 H158        2.4885  -19.2896  -38.5888 H         1 UNK         0.0600 
    159 H159        1.0508  -18.2712  -40.3793 H         1 UNK         0.3000 
    160 H160       -0.8542  -17.4430  -41.9263 H         1 UNK         0.0600 
    161 H161       -3.2546  -19.2060  -41.1993 H         1 UNK         0.0600 
    162 H162       -2.6797  -18.8429  -42.8180 H         1 UNK         0.0600 
    163 H163       -3.3422  -17.5583  -41.8214 H         1 UNK         0.0600 
    164 H164       -1.0192  -16.5689  -39.9144 H         1 UNK         0.3000 
    165 H165       -2.6107  -17.2841  -36.9470 H         1 UNK         0.0600 
    166 H166        0.4152  -17.7757  -37.0955 H         1 UNK         0.0600 
    167 H167       -0.4772  -17.2724  -35.6590 H         1 UNK         0.0600 
    168 H168       -0.7628  -18.8558  -36.3607 H         1 UNK         0.0600 
    169 H169       -0.3976  -15.5320  -37.6064 H         1 UNK         0.3000 
    170 H170       -2.1675  -13.1485  -39.4052 H         1 UNK         0.0600 
    171 H171       -1.4309  -12.7903  -36.4504 H         1 UNK         0.0600 
    172 H172       -1.6414  -11.4981  -37.6335 H         1 UNK         0.0600 
    173 H173       -3.0156  -12.4761  -37.1472 H         1 UNK         0.0600 
    174 H174        0.3462  -12.8613  -38.2166 H         1 UNK         0.3000 
    175 H175        2.1772  -12.9413  -39.7300 H         1 UNK         0.0600 
    176 H176        2.3961  -15.9197  -38.9813 H         1 UNK         0.0600 
    177 H177        3.7265  -14.7633  -38.9546 H         1 UNK         0.0600 
    178 H178        2.3772  -14.5733  -37.8487 H         1 UNK         0.0600 
    179 H179        2.5464  -15.3733  -41.3586 H         1 UNK         0.3000 
    180 H180        3.4863  -14.2110  -43.9469 H         1 UNK         0.0600 
    181 H181        2.3263  -16.3292  -44.6129 H         1 UNK         0.0600 
    182 H182        1.1562  -16.1011  -43.3134 H         1 UNK         0.0600 
    183 H183        2.8609  -16.3830  -42.9507 H         1 UNK         0.0600 
    184 H184        2.2234  -13.5660  -45.6172 H         1 UNK         0.3000 
    185 H185       -1.2391  -13.2195  -46.2734 H         1 UNK         0.0600 
    186 H186       -0.5992  -10.9771  -45.3843 H         1 UNK         0.0600 
    187 H187        0.9808  -11.1039  -46.1476 H         1 UNK         0.0600 
    188 H188       -0.4774  -11.0157  -47.1367 H         1 UNK         0.0600 
    189 H189        1.2922  -12.9766  -47.7118 H         1 UNK         0.3000 
    190 H190        0.6091  -19.8611  -46.6938 H         1 UNK         0.3000 
    191 H191       -1.5425  -17.9406  -46.9542 H         1 UNK         0.0600 
    192 H192       -0.9599  -17.3149  -44.6496 H         1 UNK         0.0600 
    193 H193        0.5011  -17.4657  -45.6061 H         1 UNK         0.0600 
    194 H194        0.0586  -18.7338  -44.4609 H         1 UNK         0.0600 
    195 H195       -1.0662  -20.9745  -45.0945 H         1 UNK         0.3000 
    196 H196       -3.6086  -21.1384  -43.8931 H         1 UNK         0.0600 
    197 H197       -1.7097  -23.3820  -44.7715 H         1 UNK         0.0600 
    198 H198       -1.6506  -22.5249  -43.2347 H         1 UNK         0.0600 
    199 H199       -3.0254  -23.5514  -43.6145 H         1 UNK         0.0600 
    200 H200       -2.5346  -22.1318  -47.1207 H         1 UNK         0.3000 
    201 H201       -5.1253  -23.2500  -47.9081 H         1 UNK         0.0600 
    202 H202       -2.4983  -22.8096  -49.4037 H         1 UNK         0.0600 
    203 H203       -3.8981  -23.6640  -50.0577 H         1 UNK         0.0600 
    204 H204       -3.0460  -24.3071  -48.6679 H         1 UNK         0.0600 
    205 H205       -4.4684  -20.1784  -47.3155 H         1 UNK         0.3000 
    206 H206       -5.3487  -18.2225  -47.8001 H         1 UNK         0.0600 
    207 H207       -7.5072  -19.4527  -47.7342 H         1 UNK         0.0600 
    208 H208       -7.5755  -18.1210  -48.8781 H         1 UNK         0.0600 
    209 H209       -7.4080  -19.7682  -49.4654 H         1 UNK         0.0600 
    210 H210       -3.1624  -18.2430  -48.9697 H         1 UNK         0.3000 
    211 H211       -1.7917  -17.5018  -50.5367 H         1 UNK         0.0600 
    212 H212       -2.5141  -15.9137  -52.2802 H         1 UNK         0.0600 
    213 H213       -3.2654  -15.4934  -50.7501 H         1 UNK         0.0600 
    214 H214       -4.2035  -16.3057  -52.0046 H         1 UNK         0.0600 
    215 H215       -2.6760  -20.0511  -50.5051 H         1 UNK         0.3000 
    216 H216       -2.9592  -22.0019  -51.4665 H         1 UNK         0.0600 
    217 H217       -1.2186  -20.9253  -53.7115 H         1 UNK         0.0600 
    218 H218       -1.4569  -22.6165  -53.3026 H         1 UNK         0.0600 
    219 H219       -0.6297  -21.5539  -52.1805 H         1 UNK         0.0600 
    220 H220       -5.0411  -19.9497  -52.1941 H         1 UNK         0.3000 
    221 H221       -6.0408  -20.5401  -54.7927 H         1 UNK         0.0600 
    222 H222       -6.7396  -18.5469  -53.4721 H         1 UNK         0.0600 
    223 H223       -7.5325  -19.5899  -52.2904 H         1 UNK         0.0600 
    224 H224       -8.1345  -19.5070  -53.9415 H         1 UNK         0.0600 
    225 H225       -6.3743  -22.2032  -51.6783 H         1 UNK         0.3000 
    226 H226       -8.4530  -24.0284  -52.4036 H         1 UNK         0.0600 
    227 H227       -6.1919  -24.3139  -50.3529 H         1 UNK         0.0600 
    228 H228       -7.7556  -23.5591  -50.0519 H         1 UNK         0.0600 
    229 H229       -7.6615  -25.2780  -50.4053 H         1 UNK         0.0600 
    230 H230       -5.1005  -23.8951  -53.3252 H         1 UNK         0.3000 
    231 H231       -5.1353  -26.6730  -54.4365 H         1 UNK         0.0600 
    232 H232       -2.7783  -24.8429  -53.7170 H         1 UNK         0.0600 
    233 H233       -2.6642  -26.4842  -54.3408 H         1 UNK         0.0600 
    234 H234       -3.3373  -26.2029  -52.7442 H         1 UNK         0.0600 
    235 H235       -5.8859  -23.6253  -55.3609 H         1 UNK         0.3000 
    236 H236       -5.8397  -22.3141  -57.1326 H         1 UNK         0.0600 
    237 H237       -6.9946  -24.2832  -58.1609 H         1 UNK         0.0600 
    238 H238       -6.0953  -23.3634  -59.3549 H         1 UNK         0.0600 
    239 H239       -5.4474  -24.8848  -58.7552 H         1 UNK         0.0600 
    240 H240       -3.3458  -22.5820  -55.7830 H         1 UNK         0.3000 
    241 H241       -1.2233  -22.1508  -55.8273 H         1 UNK         0.0600 
    242 H242       -0.6769  -25.4472  -57.7610 H         1 UNK         0.3800 
    243 H243       -2.1895  -24.8642  -57.1168 H         1 UNK         0.3800 
    244 H244       -1.1502  -21.0527  -58.6559 H         1 UNK         0.0800 
    245 H245       -2.0758  -20.2092  -57.4534 H         1 UNK         0.0800 
    246 H246       -0.7248  -18.0512  -56.1897 H         1 UNK         0.0800 
    247 H247       -1.3273  -19.3978  -55.2701 H         1 UNK         0.0800 
@<TRIPOS>BOND
     1    1    2 1    
     2    1  127 1    
     3    1  128 1    
     4    1  129 1    
     5    2    3 2    
     6    2    4 am   BACKBONE|DICT|INTERRES
     7    4    5 1    
     8    4  130 1    
     9    5    6 1    
    10    5   65 1    
    11    5  131 1    
    12    6    7 1    
    13    6  132 1    
    14    6  133 1    
    15    7    8 1    
    16    8    9 1    
    17    8  134 1    
    18    8  135 1    
    19    9   10 ar   
    20    9   14 ar   
    21   10   11 ar   
    22   10  136 1    
    23   11   12 ar   
    24   11  126 1    
    25   12   13 ar   
    26   12  137 1    
    27   13   14 ar   
    28   13   15 1    
    29   14  138 1    
    30   15   16 1    
    31   15  139 1    
    32   15  140 1    
    33   16   17 1    
    34   17   18 1    
    35   17  141 1    
    36   17  142 1    
    37   18   19 1    
    38   18   67 1    
    39   18  143 1    
    40   19   20 am   BACKBONE|DICT|INTERRES
    41   19  144 1    
    42   20   21 2    
    43   20   22 1    
    44   22   23 1    
    45   22   24 1    
    46   22  145 1    
    47   23  146 1    
    48   23  147 1    
    49   23  148 1    
    50   24   25 am   BACKBONE|DICT|INTERRES
    51   24  149 1    
    52   25   26 2    
    53   25   27 1    
    54   27   28 1    
    55   27   29 1    
    56   27  150 1    
    57   28  151 1    
    58   28  152 1    
    59   28  153 1    
    60   29   30 am   BACKBONE|DICT|INTERRES
    61   29  154 1    
    62   30   31 2    
    63   30   32 1    
    64   32   33 1    
    65   32   34 1    
    66   32  155 1    
    67   33  156 1    
    68   33  157 1    
    69   33  158 1    
    70   34   35 am   BACKBONE|DICT|INTERRES
    71   34  159 1    
    72   35   36 2    
    73   35   37 1    
    74   37   38 1    
    75   37   39 1    
    76   37  160 1    
    77   38  161 1    
    78   38  162 1    
    79   38  163 1    
    80   39   40 am   BACKBONE|DICT|INTERRES
    81   39  164 1    
    82   40   41 2    
    83   40   42 1    
    84   42   43 1    
    85   42   44 1    
    86   42  165 1    
    87   43  166 1    
    88   43  167 1    
    89   43  168 1    
    90   44   45 am   BACKBONE|DICT|INTERRES
    91   44  169 1    
    92   45   46 2    
    93   45   47 1    
    94   47   48 1    
    95   47   49 1    
    96   47  170 1    
    97   48  171 1    
    98   48  172 1    
    99   48  173 1    
   100   49   50 am   BACKBONE|DICT|INTERRES
   101   49  174 1    
   102   50   51 2    
   103   50   52 1    
   104   52   53 1    
   105   52   54 1    
   106   52  175 1    
   107   53  176 1    
   108   53  177 1    
   109   53  178 1    
   110   54   55 am   BACKBONE|DICT|INTERRES
   111   54  179 1    
   112   55   56 2    
   113   55   57 1    
   114   57   58 1    
   115   57   59 1    
   116   57  180 1    
   117   58  181 1    
   118   58  182 1    
   119   58  183 1    
   120   59   60 am   BACKBONE|DICT|INTERRES
   121   59  184 1    
   122   60   61 2    
   123   60   62 1    
   124   62   63 1    
   125   62   64 1    
   126   62  185 1    
   127   63  186 1    
   128   63  187 1    
   129   63  188 1    
   130   64   65 am   BACKBONE|DICT|INTERRES
   131   64  189 1    
   132   65   66 2    
   133   67   68 2    
   134   67   69 am   BACKBONE|DICT|INTERRES
   135   69   70 1    
   136   69  190 1    
   137   70   71 1    
   138   70   72 1    
   139   70  191 1    
   140   71  192 1    
   141   71  193 1    
   142   71  194 1    
   143   72   73 2    
   144   72   74 am   BACKBONE|DICT|INTERRES
   145   74   75 1    
   146   74  195 1    
   147   75   76 1    
   148   75   77 1    
   149   75  196 1    
   150   76  197 1    
   151   76  198 1    
   152   76  199 1    
   153   77   78 2    
   154   77   79 am   BACKBONE|DICT|INTERRES
   155   79   80 1    
   156   79  200 1    
   157   80   81 1    
   158   80   82 1    
   159   80  201 1    
   160   81  202 1    
   161   81  203 1    
   162   81  204 1    
   163   82   83 2    
   164   82   84 am   BACKBONE|DICT|INTERRES
   165   84   85 1    
   166   84  205 1    
   167   85   86 1    
   168   85   87 1    
   169   85  206 1    
   170   86  207 1    
   171   86  208 1    
   172   86  209 1    
   173   87   88 2    
   174   87   89 am   BACKBONE|DICT|INTERRES
   175   89   90 1    
   176   89  210 1    
   177   90   91 1    
   178   90   92 1    
   179   90  211 1    
   180   91  212 1    
   181   91  213 1    
   182   91  214 1    
   183   92   93 2    
   184   92   94 am   BACKBONE|DICT|INTERRES
   185   94   95 1    
   186   94  215 1    
   187   95   96 1    
   188   95   97 1    
   189   95  216 1    
   190   96  217 1    
   191   96  218 1    
   192   96  219 1    
   193   97   98 2    
   194   97   99 am   BACKBONE|DICT|INTERRES
   195   99  100 1    
   196   99  220 1    
   197  100  101 1    
   198  100  102 1    
   199  100  221 1    
   200  101  222 1    
   201  101  223 1    
   202  101  224 1    
   203  102  103 2    
   204  102  104 am   BACKBONE|DICT|INTERRES
   205  104  105 1    
   206  104  225 1    
   207  105  106 1    
   208  105  107 1    
   209  105  226 1    
   210  106  227 1    
   211  106  228 1    
   212  106  229 1    
   213  107  108 2    
   214  107  109 am   BACKBONE|DICT|INTERRES
   215  109  110 1    
   216  109  230 1    
   217  110  111 1    
   218  110  112 1    
   219  110  231 1    
   220  111  232 1    
   221  111  233 1    
   222  111  234 1    
   223  112  113 2    
   224  112  114 am   BACKBONE|DICT|INTERRES
   225  114  115 1    
   226  114  235 1    
   227  115  116 1    
   228  115  117 1    
   229  115  236 1    
   230  116  237 1    
   231  116  238 1    
   232  116  239 1    
   233  117  118 2    
   234  117  119 am   BACKBONE|DICT|INTERRES
   235  119  120 1    
   236  119  240 1    
   237  120  121 1    
   238  120  124 1    
   239  120  241 1    
   240  121  122 am   BACKBONE|DICT|INTERRES
   241  121  123 2    
   242  122  242 1    
   243  122  243 1    
   244  124  125 1    
   245  124  244 1    
   246  124  245 1    
   247  125  126 1    
   248  126  246 1    
   249  126  247 1    
@<TRIPOS>SUBSTRUCTURE
     1 UNK         1 GROUP             0       ****    0 ROOT    
