@<TRIPOS>MOLECULE
3R540
247   249    1
SMALL
USER_CHARGES


@<TRIPOS>ATOM
      1 CA         -0.9162  -10.4563  -49.0384 C.3       0 UNK        -0.1800 
      2 C           0.1167  -11.2569  -48.2590 C.2       0 UNK         0.5000 
      3 O           0.9870  -10.6720  -47.6135 O.2       0 UNK        -0.5000 
      4 N           0.0156  -12.5939  -48.2980 N.am      1 UNK        -0.5000 
      5 CA          0.9385  -13.5287  -47.6356 C.3       1 UNK         0.1400 
      6 C6          0.7271  -14.9868  -48.1185 C.3       23 UNK        -0.0398 
      7 S7          2.2725  -15.9528  -48.0319 S.3       23 UNK        -0.2404 
      8 C8          2.6286  -16.3905  -49.7640 C.3       23 UNK        -0.0205 
      9 C9          2.3828  -17.8627  -50.0859 C.ar      23 UNK        -0.0193 
     10 C10         1.7746  -18.2126  -51.2943 C.ar      23 UNK        -0.1150 
     11 C11         1.6480  -19.5535  -51.6668 C.ar      23 UNK        -0.0193 
     12 C12         2.1094  -20.5556  -50.8089 C.ar      23 UNK        -0.1150 
     13 C13         2.7136  -20.2243  -49.5926 C.ar      23 UNK        -0.0193 
     14 C14         2.8459  -18.8774  -49.2380 C.ar      23 UNK        -0.1150 
     15 C15         3.3018  -21.3150  -48.7043 C.3       23 UNK        -0.0205 
     16 S16         2.0504  -22.4481  -48.0190 S.3       23 UNK        -0.2404 
     17 C17         1.1988  -21.3743  -46.8154 C.3       23 UNK        -0.0398 
     18 CA         -0.3352  -21.5750  -46.8234 C.3       11 UNK         0.1400 
     19 N          -0.9739  -21.0035  -45.6368 N.am      11 UNK        -0.5000 
     20 C          -2.2368  -21.2467  -45.2572 C.2       10 UNK         0.5000 
     21 O          -2.9760  -22.0534  -45.8189 O.2       10 UNK        -0.5000 
     22 CA         -2.7824  -20.4314  -44.0700 C.3       10 UNK         0.1400 
     23 CB         -2.5214  -21.1646  -42.7461 C.3       10 UNK        -0.1800 
     24 N          -2.2313  -19.0780  -43.9951 N.am      10 UNK        -0.5000 
     25 C          -2.3963  -18.1259  -44.9250 C.2       9 UNK         0.5000 
     26 O          -3.0695  -18.2722  -45.9434 O.2       9 UNK        -0.5000 
     27 CA         -1.6229  -16.8118  -44.7088 C.3       9 UNK         0.1400 
     28 CB         -2.3387  -15.9396  -43.6667 C.3       9 UNK        -0.1800 
     29 N          -0.2317  -17.0478  -44.3088 N.am      9 UNK        -0.5000 
     30 C           0.6573  -17.7338  -45.0454 C.2       8 UNK         0.5000 
     31 O           0.4101  -18.1722  -46.1691 O.2       8 UNK        -0.5000 
     32 CA          2.0089  -18.0653  -44.3880 C.3       8 UNK         0.1400 
     33 CB          3.0135  -16.9205  -44.5318 C.3       8 UNK        -0.1800 
     34 N           1.8479  -18.3700  -42.9706 N.am      8 UNK        -0.5000 
     35 C           1.4041  -19.5409  -42.4981 C.2       7 UNK         0.5000 
     36 O           1.1227  -20.5033  -43.2126 O.2       7 UNK        -0.5000 
     37 CA          1.2107  -19.6341  -40.9727 C.3       7 UNK         0.1400 
     38 CB          2.5242  -20.0323  -40.2837 C.3       7 UNK        -0.1800 
     39 N           0.7184  -18.3832  -40.3899 N.am      7 UNK        -0.5000 
     40 C          -0.4885  -17.8609  -40.6459 C.2       6 UNK         0.5000 
     41 O          -1.3229  -18.4036  -41.3679 O.2       6 UNK        -0.5000 
     42 CA         -0.8122  -16.4907  -40.0253 C.3       6 UNK         0.1400 
     43 CB         -1.5117  -16.6708  -38.6701 C.3       6 UNK        -0.1800 
     44 N           0.3451  -15.6088  -39.8553 N.am      6 UNK        -0.5000 
     45 C           1.1324  -15.1467  -40.8370 C.2       5 UNK         0.5000 
     46 O           1.0235  -15.4922  -42.0165 O.2       5 UNK        -0.5000 
     47 CA          2.1762  -14.0987  -40.4017 C.3       5 UNK         0.1400 
     48 CB          3.0620  -14.5925  -39.2360 C.3       5 UNK        -0.1800 
     49 N           2.9800  -13.5650  -41.5059 N.am      5 UNK        -0.5000 
     50 C           4.0039  -14.1368  -42.1582 C.2       4 UNK         0.5000 
     51 O           4.4287  -15.2661  -41.9107 O.2       4 UNK        -0.5000 
     52 CA          4.6950  -13.2811  -43.2460 C.3       4 UNK         0.1400 
     53 CB          5.2532  -14.1207  -44.4088 C.3       4 UNK        -0.1800 
     54 N           3.7952  -12.2633  -43.7900 N.am      4 UNK        -0.5000 
     55 C           3.7861  -10.9638  -43.4580 C.2       3 UNK         0.5000 
     56 O           4.6088  -10.4479  -42.7012 O.2       3 UNK        -0.5000 
     57 CA          2.6434  -10.0958  -44.0329 C.3       3 UNK         0.1400 
     58 CB          3.1260   -9.3248  -45.2703 C.3       3 UNK        -0.1800 
     59 N           1.4489  -10.8664  -44.3887 N.am      3 UNK        -0.5000 
     60 C           0.7100  -11.5775  -43.5233 C.2       2 UNK         0.5000 
     61 O           0.8685  -11.5273  -42.3030 O.2       2 UNK        -0.5000 
     62 CA         -0.3316  -12.5575  -44.1029 C.3       2 UNK         0.1400 
     63 CB         -1.7579  -12.0396  -43.8658 C.3       2 UNK        -0.1800 
     64 N          -0.1670  -12.8637  -45.5278 N.am      2 UNK        -0.5000 
     65 C           0.9162  -13.4217  -46.0908 C.2       1 UNK         0.5000 
     66 O           1.8991  -13.7761  -45.4421 O.2       1 UNK        -0.5000 
     67 C          -0.9933  -21.0425  -48.1117 C.2       11 UNK         0.5000 
     68 O          -1.4298  -21.8413  -48.9413 O.2       11 UNK        -0.5000 
     69 N          -1.1222  -19.7133  -48.2277 N.am      12 UNK        -0.5000 
     70 CA         -1.7723  -19.0474  -49.3607 C.3       12 UNK         0.1400 
     71 CB         -1.5590  -17.5337  -49.2506 C.3       12 UNK        -0.1800 
     72 C          -3.2704  -19.3880  -49.4991 C.2       12 UNK         0.5000 
     73 O          -3.7824  -19.4783  -50.6160 O.2       12 UNK        -0.5000 
     74 N          -3.9359  -19.6132  -48.3599 N.am      13 UNK        -0.5000 
     75 CA         -5.3243  -20.0606  -48.2588 C.3       13 UNK         0.1400 
     76 CB         -5.8570  -19.7095  -46.8608 C.3       13 UNK        -0.1800 
     77 C          -5.5262  -21.5623  -48.5557 C.2       13 UNK         0.5000 
     78 O          -6.6734  -22.0085  -48.5589 O.2       13 UNK        -0.5000 
     79 N          -4.4450  -22.3174  -48.7922 N.am      14 UNK        -0.5000 
     80 CA         -4.4841  -23.7416  -49.1230 C.3       14 UNK         0.1400 
     81 CB         -3.7405  -24.5399  -48.0418 C.3       14 UNK        -0.1800 
     82 C          -3.8708  -24.0203  -50.5011 C.2       14 UNK         0.5000 
     83 O          -4.4071  -24.8421  -51.2440 O.2       14 UNK        -0.5000 
     84 N          -2.7481  -23.3645  -50.8243 N.am      15 UNK        -0.5000 
     85 CA         -1.9318  -23.5687  -52.0295 C.3       15 UNK         0.1400 
     86 CB         -2.7233  -23.1911  -53.2991 C.3       15 UNK        -0.1800 
     87 C          -1.3153  -24.9836  -52.1215 C.2       15 UNK         0.5000 
     88 O          -0.9822  -25.4382  -53.2161 O.2       15 UNK        -0.5000 
     89 N          -1.2013  -25.6599  -50.9667 N.am      16 UNK        -0.5000 
     90 CA         -0.7195  -27.0318  -50.7578 C.3       16 UNK         0.1400 
     91 CB          0.7708  -27.1489  -51.1401 C.3       16 UNK        -0.1800 
     92 C          -1.5836  -28.1310  -51.4212 C.2       16 UNK         0.5000 
     93 O          -1.1383  -29.2773  -51.5011 O.2       16 UNK        -0.5000 
     94 N          -2.7973  -27.7832  -51.8716 N.am      17 UNK        -0.5000 
     95 CA         -3.7038  -28.6769  -52.6011 C.3       17 UNK         0.1400 
     96 CB         -3.4756  -28.4828  -54.1119 C.3       17 UNK        -0.1800 
     97 C          -5.1849  -28.4664  -52.2318 C.2       17 UNK         0.5000 
     98 O          -6.0479  -29.1000  -52.8404 O.2       17 UNK        -0.5000 
     99 N          -5.4600  -27.5644  -51.2763 N.am      18 UNK        -0.5000 
    100 CA        -6.7811  -27.0486  -50.8868 C.3       18 UNK         0.1400 
    101 CB        -7.6651  -28.1619  -50.2867 C.3       18 UNK        -0.1800 
    102 C         -7.4836  -26.2601  -52.0177 C.2       18 UNK         0.5000 
    103 O         -8.7114  -26.1560  -52.0278 O.2       18 UNK        -0.5000 
    104 N         -6.6877  -25.7166  -52.9481 N.am      19 UNK        -0.5000 
    105 CA        -7.1409  -24.9245  -54.0896 C.3       19 UNK         0.1400 
    106 CB        -6.1656  -25.1287  -55.2597 C.3       19 UNK        -0.1800 
    107 C         -7.2650  -23.4324  -53.7370 C.2       19 UNK         0.5000 
    108 O         -8.1897  -22.7797  -54.2229 O.2       19 UNK        -0.5000 
    109 N         -6.3499  -22.9447  -52.8824 N.am      20 UNK        -0.5000 
    110 CA        -6.2233  -21.5720  -52.3735 C.3       20 UNK         0.1400 
    111 CB        -7.4987  -21.1762  -51.5989 C.3       20 UNK        -0.1800 
    112 C         -5.8895  -20.5102  -53.4459 C.2       20 UNK         0.5000 
    113 O         -5.8925  -20.7914  -54.6461 O.2       20 UNK        -0.5000 
    114 N         -5.6214  -19.2866  -52.9660 N.am      21 UNK        -0.5000 
    115 CA        -5.4614  -18.0409  -53.7264 C.3       21 UNK         0.1400 
    116 CB        -6.7970  -17.6384  -54.3868 C.3       21 UNK        -0.1800 
    117 C         -4.2801  -18.0578  -54.7183 C.2       21 UNK         0.5000 
    118 O         -4.3716  -17.4821  -55.8045 O.2       21 UNK        -0.5000 
    119 N         -3.1846  -18.7128  -54.3199 N.am      22 UNK        -0.5000 
    120 CA        -1.9433  -18.8294  -55.1019 C.3       22 UNK         0.1400 
    121 C         -1.0397  -17.5594  -55.1094 C.2       22 UNK         0.5000 
    122 N         -1.3148  -16.5381  -54.3070 N.am      22 UNK        -0.7600 
    123 O         -0.0765  -17.4964  -55.8683 O.2       22 UNK        -0.5000 
    124 C124       -1.1559  -20.1043  -54.7128 C.3       23 UNK        -0.0398 
    125 S125       -0.7228  -20.1697  -52.9394 S.3       23 UNK        -0.2404 
    126 C126        1.0697  -19.9085  -53.0255 C.3       23 UNK        -0.0205 
    127 H127       -1.4721   -9.8050  -48.3641 H         1 UNK         0.0600 
    128 H128       -1.6282  -11.1028  -49.5518 H         1 UNK         0.0600 
    129 H129       -0.4221   -9.8342  -49.7846 H         1 UNK         0.0600 
    130 H130       -0.7281  -13.0133  -48.8380 H         1 UNK         0.3000 
    131 H131        1.9383  -13.2155  -47.9452 H         1 UNK         0.0600 
    132 H132        0.3682  -14.9968  -49.1477 H         1 UNK         0.0800 
    133 H133       -0.0411  -15.4943  -47.5326 H         1 UNK         0.0800 
    134 H134        3.6819  -16.1808  -49.9535 H         1 UNK         0.0800 
    135 H135        2.0700  -15.7426  -50.4403 H         1 UNK         0.0800 
    136 H136        1.4326  -17.4395  -51.9683 H         1 UNK         0.1150 
    137 H137        2.0232  -21.5934  -51.0989 H         1 UNK         0.1150 
    138 H138        3.3413  -18.6148  -48.3140 H         1 UNK         0.1150 
    139 H139        4.0101  -21.8982  -49.2943 H         1 UNK         0.0800 
    140 H140        3.8771  -20.8824  -47.8843 H         1 UNK         0.0800 
    141 H141        1.4598  -20.3329  -47.0007 H         1 UNK         0.0800 
    142 H142        1.5988  -21.6131  -45.8290 H         1 UNK         0.0800 
    143 H143       -0.5239  -22.6505  -46.7874 H         1 UNK         0.0600 
    144 H144       -0.4342  -20.3311  -45.1094 H         1 UNK         0.3000 
    145 H145       -3.8624  -20.3414  -44.1981 H         1 UNK         0.0600 
    146 H146       -2.9815  -20.6406  -41.9082 H         1 UNK         0.0600 
    147 H147       -1.4547  -21.2542  -42.5392 H         1 UNK         0.0600 
    148 H148       -2.9384  -22.1722  -42.7678 H         1 UNK         0.0600 
    149 H149       -1.7109  -18.8501  -43.1514 H         1 UNK         0.3000 
    150 H150       -1.6020  -16.2677  -45.6551 H         1 UNK         0.0600 
    151 H151       -3.2882  -15.5741  -44.0592 H         1 UNK         0.0600 
    152 H152       -1.7453  -15.0727  -43.3887 H         1 UNK         0.0600 
    153 H153       -2.5605  -16.4932  -42.7553 H         1 UNK         0.0600 
    154 H154        0.0649  -16.6820  -43.4106 H         1 UNK         0.3000 
    155 H155        2.4252  -18.9408  -44.8910 H         1 UNK         0.0600 
    156 H156        3.2910  -16.7712  -45.5724 H         1 UNK         0.0600 
    157 H157        3.9335  -17.1293  -43.9858 H         1 UNK         0.0600 
    158 H158        2.6069  -15.9823  -44.1555 H         1 UNK         0.0600 
    159 H159        2.0033  -17.6057  -42.3268 H         1 UNK         0.3000 
    160 H160        0.4713  -20.4141  -40.7788 H         1 UNK         0.0600 
    161 H161        3.2979  -19.2758  -40.4218 H         1 UNK         0.0600 
    162 H162        2.9068  -20.9710  -40.6867 H         1 UNK         0.0600 
    163 H163        2.3803  -20.1745  -39.2125 H         1 UNK         0.0600 
    164 H164        1.3483  -17.8745  -39.7873 H         1 UNK         0.3000 
    165 H165       -1.5067  -15.9845  -40.6974 H         1 UNK         0.0600 
    166 H166       -1.8432  -15.7142  -38.2659 H         1 UNK         0.0600 
    167 H167       -2.3952  -17.3035  -38.7672 H         1 UNK         0.0600 
    168 H168       -0.8533  -17.1369  -37.9359 H         1 UNK         0.0600 
    169 H169        0.5044  -15.2728  -38.9166 H         1 UNK         0.3000 
    170 H170        1.6050  -13.2443  -40.0359 H         1 UNK         0.0600 
    171 H171        3.8394  -13.8668  -38.9963 H         1 UNK         0.0600 
    172 H172        2.4776  -14.7417  -38.3279 H         1 UNK         0.0600 
    173 H173        3.5485  -15.5408  -39.4659 H         1 UNK         0.0600 
    174 H174        2.6687  -12.6616  -41.8399 H         1 UNK         0.3000 
    175 H175        5.5453  -12.8029  -42.7563 H         1 UNK         0.0600 
    176 H176        4.4574  -14.5851  -44.9892 H         1 UNK         0.0600 
    177 H177        5.8361  -13.5008  -45.0899 H         1 UNK         0.0600 
    178 H178        5.9118  -14.9133  -44.0522 H         1 UNK         0.0600 
    179 H179        3.0671  -12.6211  -44.4034 H         1 UNK         0.3000 
    180 H180        2.3599   -9.3730  -43.2652 H         1 UNK         0.0600 
    181 H181        2.3502   -8.6583  -45.6476 H         1 UNK         0.0600 
    182 H182        3.4079  -10.0009  -46.0787 H         1 UNK         0.0600 
    183 H183        3.9964   -8.7110  -45.0351 H         1 UNK         0.0600 
    184 H184        1.2497  -10.9506  -45.3783 H         1 UNK         0.3000 
    185 H185       -0.2006  -13.4905  -43.5542 H         1 UNK         0.0600 
    186 H186       -1.9340  -11.8489  -42.8062 H         1 UNK         0.0600 
    187 H187       -1.9397  -11.1076  -44.4023 H         1 UNK         0.0600 
    188 H188       -2.5030  -12.7657  -44.1911 H         1 UNK         0.0600 
    189 H189       -0.9162  -12.5716  -46.1377 H         1 UNK         0.3000 
    190 H190       -0.7323  -19.1162  -47.5037 H         1 UNK         0.3000 
    191 H191       -1.2739  -19.3908  -50.2665 H         1 UNK         0.0600 
    192 H192       -0.4956  -17.2989  -49.2676 H         1 UNK         0.0600 
    193 H193       -1.9809  -17.1325  -48.3284 H         1 UNK         0.0600 
    194 H194       -2.0224  -17.0091  -50.0869 H         1 UNK         0.0600 
    195 H195       -3.4586  -19.4292  -47.4822 H         1 UNK         0.3000 
    196 H196       -5.9151  -19.5070  -48.9911 H         1 UNK         0.0600 
    197 H197       -5.7589  -18.6432  -46.6560 H         1 UNK         0.0600 
    198 H198       -5.3204  -20.2525  -46.0831 H         1 UNK         0.0600 
    199 H199       -6.9142  -19.9604  -46.7665 H         1 UNK         0.0600 
    200 H200       -3.5298  -21.8866  -48.7436 H         1 UNK         0.3000 
    201 H201       -5.5132  -24.1043  -49.1578 H         1 UNK         0.0600 
    202 H202       -4.2203  -24.4187  -47.0704 H         1 UNK         0.0600 
    203 H203       -2.7039  -24.2164  -47.9390 H         1 UNK         0.0600 
    204 H204       -3.7356  -25.6063  -48.2711 H         1 UNK         0.0600 
    205 H205       -2.3319  -22.7370  -50.1360 H         1 UNK         0.3000 
    206 H206       -1.0884  -22.8842  -51.9398 H         1 UNK         0.0600 
    207 H207       -3.5272  -23.8962  -53.5044 H         1 UNK         0.0600 
    208 H208       -3.1604  -22.1967  -53.2112 H         1 UNK         0.0600 
    209 H209       -2.0728  -23.1864  -54.1736 H         1 UNK         0.0600 
    210 H210       -1.4973  -25.1780  -50.1303 H         1 UNK         0.3000 
    211 H211       -0.7936  -27.2104  -49.6842 H         1 UNK         0.0600 
    212 H212        0.9217  -27.0579  -52.2160 H         1 UNK         0.0600 
    213 H213        1.1806  -28.1123  -50.8347 H         1 UNK         0.0600 
    214 H214        1.3652  -26.3771  -50.6510 H         1 UNK         0.0600 
    215 H215       -3.0717  -26.8127  -51.8021 H         1 UNK         0.3000 
    216 H216       -3.4823  -29.7158  -52.3491 H         1 UNK         0.0600 
    217 H217       -4.1053  -29.1527  -54.6987 H         1 UNK         0.0600 
    218 H218       -2.4412  -28.6932  -54.3843 H         1 UNK         0.0600 
    219 H219       -3.7010  -27.4616  -54.4218 H         1 UNK         0.0600 
    220 H220       -4.6822  -27.0880  -50.8433 H         1 UNK         0.3000 
    221 H221       -6.5951  -26.3224  -50.0945 H         1 UNK         0.0600 
    222 H222       -7.9779  -28.8848  -51.0402 H         1 UNK         0.0600 
    223 H223       -7.1389  -28.7022  -49.4999 H         1 UNK         0.0600 
    224 H224       -8.5696  -27.7448  -49.8426 H         1 UNK         0.0600 
    225 H225       -5.6899  -25.8006  -52.8111 H         1 UNK         0.3000 
    226 H226       -8.1243  -25.2786  -54.4068 H         1 UNK         0.0600 
    227 H227       -6.1144  -26.1783  -55.5500 H         1 UNK         0.0600 
    228 H228       -6.4858  -24.5637  -56.1360 H         1 UNK         0.0600 
    229 H229       -5.1563  -24.8012  -55.0101 H         1 UNK         0.0600 
    230 H230       -5.6493  -23.5913  -52.5444 H         1 UNK         0.3000 
    231 H231       -5.3875  -21.5908  -51.6732 H         1 UNK         0.0600 
    232 H232       -7.3319  -20.2897  -50.9869 H         1 UNK         0.0600 
    233 H233       -7.8226  -21.9747  -50.9319 H         1 UNK         0.0600 
    234 H234       -8.3284  -20.9531  -52.2705 H         1 UNK         0.0600 
    235 H235       -5.5039  -19.1901  -51.9645 H         1 UNK         0.3000 
    236 H236       -5.2186  -17.2719  -52.9918 H         1 UNK         0.0600 
    237 H237       -7.0847  -18.3358  -55.1742 H         1 UNK         0.0600 
    238 H238       -7.6047  -17.6073  -53.6555 H         1 UNK         0.0600 
    239 H239       -6.7304  -16.6468  -54.8359 H         1 UNK         0.0600 
    240 H240       -3.1787  -19.1504  -53.4088 H         1 UNK         0.3000 
    241 H241       -2.2387  -18.9637  -56.1444 H         1 UNK         0.0600 
    242 H242       -0.7285  -15.7190  -54.3287 H         1 UNK         0.3800 
    243 H243       -2.1003  -16.5778  -53.6791 H         1 UNK         0.3800 
    244 H244       -0.2598  -20.2118  -55.3265 H         1 UNK         0.0800 
    245 H245       -1.7645  -20.9779  -54.9426 H         1 UNK         0.0800 
    246 H246        1.2910  -19.1101  -53.7356 H         1 UNK         0.0800 
    247 H247        1.5470  -20.8085  -53.4163 H         1 UNK         0.0800 
@<TRIPOS>BOND
     1    1    2 1    
     2    1  127 1    
     3    1  128 1    
     4    1  129 1    
     5    2    3 2    
     6    2    4 am   BACKBONE|DICT|INTERRES
     7    4    5 1    
     8    4  130 1    
     9    5    6 1    
    10    5   65 1    
    11    5  131 1    
    12    6    7 1    
    13    6  132 1    
    14    6  133 1    
    15    7    8 1    
    16    8    9 1    
    17    8  134 1    
    18    8  135 1    
    19    9   10 ar   
    20    9   14 ar   
    21   10   11 ar   
    22   10  136 1    
    23   11   12 ar   
    24   11  126 1    
    25   12   13 ar   
    26   12  137 1    
    27   13   14 ar   
    28   13   15 1    
    29   14  138 1    
    30   15   16 1    
    31   15  139 1    
    32   15  140 1    
    33   16   17 1    
    34   17   18 1    
    35   17  141 1    
    36   17  142 1    
    37   18   19 1    
    38   18   67 1    
    39   18  143 1    
    40   19   20 am   BACKBONE|DICT|INTERRES
    41   19  144 1    
    42   20   21 2    
    43   20   22 1    
    44   22   23 1    
    45   22   24 1    
    46   22  145 1    
    47   23  146 1    
    48   23  147 1    
    49   23  148 1    
    50   24   25 am   BACKBONE|DICT|INTERRES
    51   24  149 1    
    52   25   26 2    
    53   25   27 1    
    54   27   28 1    
    55   27   29 1    
    56   27  150 1    
    57   28  151 1    
    58   28  152 1    
    59   28  153 1    
    60   29   30 am   BACKBONE|DICT|INTERRES
    61   29  154 1    
    62   30   31 2    
    63   30   32 1    
    64   32   33 1    
    65   32   34 1    
    66   32  155 1    
    67   33  156 1    
    68   33  157 1    
    69   33  158 1    
    70   34   35 am   BACKBONE|DICT|INTERRES
    71   34  159 1    
    72   35   36 2    
    73   35   37 1    
    74   37   38 1    
    75   37   39 1    
    76   37  160 1    
    77   38  161 1    
    78   38  162 1    
    79   38  163 1    
    80   39   40 am   BACKBONE|DICT|INTERRES
    81   39  164 1    
    82   40   41 2    
    83   40   42 1    
    84   42   43 1    
    85   42   44 1    
    86   42  165 1    
    87   43  166 1    
    88   43  167 1    
    89   43  168 1    
    90   44   45 am   BACKBONE|DICT|INTERRES
    91   44  169 1    
    92   45   46 2    
    93   45   47 1    
    94   47   48 1    
    95   47   49 1    
    96   47  170 1    
    97   48  171 1    
    98   48  172 1    
    99   48  173 1    
   100   49   50 am   BACKBONE|DICT|INTERRES
   101   49  174 1    
   102   50   51 2    
   103   50   52 1    
   104   52   53 1    
   105   52   54 1    
   106   52  175 1    
   107   53  176 1    
   108   53  177 1    
   109   53  178 1    
   110   54   55 am   BACKBONE|DICT|INTERRES
   111   54  179 1    
   112   55   56 2    
   113   55   57 1    
   114   57   58 1    
   115   57   59 1    
   116   57  180 1    
   117   58  181 1    
   118   58  182 1    
   119   58  183 1    
   120   59   60 am   BACKBONE|DICT|INTERRES
   121   59  184 1    
   122   60   61 2    
   123   60   62 1    
   124   62   63 1    
   125   62   64 1    
   126   62  185 1    
   127   63  186 1    
   128   63  187 1    
   129   63  188 1    
   130   64   65 am   BACKBONE|DICT|INTERRES
   131   64  189 1    
   132   65   66 2    
   133   67   68 2    
   134   67   69 am   BACKBONE|DICT|INTERRES
   135   69   70 1    
   136   69  190 1    
   137   70   71 1    
   138   70   72 1    
   139   70  191 1    
   140   71  192 1    
   141   71  193 1    
   142   71  194 1    
   143   72   73 2    
   144   72   74 am   BACKBONE|DICT|INTERRES
   145   74   75 1    
   146   74  195 1    
   147   75   76 1    
   148   75   77 1    
   149   75  196 1    
   150   76  197 1    
   151   76  198 1    
   152   76  199 1    
   153   77   78 2    
   154   77   79 am   BACKBONE|DICT|INTERRES
   155   79   80 1    
   156   79  200 1    
   157   80   81 1    
   158   80   82 1    
   159   80  201 1    
   160   81  202 1    
   161   81  203 1    
   162   81  204 1    
   163   82   83 2    
   164   82   84 am   BACKBONE|DICT|INTERRES
   165   84   85 1    
   166   84  205 1    
   167   85   86 1    
   168   85   87 1    
   169   85  206 1    
   170   86  207 1    
   171   86  208 1    
   172   86  209 1    
   173   87   88 2    
   174   87   89 am   BACKBONE|DICT|INTERRES
   175   89   90 1    
   176   89  210 1    
   177   90   91 1    
   178   90   92 1    
   179   90  211 1    
   180   91  212 1    
   181   91  213 1    
   182   91  214 1    
   183   92   93 2    
   184   92   94 am   BACKBONE|DICT|INTERRES
   185   94   95 1    
   186   94  215 1    
   187   95   96 1    
   188   95   97 1    
   189   95  216 1    
   190   96  217 1    
   191   96  218 1    
   192   96  219 1    
   193   97   98 2    
   194   97   99 am   BACKBONE|DICT|INTERRES
   195   99  100 1    
   196   99  220 1    
   197  100  101 1    
   198  100  102 1    
   199  100  221 1    
   200  101  222 1    
   201  101  223 1    
   202  101  224 1    
   203  102  103 2    
   204  102  104 am   BACKBONE|DICT|INTERRES
   205  104  105 1    
   206  104  225 1    
   207  105  106 1    
   208  105  107 1    
   209  105  226 1    
   210  106  227 1    
   211  106  228 1    
   212  106  229 1    
   213  107  108 2    
   214  107  109 am   BACKBONE|DICT|INTERRES
   215  109  110 1    
   216  109  230 1    
   217  110  111 1    
   218  110  112 1    
   219  110  231 1    
   220  111  232 1    
   221  111  233 1    
   222  111  234 1    
   223  112  113 2    
   224  112  114 am   BACKBONE|DICT|INTERRES
   225  114  115 1    
   226  114  235 1    
   227  115  116 1    
   228  115  117 1    
   229  115  236 1    
   230  116  237 1    
   231  116  238 1    
   232  116  239 1    
   233  117  118 2    
   234  117  119 am   BACKBONE|DICT|INTERRES
   235  119  120 1    
   236  119  240 1    
   237  120  121 1    
   238  120  124 1    
   239  120  241 1    
   240  121  122 am   BACKBONE|DICT|INTERRES
   241  121  123 2    
   242  122  242 1    
   243  122  243 1    
   244  124  125 1    
   245  124  244 1    
   246  124  245 1    
   247  125  126 1    
   248  126  246 1    
   249  126  247 1    
@<TRIPOS>SUBSTRUCTURE
     1 UNK         1 GROUP             0       ****    0 ROOT    
