@<TRIPOS>MOLECULE
3R540
247   249    1
SMALL
USER_CHARGES


@<TRIPOS>ATOM
      1 CA          4.8804  -15.5973  -50.7685 C.3       0 UNK        -0.1800 
      2 C           4.3438  -15.4634  -49.3508 C.2       0 UNK         0.5000 
      3 O           4.4875  -16.3884  -48.5522 O.2       0 UNK        -0.5000 
      4 N           3.7212  -14.3195  -49.0393 N.am      1 UNK        -0.5000 
      5 CA          3.1059  -14.0248  -47.7376 C.3       1 UNK         0.1400 
      6 C6          2.1210  -12.8292  -47.8053 C.3       23 UNK        -0.0398 
      7 S7          0.9113  -12.9370  -49.1720 S.3       23 UNK        -0.2404 
      8 C8         -0.2573  -14.1778  -48.5400 C.3       23 UNK        -0.0205 
      9 C9         -0.3577  -15.3721  -49.4752 C.ar      23 UNK        -0.0193 
     10 C10        -1.4139  -15.4729  -50.3855 C.ar      23 UNK        -0.1150 
     11 C11        -1.5321  -16.5933  -51.2140 C.ar      23 UNK        -0.0193 
     12 C12        -0.5725  -17.6072  -51.1432 C.ar      23 UNK        -0.1150 
     13 C13         0.4999  -17.5047  -50.2543 C.ar      23 UNK        -0.0193 
     14 C14         0.5955  -16.3914  -49.4174 C.ar      23 UNK        -0.1150 
     15 C15         1.5612  -18.5903  -50.1937 C.3       23 UNK        -0.0205 
     16 S16         1.4143  -19.5805  -48.6786 S.3       23 UNK        -0.2404 
     17 C17        -0.1431  -20.4717  -48.9928 C.3       23 UNK        -0.0398 
     18 CA         -0.3257  -21.6222  -47.9810 C.3       11 UNK         0.1400 
     19 N          -0.4819  -21.1373  -46.6084 N.am      11 UNK        -0.5000 
     20 C          -0.3882  -21.9056  -45.5161 C.2       10 UNK         0.5000 
     21 O          -0.1486  -23.1118  -45.5457 O.2       10 UNK        -0.5000 
     22 CA         -0.6658  -21.2148  -44.1712 C.3       10 UNK         0.1400 
     23 CB          0.5674  -20.4340  -43.6940 C.3       10 UNK        -0.1800 
     24 N          -1.8226  -20.3222  -44.2559 N.am      10 UNK        -0.5000 
     25 C          -3.0814  -20.7528  -44.4293 C.2       9 UNK         0.5000 
     26 O          -3.3961  -21.9427  -44.4562 O.2       9 UNK        -0.5000 
     27 CA         -4.1624  -19.6834  -44.6685 C.3       9 UNK         0.1400 
     28 CB         -4.8208  -19.2663  -43.3459 C.3       9 UNK        -0.1800 
     29 N          -3.6537  -18.5040  -45.3744 N.am      9 UNK        -0.5000 
     30 C          -3.2449  -18.5224  -46.6533 C.2       8 UNK         0.5000 
     31 O          -3.2362  -19.5404  -47.3432 O.2       8 UNK        -0.5000 
     32 CA         -2.7414  -17.2053  -47.2720 C.3       8 UNK         0.1400 
     33 CB         -3.8798  -16.5166  -48.0394 C.3       8 UNK        -0.1800 
     34 N          -2.1852  -16.2643  -46.3006 N.am      8 UNK        -0.5000 
     35 C          -1.1011  -16.4837  -45.5453 C.2       7 UNK         0.5000 
     36 O          -0.4498  -17.5292  -45.5740 O.2       7 UNK        -0.5000 
     37 CA         -0.6917  -15.3652  -44.5628 C.3       7 UNK         0.1400 
     38 CB         -1.4538  -14.0346  -44.7557 C.3       7 UNK        -0.1800 
     39 N          -0.8047  -15.7987  -43.1690 N.am      7 UNK        -0.5000 
     40 C          -1.8780  -16.3340  -42.5660 C.2       6 UNK         0.5000 
     41 O          -2.9497  -16.5513  -43.1326 O.2       6 UNK        -0.5000 
     42 CA         -1.7276  -16.6871  -41.0738 C.3       6 UNK         0.1400 
     43 CB         -1.3422  -18.1646  -40.9083 C.3       6 UNK        -0.1800 
     44 N          -0.7263  -15.8618  -40.3955 N.am      6 UNK        -0.5000 
     45 C          -0.8985  -14.5766  -40.0553 C.2       5 UNK         0.5000 
     46 O          -1.9552  -13.9624  -40.2046 O.2       5 UNK        -0.5000 
     47 CA          0.3287  -13.8533  -39.4684 C.3       5 UNK         0.1400 
     48 CB          0.3611  -13.9978  -37.9392 C.3       5 UNK        -0.1800 
     49 N           1.5964  -14.3357  -40.0266 N.am      5 UNK        -0.5000 
     50 C           1.9968  -14.1199  -41.2863 C.2       4 UNK         0.5000 
     51 O           1.3363  -13.4959  -42.1191 O.2       4 UNK        -0.5000 
     52 CA          3.3428  -14.7378  -41.6995 C.3       4 UNK         0.1400 
     53 CB          3.1210  -15.9377  -42.6348 C.3       4 UNK        -0.1800 
     54 N           4.1874  -13.7505  -42.3695 N.am      4 UNK        -0.5000 
     55 C           4.8055  -12.7376  -41.7411 C.2       3 UNK         0.5000 
     56 O           4.7463  -12.5655  -40.5222 O.2       3 UNK        -0.5000 
     57 CA          5.6481  -11.7802  -42.6071 C.3       3 UNK         0.1400 
     58 CB          6.8308  -11.1622  -41.8383 C.3       3 UNK        -0.1800 
     59 N           6.1518  -12.4796  -43.7862 N.am      3 UNK        -0.5000 
     60 C           6.1080  -12.0209  -45.0401 C.2       2 UNK         0.5000 
     61 O           5.7393  -10.8851  -45.3455 O.2       2 UNK        -0.5000 
     62 CA          6.4983  -13.0106  -46.1585 C.3       2 UNK         0.1400 
     63 CB          7.1557  -14.3160  -45.6545 C.3       2 UNK        -0.1800 
     64 N           5.3487  -13.3263  -47.0112 N.am      2 UNK        -0.5000 
     65 C           4.1506  -13.7968  -46.6244 C.2       1 UNK         0.5000 
     66 O           3.8513  -14.0499  -45.4553 O.2       1 UNK        -0.5000 
     67 C          -1.4772  -22.5556  -48.3959 C.2       11 UNK         0.5000 
     68 O          -1.2262  -23.5329  -49.0995 O.2       11 UNK        -0.5000 
     69 N          -2.7027  -22.2706  -47.9368 N.am      12 UNK        -0.5000 
     70 CA         -3.8755  -23.1266  -48.1119 C.3       12 UNK         0.1400 
     71 CB         -5.1291  -22.3894  -47.6186 C.3       12 UNK        -0.1800 
     72 C          -3.7182  -24.4771  -47.3911 C.2       12 UNK         0.5000 
     73 O          -3.9925  -25.5168  -47.9896 O.2       12 UNK        -0.5000 
     74 N          -3.2411  -24.4401  -46.1376 N.am      13 UNK        -0.5000 
     75 CA         -2.9585  -25.6215  -45.3185 C.3       13 UNK         0.1400 
     76 CB         -2.6576  -25.1852  -43.8767 C.3       13 UNK        -0.1800 
     77 C          -1.8111  -26.4831  -45.8795 C.2       13 UNK         0.5000 
     78 O          -1.9026  -27.7108  -45.8520 O.2       13 UNK        -0.5000 
     79 N          -0.7677  -25.8266  -46.4045 N.am      14 UNK        -0.5000 
     80 CA          0.3772  -26.4595  -47.0643 C.3       14 UNK         0.1400 
     81 CB          1.5279  -25.4429  -47.1339 C.3       14 UNK        -0.1800 
     82 C           0.0634  -26.9976  -48.4760 C.2       14 UNK         0.5000 
     83 O           0.8769  -27.7418  -49.0244 O.2       14 UNK        -0.5000 
     84 N          -1.0808  -26.5902  -49.0459 N.am      15 UNK        -0.5000 
     85 CA         -1.5408  -26.8406  -50.4166 C.3       15 UNK         0.1400 
     86 CB         -1.7687  -28.3455  -50.6686 C.3       15 UNK        -0.1800 
     87 C          -0.6493  -26.1716  -51.4871 C.2       15 UNK         0.5000 
     88 O          -0.5886  -26.6395  -52.6256 O.2       15 UNK        -0.5000 
     89 N           0.0111  -25.0705  -51.1050 N.am      16 UNK        -0.5000 
     90 CA          0.7387  -24.1698  -51.9970 C.3       16 UNK         0.1400 
     91 CB          1.7762  -23.3809  -51.1833 C.3       16 UNK        -0.1800 
     92 C          -0.2313  -23.2214  -52.7250 C.2       16 UNK         0.5000 
     93 O          -0.0118  -22.9058  -53.8946 O.2       16 UNK        -0.5000 
     94 N          -1.3066  -22.8283  -52.0302 N.am      17 UNK        -0.5000 
     95 CA         -2.5042  -22.2337  -52.6137 C.3       17 UNK         0.1400 
     96 CB         -3.0275  -21.1281  -51.6824 C.3       17 UNK        -0.1800 
     97 C          -3.5483  -23.3494  -52.7797 C.2       17 UNK         0.5000 
     98 O          -3.5774  -24.2895  -51.9792 O.2       17 UNK        -0.5000 
     99 N          -4.4099  -23.2225  -53.7925 N.am      18 UNK        -0.5000 
    100 CA        -5.5111  -24.1410  -54.0749 C.3       18 UNK         0.1400 
    101 CB        -5.8213  -24.0995  -55.5811 C.3       18 UNK        -0.1800 
    102 C         -6.7177  -23.7708  -53.1951 C.2       18 UNK         0.5000 
    103 O         -7.7183  -23.2452  -53.6879 O.2       18 UNK        -0.5000 
    104 N         -6.5562  -23.9952  -51.8839 N.am      19 UNK        -0.5000 
    105 CA        -7.4178  -23.5249  -50.8001 C.3       19 UNK         0.1400 
    106 CB        -8.7950  -24.2259  -50.8359 C.3       19 UNK        -0.1800 
    107 C         -7.4766  -21.9837  -50.8083 C.2       19 UNK         0.5000 
    108 O         -6.4461  -21.3469  -50.5894 O.2       19 UNK        -0.5000 
    109 N         -8.6551  -21.4122  -51.0815 N.am      20 UNK        -0.5000 
    110 CA        -8.8693  -19.9692  -51.1834 C.3       20 UNK         0.1400 
    111 CB       -10.3762  -19.6861  -51.0812 C.3       20 UNK        -0.1800 
    112 C         -8.2907  -19.3417  -52.4685 C.2       20 UNK         0.5000 
    113 O         -8.0527  -18.1330  -52.4825 O.2       20 UNK        -0.5000 
    114 N         -8.0959  -20.1418  -53.5271 N.am      21 UNK        -0.5000 
    115 CA        -7.5735  -19.6768  -54.8099 C.3       21 UNK         0.1400 
    116 CB        -8.0830  -20.5883  -55.9363 C.3       21 UNK        -0.1800 
    117 C         -6.0374  -19.6220  -54.7810 C.2       21 UNK         0.5000 
    118 O         -5.3897  -20.6372  -54.5203 O.2       21 UNK        -0.5000 
    119 N         -5.4825  -18.4392  -55.0630 N.am      22 UNK        -0.5000 
    120 CA        -4.0330  -18.1831  -55.1008 C.3       22 UNK         0.1400 
    121 C         -3.3233  -18.6649  -56.4039 C.2       22 UNK         0.5000 
    122 N         -4.0429  -19.0869  -57.4369 N.am      22 UNK        -0.7600 
    123 O         -2.0983  -18.6729  -56.4780 O.2       22 UNK        -0.5000 
    124 C124       -3.7376  -16.6921  -54.7808 C.3       23 UNK        -0.0398 
    125 S125       -2.1633  -16.4425  -53.8962 S.3       23 UNK        -0.2404 
    126 C126       -2.6984  -16.7183  -52.1796 C.3       23 UNK        -0.0205 
    127 H127        5.9574  -15.7639  -50.7483 H         1 UNK         0.0600 
    128 H128        4.6848  -14.7039  -51.3621 H         1 UNK         0.0600 
    129 H129        4.4117  -16.4455  -51.2674 H         1 UNK         0.0600 
    130 H130        3.6060  -13.6075  -49.7468 H         1 UNK         0.3000 
    131 H131        2.5353  -14.9034  -47.4346 H         1 UNK         0.0600 
    132 H132        2.6707  -11.8953  -47.9375 H         1 UNK         0.0800 
    133 H133        1.5787  -12.7253  -46.8634 H         1 UNK         0.0800 
    134 H134        0.0513  -14.5209  -47.5532 H         1 UNK         0.0800 
    135 H135       -1.2354  -13.7123  -48.4101 H         1 UNK         0.0800 
    136 H136       -2.1521  -14.6851  -50.4386 H         1 UNK         0.1150 
    137 H137       -0.6569  -18.4689  -51.7902 H         1 UNK         0.1150 
    138 H138        1.4149  -16.3292  -48.7181 H         1 UNK         0.1150 
    139 H139        1.5085  -19.2421  -51.0672 H         1 UNK         0.0800 
    140 H140        2.5488  -18.1273  -50.2159 H         1 UNK         0.0800 
    141 H141       -0.9770  -19.7696  -48.9426 H         1 UNK         0.0800 
    142 H142       -0.1187  -20.8527  -50.0153 H         1 UNK         0.0800 
    143 H143        0.5820  -22.2292  -48.0058 H         1 UNK         0.0600 
    144 H144       -0.6802  -20.1531  -46.4965 H         1 UNK         0.3000 
    145 H145       -0.8823  -21.9918  -43.4348 H         1 UNK         0.0600 
    146 H146        0.4165  -20.0364  -42.6921 H         1 UNK         0.0600 
    147 H147        1.4454  -21.0799  -43.6541 H         1 UNK         0.0600 
    148 H148        0.8041  -19.6011  -44.3568 H         1 UNK         0.0600 
    149 H149       -1.6363  -19.3297  -44.2994 H         1 UNK         0.3000 
    150 H150       -4.9363  -20.1320  -45.2943 H         1 UNK         0.0600 
    151 H151       -5.2967  -20.1213  -42.8642 H         1 UNK         0.0600 
    152 H152       -5.5920  -18.5130  -43.5073 H         1 UNK         0.0600 
    153 H153       -4.0965  -18.8599  -42.6415 H         1 UNK         0.0600 
    154 H154       -3.5823  -17.6455  -44.8387 H         1 UNK         0.3000 
    155 H155       -1.9500  -17.4576  -47.9808 H         1 UNK         0.0600 
    156 H156       -4.7210  -16.2825  -47.3859 H         1 UNK         0.0600 
    157 H157       -4.2524  -17.1579  -48.8395 H         1 UNK         0.0600 
    158 H158       -3.5466  -15.5865  -48.4983 H         1 UNK         0.0600 
    159 H159       -2.6876  -15.3979  -46.1762 H         1 UNK         0.3000 
    160 H160        0.3660  -15.1700  -44.7460 H         1 UNK         0.0600 
    161 H161       -2.5195  -14.1348  -44.5464 H         1 UNK         0.0600 
    162 H162       -1.3447  -13.6509  -45.7698 H         1 UNK         0.0600 
    163 H163       -1.0620  -13.2694  -44.0849 H         1 UNK         0.0600 
    164 H164        0.0172  -15.6466  -42.6046 H         1 UNK         0.3000 
    165 H165       -2.6976  -16.5290  -40.5974 H         1 UNK         0.0600 
    166 H166       -0.3416  -18.3593  -41.2935 H         1 UNK         0.0600 
    167 H167       -1.3589  -18.4593  -39.8590 H         1 UNK         0.0600 
    168 H168       -2.0333  -18.8197  -41.4393 H         1 UNK         0.0600 
    169 H169        0.1685  -16.2902  -40.2104 H         1 UNK         0.3000 
    170 H170        0.2326  -12.7920  -39.7079 H         1 UNK         0.0600 
    171 H171       -0.5617  -13.6251  -37.4925 H         1 UNK         0.0600 
    172 H172        0.4764  -15.0386  -37.6340 H         1 UNK         0.0600 
    173 H173        1.1832  -13.4273  -37.5065 H         1 UNK         0.0600 
    174 H174        2.1997  -14.8472  -39.3983 H         1 UNK         0.3000 
    175 H175        3.8653  -15.0927  -40.8085 H         1 UNK         0.0600 
    176 H176        2.5204  -16.7082  -42.1498 H         1 UNK         0.0600 
    177 H177        2.6050  -15.6464  -43.5505 H         1 UNK         0.0600 
    178 H178        4.0686  -16.3954  -42.9192 H         1 UNK         0.0600 
    179 H179        4.2066  -13.7905  -43.3834 H         1 UNK         0.3000 
    180 H180        4.9745  -10.9751  -42.9075 H         1 UNK         0.0600 
    181 H181        7.4007  -10.4836  -42.4732 H         1 UNK         0.0600 
    182 H182        6.4854  -10.5855  -40.9794 H         1 UNK         0.0600 
    183 H183        7.5132  -11.9289  -41.4697 H         1 UNK         0.0600 
    184 H184        6.4504  -13.4333  -43.6350 H         1 UNK         0.3000 
    185 H185        7.2254  -12.4935  -46.7861 H         1 UNK         0.0600 
    186 H186        7.4755  -14.9346  -46.4931 H         1 UNK         0.0600 
    187 H187        8.0440  -14.1063  -45.0571 H         1 UNK         0.0600 
    188 H188        6.4760  -14.9168  -45.0490 H         1 UNK         0.0600 
    189 H189        5.4746  -13.1394  -47.9956 H         1 UNK         0.3000 
    190 H190       -2.8493  -21.3895  -47.4517 H         1 UNK         0.3000 
    191 H191       -3.9931  -23.3256  -49.1793 H         1 UNK         0.0600 
    192 H192       -6.0268  -22.9814  -47.7963 H         1 UNK         0.0600 
    193 H193       -5.2558  -21.4380  -48.1353 H         1 UNK         0.0600 
    194 H194       -5.0836  -22.1844  -46.5499 H         1 UNK         0.0600 
    195 H195       -3.0779  -23.5386  -45.7011 H         1 UNK         0.3000 
    196 H196       -3.8586  -26.2396  -45.3039 H         1 UNK         0.0600 
    197 H197       -2.4612  -26.0482  -43.2395 H         1 UNK         0.0600 
    198 H198       -3.5012  -24.6468  -43.4444 H         1 UNK         0.0600 
    199 H199       -1.7851  -24.5332  -43.8263 H         1 UNK         0.0600 
    200 H200       -0.7319  -24.8156  -46.3093 H         1 UNK         0.3000 
    201 H201        0.7035  -27.3051  -46.4556 H         1 UNK         0.0600 
    202 H202        1.2593  -24.5753  -47.7372 H         1 UNK         0.0600 
    203 H203        2.4197  -25.8873  -47.5775 H         1 UNK         0.0600 
    204 H204        1.8028  -25.0885  -46.1403 H         1 UNK         0.0600 
    205 H205       -1.6675  -25.9649  -48.5089 H         1 UNK         0.3000 
    206 H206       -2.5119  -26.3494  -50.4918 H         1 UNK         0.0600 
    207 H207       -2.3959  -28.7839  -49.8923 H         1 UNK         0.0600 
    208 H208       -2.2729  -28.5083  -51.6217 H         1 UNK         0.0600 
    209 H209       -0.8310  -28.9006  -50.6981 H         1 UNK         0.0600 
    210 H210       -0.1742  -24.7232  -50.1692 H         1 UNK         0.3000 
    211 H211        1.2677  -24.7596  -52.7487 H         1 UNK         0.0600 
    212 H212        1.3104  -22.7926  -50.3936 H         1 UNK         0.0600 
    213 H213        2.3328  -22.6934  -51.8213 H         1 UNK         0.0600 
    214 H214        2.4992  -24.0501  -50.7165 H         1 UNK         0.0600 
    215 H215       -1.4243  -23.2075  -51.0970 H         1 UNK         0.3000 
    216 H216       -2.2844  -21.7964  -53.5901 H         1 UNK         0.0600 
    217 H217       -3.9077  -20.6449  -52.1086 H         1 UNK         0.0600 
    218 H218       -2.2767  -20.3546  -51.5243 H         1 UNK         0.0600 
    219 H219       -3.3162  -21.5201  -50.7073 H         1 UNK         0.0600 
    220 H220       -4.4436  -22.3410  -54.2972 H         1 UNK         0.3000 
    221 H221       -5.2167  -25.1627  -53.8252 H         1 UNK         0.0600 
    222 H222       -6.0254  -23.0858  -55.9242 H         1 UNK         0.0600 
    223 H223       -4.9818  -24.4810  -56.1623 H         1 UNK         0.0600 
    224 H224       -6.6897  -24.7141  -55.8216 H         1 UNK         0.0600 
    225 H225       -5.6534  -24.3577  -51.5970 H         1 UNK         0.3000 
    226 H226       -6.9272  -23.8113  -49.8696 H         1 UNK         0.0600 
    227 H227       -8.6787  -25.3078  -50.7712 H         1 UNK         0.0600 
    228 H228       -9.4115  -23.9205  -49.9895 H         1 UNK         0.0600 
    229 H229       -9.3528  -24.0120  -51.7479 H         1 UNK         0.0600 
    230 H230       -9.4476  -22.0058  -51.2789 H         1 UNK         0.3000 
    231 H231       -8.3764  -19.4882  -50.3356 H         1 UNK         0.0600 
    232 H232      -10.5765  -18.6144  -51.1202 H         1 UNK         0.0600 
    233 H233      -10.7851  -20.0570  -50.1411 H         1 UNK         0.0600 
    234 H234      -10.9295  -20.1531  -51.8970 H         1 UNK         0.0600 
    235 H235       -8.2269  -21.1421  -53.4295 H         1 UNK         0.3000 
    236 H236       -7.9595  -18.6745  -55.0090 H         1 UNK         0.0600 
    237 H237       -7.7885  -21.6252  -55.7850 H         1 UNK         0.0600 
    238 H238       -9.1708  -20.5598  -56.0011 H         1 UNK         0.0600 
    239 H239       -7.6909  -20.2728  -56.9038 H         1 UNK         0.0600 
    240 H240       -6.0801  -17.6544  -55.2789 H         1 UNK         0.3000 
    241 H241       -3.5959  -18.7835  -54.3003 H         1 UNK         0.0600 
    242 H242       -5.0489  -19.0940  -57.3956 H         1 UNK         0.3800 
    243 H243       -3.5732  -19.4027  -58.2711 H         1 UNK         0.3800 
    244 H244       -4.5281  -16.2687  -54.1590 H         1 UNK         0.0800 
    245 H245       -3.7329  -16.0885  -55.6901 H         1 UNK         0.0800 
    246 H246       -3.4840  -16.0055  -51.9242 H         1 UNK         0.0800 
    247 H247       -3.1391  -17.7121  -52.0863 H         1 UNK         0.0800 
@<TRIPOS>BOND
     1    1    2 1    
     2    1  127 1    
     3    1  128 1    
     4    1  129 1    
     5    2    3 2    
     6    2    4 am   BACKBONE|DICT|INTERRES
     7    4    5 1    
     8    4  130 1    
     9    5    6 1    
    10    5   65 1    
    11    5  131 1    
    12    6    7 1    
    13    6  132 1    
    14    6  133 1    
    15    7    8 1    
    16    8    9 1    
    17    8  134 1    
    18    8  135 1    
    19    9   10 ar   
    20    9   14 ar   
    21   10   11 ar   
    22   10  136 1    
    23   11   12 ar   
    24   11  126 1    
    25   12   13 ar   
    26   12  137 1    
    27   13   14 ar   
    28   13   15 1    
    29   14  138 1    
    30   15   16 1    
    31   15  139 1    
    32   15  140 1    
    33   16   17 1    
    34   17   18 1    
    35   17  141 1    
    36   17  142 1    
    37   18   19 1    
    38   18   67 1    
    39   18  143 1    
    40   19   20 am   BACKBONE|DICT|INTERRES
    41   19  144 1    
    42   20   21 2    
    43   20   22 1    
    44   22   23 1    
    45   22   24 1    
    46   22  145 1    
    47   23  146 1    
    48   23  147 1    
    49   23  148 1    
    50   24   25 am   BACKBONE|DICT|INTERRES
    51   24  149 1    
    52   25   26 2    
    53   25   27 1    
    54   27   28 1    
    55   27   29 1    
    56   27  150 1    
    57   28  151 1    
    58   28  152 1    
    59   28  153 1    
    60   29   30 am   BACKBONE|DICT|INTERRES
    61   29  154 1    
    62   30   31 2    
    63   30   32 1    
    64   32   33 1    
    65   32   34 1    
    66   32  155 1    
    67   33  156 1    
    68   33  157 1    
    69   33  158 1    
    70   34   35 am   BACKBONE|DICT|INTERRES
    71   34  159 1    
    72   35   36 2    
    73   35   37 1    
    74   37   38 1    
    75   37   39 1    
    76   37  160 1    
    77   38  161 1    
    78   38  162 1    
    79   38  163 1    
    80   39   40 am   BACKBONE|DICT|INTERRES
    81   39  164 1    
    82   40   41 2    
    83   40   42 1    
    84   42   43 1    
    85   42   44 1    
    86   42  165 1    
    87   43  166 1    
    88   43  167 1    
    89   43  168 1    
    90   44   45 am   BACKBONE|DICT|INTERRES
    91   44  169 1    
    92   45   46 2    
    93   45   47 1    
    94   47   48 1    
    95   47   49 1    
    96   47  170 1    
    97   48  171 1    
    98   48  172 1    
    99   48  173 1    
   100   49   50 am   BACKBONE|DICT|INTERRES
   101   49  174 1    
   102   50   51 2    
   103   50   52 1    
   104   52   53 1    
   105   52   54 1    
   106   52  175 1    
   107   53  176 1    
   108   53  177 1    
   109   53  178 1    
   110   54   55 am   BACKBONE|DICT|INTERRES
   111   54  179 1    
   112   55   56 2    
   113   55   57 1    
   114   57   58 1    
   115   57   59 1    
   116   57  180 1    
   117   58  181 1    
   118   58  182 1    
   119   58  183 1    
   120   59   60 am   BACKBONE|DICT|INTERRES
   121   59  184 1    
   122   60   61 2    
   123   60   62 1    
   124   62   63 1    
   125   62   64 1    
   126   62  185 1    
   127   63  186 1    
   128   63  187 1    
   129   63  188 1    
   130   64   65 am   BACKBONE|DICT|INTERRES
   131   64  189 1    
   132   65   66 2    
   133   67   68 2    
   134   67   69 am   BACKBONE|DICT|INTERRES
   135   69   70 1    
   136   69  190 1    
   137   70   71 1    
   138   70   72 1    
   139   70  191 1    
   140   71  192 1    
   141   71  193 1    
   142   71  194 1    
   143   72   73 2    
   144   72   74 am   BACKBONE|DICT|INTERRES
   145   74   75 1    
   146   74  195 1    
   147   75   76 1    
   148   75   77 1    
   149   75  196 1    
   150   76  197 1    
   151   76  198 1    
   152   76  199 1    
   153   77   78 2    
   154   77   79 am   BACKBONE|DICT|INTERRES
   155   79   80 1    
   156   79  200 1    
   157   80   81 1    
   158   80   82 1    
   159   80  201 1    
   160   81  202 1    
   161   81  203 1    
   162   81  204 1    
   163   82   83 2    
   164   82   84 am   BACKBONE|DICT|INTERRES
   165   84   85 1    
   166   84  205 1    
   167   85   86 1    
   168   85   87 1    
   169   85  206 1    
   170   86  207 1    
   171   86  208 1    
   172   86  209 1    
   173   87   88 2    
   174   87   89 am   BACKBONE|DICT|INTERRES
   175   89   90 1    
   176   89  210 1    
   177   90   91 1    
   178   90   92 1    
   179   90  211 1    
   180   91  212 1    
   181   91  213 1    
   182   91  214 1    
   183   92   93 2    
   184   92   94 am   BACKBONE|DICT|INTERRES
   185   94   95 1    
   186   94  215 1    
   187   95   96 1    
   188   95   97 1    
   189   95  216 1    
   190   96  217 1    
   191   96  218 1    
   192   96  219 1    
   193   97   98 2    
   194   97   99 am   BACKBONE|DICT|INTERRES
   195   99  100 1    
   196   99  220 1    
   197  100  101 1    
   198  100  102 1    
   199  100  221 1    
   200  101  222 1    
   201  101  223 1    
   202  101  224 1    
   203  102  103 2    
   204  102  104 am   BACKBONE|DICT|INTERRES
   205  104  105 1    
   206  104  225 1    
   207  105  106 1    
   208  105  107 1    
   209  105  226 1    
   210  106  227 1    
   211  106  228 1    
   212  106  229 1    
   213  107  108 2    
   214  107  109 am   BACKBONE|DICT|INTERRES
   215  109  110 1    
   216  109  230 1    
   217  110  111 1    
   218  110  112 1    
   219  110  231 1    
   220  111  232 1    
   221  111  233 1    
   222  111  234 1    
   223  112  113 2    
   224  112  114 am   BACKBONE|DICT|INTERRES
   225  114  115 1    
   226  114  235 1    
   227  115  116 1    
   228  115  117 1    
   229  115  236 1    
   230  116  237 1    
   231  116  238 1    
   232  116  239 1    
   233  117  118 2    
   234  117  119 am   BACKBONE|DICT|INTERRES
   235  119  120 1    
   236  119  240 1    
   237  120  121 1    
   238  120  124 1    
   239  120  241 1    
   240  121  122 am   BACKBONE|DICT|INTERRES
   241  121  123 2    
   242  122  242 1    
   243  122  243 1    
   244  124  125 1    
   245  124  244 1    
   246  124  245 1    
   247  125  126 1    
   248  126  246 1    
   249  126  247 1    
@<TRIPOS>SUBSTRUCTURE
     1 UNK         1 GROUP             0       ****    0 ROOT    
