@<TRIPOS>MOLECULE
3R540
247   249    1
SMALL
USER_CHARGES


@<TRIPOS>ATOM
      1 CA         -3.5445  -15.5009  -46.1858 C.3       0 UNK        -0.1800 
      2 C          -3.1258  -14.0364  -46.1937 C.2       0 UNK         0.5000 
      3 O          -3.6756  -13.2369  -45.4362 O.2       0 UNK        -0.5000 
      4 N          -2.1624  -13.6836  -47.0534 N.am      1 UNK        -0.5000 
      5 CA         -1.5451  -12.3584  -47.1544 C.3       1 UNK         0.1400 
      6 C6         -0.6991  -12.1826  -48.4474 C.3       23 UNK        -0.0398 
      7 S7          0.2528  -13.6555  -48.9795 S.3       23 UNK        -0.2404 
      8 C8         -0.8376  -14.2590  -50.3089 C.3       23 UNK        -0.0205 
      9 C9         -0.3660  -15.5758  -50.9089 C.ar      23 UNK        -0.0193 
     10 C10         0.1624  -15.6147  -52.2034 C.ar      23 UNK        -0.1150 
     11 C11         0.5293  -16.8308  -52.7893 C.ar      23 UNK        -0.0193 
     12 C12         0.3767  -18.0119  -52.0559 C.ar      23 UNK        -0.1150 
     13 C13        -0.1576  -17.9909  -50.7669 C.ar      23 UNK        -0.0193 
     14 C14        -0.5209  -16.7675  -50.1952 C.ar      23 UNK        -0.1150 
     15 C15        -0.4566  -19.2891  -50.0340 C.3       23 UNK        -0.0205 
     16 S16         0.9574  -20.4352  -49.9105 S.3       23 UNK        -0.2404 
     17 C17         0.8349  -20.9402  -48.1575 C.3       23 UNK        -0.0398 
     18 CA         -0.1559  -22.0748  -47.7610 C.3       11 UNK         0.1400 
     19 N          -0.3609  -22.0558  -46.3099 N.am      11 UNK        -0.5000 
     20 C          -1.0841  -22.9260  -45.5961 C.2       10 UNK         0.5000 
     21 O          -1.6369  -23.9149  -46.0747 O.2       10 UNK        -0.5000 
     22 CA         -1.2739  -22.5929  -44.1046 C.3       10 UNK         0.1400 
     23 CB         -0.0294  -22.9713  -43.2884 C.3       10 UNK        -0.1800 
     24 N          -1.5981  -21.1805  -43.8881 N.am      10 UNK        -0.5000 
     25 C          -2.7213  -20.5928  -44.3262 C.2       9 UNK         0.5000 
     26 O          -3.6109  -21.1898  -44.9314 O.2       9 UNK        -0.5000 
     27 CA         -2.8515  -19.0764  -44.0987 C.3       9 UNK         0.1400 
     28 CB         -3.2492  -18.7735  -42.6469 C.3       9 UNK        -0.1800 
     29 N          -1.6276  -18.3518  -44.4410 N.am      9 UNK        -0.5000 
     30 C          -1.1036  -18.3003  -45.6735 C.2       8 UNK         0.5000 
     31 O          -1.6344  -18.8097  -46.6574 O.2       8 UNK        -0.5000 
     32 CA          0.2630  -17.6139  -45.8332 C.3       8 UNK         0.1400 
     33 CB          0.1044  -16.0965  -45.9679 C.3       8 UNK        -0.1800 
     34 N           1.1758  -17.9181  -44.7363 N.am      8 UNK        -0.5000 
     35 C           1.6349  -19.1364  -44.4222 C.2       7 UNK         0.5000 
     36 O           1.3469  -20.1602  -45.0404 O.2       7 UNK        -0.5000 
     37 CA          2.5341  -19.2274  -43.1805 C.3       7 UNK         0.1400 
     38 CB          3.9787  -18.8307  -43.5198 C.3       7 UNK        -0.1800 
     39 N           2.0333  -18.3821  -42.0983 N.am      7 UNK        -0.5000 
     40 C           0.9586  -18.6719  -41.3536 C.2       6 UNK         0.5000 
     41 O           0.2997  -19.7059  -41.4752 O.2       6 UNK        -0.5000 
     42 CA          0.5367  -17.6130  -40.3178 C.3       6 UNK         0.1400 
     43 CB          1.3742  -17.7432  -39.0367 C.3       6 UNK        -0.1800 
     44 N           0.6329  -16.2409  -40.8238 N.am      6 UNK        -0.5000 
     45 C          -0.1478  -15.7451  -41.7932 C.2       5 UNK         0.5000 
     46 O          -1.0042  -16.4035  -42.3819 O.2       5 UNK        -0.5000 
     47 CA          0.0723  -14.2725  -42.1887 C.3       5 UNK         0.1400 
     48 CB         -0.5411  -13.3436  -41.1292 C.3       5 UNK        -0.1800 
     49 N           1.4600  -13.8610  -42.4409 N.am      5 UNK        -0.5000 
     50 C           2.3967  -14.5325  -43.1280 C.2       4 UNK         0.5000 
     51 O           2.2878  -15.7040  -43.4847 O.2       4 UNK        -0.5000 
     52 CA          3.6448  -13.7313  -43.5236 C.3       4 UNK         0.1400 
     53 CB          4.6212  -14.5261  -44.4142 C.3       4 UNK        -0.1800 
     54 N           3.2128  -12.5179  -44.2103 N.am      4 UNK        -0.5000 
     55 C           3.8970  -11.3689  -44.2523 C.2       3 UNK         0.5000 
     56 O           5.0135  -11.2195  -43.7538 O.2       3 UNK        -0.5000 
     57 CA          3.2175  -10.1738  -44.9530 C.3       3 UNK         0.1400 
     58 CB          3.6956  -10.0662  -46.4092 C.3       3 UNK        -0.1800 
     59 N           1.7523  -10.2199  -44.9402 N.am      3 UNK        -0.5000 
     60 C           0.9801  -10.2296  -43.8446 C.2       2 UNK         0.5000 
     61 O           1.4233  -10.1944  -42.6962 O.2       2 UNK        -0.5000 
     62 CA         -0.5449  -10.3017  -44.0544 C.3       2 UNK         0.1400 
     63 CB         -1.1828   -8.9276  -43.7972 C.3       2 UNK        -0.1800 
     64 N          -0.9856  -10.7853  -45.3670 N.am      2 UNK        -0.5000 
     65 C          -0.7583  -12.0055  -45.8733 C.2       1 UNK         0.5000 
     66 O           0.0156  -12.8238  -45.3725 O.2       1 UNK        -0.5000 
     67 C          -1.5023  -22.0472  -48.5257 C.2       11 UNK         0.5000 
     68 O          -1.6881  -22.8196  -49.4639 O.2       11 UNK        -0.5000 
     69 N          -2.4196  -21.1653  -48.1060 N.am      12 UNK        -0.5000 
     70 CA         -3.7061  -20.9624  -48.7602 C.3       12 UNK         0.1400 
     71 CB         -4.2592  -19.5790  -48.3847 C.3       12 UNK        -0.1800 
     72 C          -4.7369  -22.0607  -48.4520 C.2       12 UNK         0.5000 
     73 O          -5.4382  -22.4834  -49.3728 O.2       12 UNK        -0.5000 
     74 N          -4.8562  -22.4575  -47.1780 N.am      13 UNK        -0.5000 
     75 CA         -5.9580  -23.2943  -46.7005 C.3       13 UNK         0.1400 
     76 CB         -6.5019  -22.7073  -45.3878 C.3       13 UNK        -0.1800 
     77 C          -5.5765  -24.7681  -46.4947 C.2       13 UNK         0.5000 
     78 O          -6.3953  -25.6376  -46.7975 O.2       13 UNK        -0.5000 
     79 N          -4.3850  -25.0359  -45.9436 N.am      14 UNK        -0.5000 
     80 CA         -3.9775  -26.3820  -45.5323 C.3       14 UNK         0.1400 
     81 CB         -3.1293  -26.3067  -44.2512 C.3       14 UNK        -0.1800 
     82 C          -3.2311  -27.1241  -46.6504 C.2       14 UNK         0.5000 
     83 O          -3.5287  -28.2921  -46.9063 O.2       14 UNK        -0.5000 
     84 N          -2.2751  -26.4428  -47.2926 N.am      15 UNK        -0.5000 
     85 CA         -1.4955  -26.9754  -48.4076 C.3       15 UNK         0.1400 
     86 CB         -0.2313  -26.1232  -48.5924 C.3       15 UNK        -0.1800 
     87 C          -2.3197  -27.0085  -49.7069 C.2       15 UNK         0.5000 
     88 O          -3.1227  -26.1060  -49.9513 O.2       15 UNK        -0.5000 
     89 N          -2.0864  -28.0402  -50.5280 N.am      16 UNK        -0.5000 
     90 CA         -2.6771  -28.1720  -51.8619 C.3       16 UNK         0.1400 
     91 CB         -2.6815  -29.6529  -52.2712 C.3       16 UNK        -0.1800 
     92 C          -1.9273  -27.3243  -52.9061 C.2       16 UNK         0.5000 
     93 O          -2.5502  -26.7987  -53.8295 O.2       16 UNK        -0.5000 
     94 N          -0.6039  -27.1989  -52.7385 N.am      17 UNK        -0.5000 
     95 CA          0.2569  -26.3508  -53.5572 C.3       17 UNK         0.1400 
     96 CB          1.7222  -26.7658  -53.3505 C.3       17 UNK        -0.1800 
     97 C           0.0441  -24.8738  -53.1883 C.2       17 UNK         0.5000 
     98 O           0.1686  -24.5258  -52.0133 O.2       17 UNK        -0.5000 
     99 N          -0.2723  -24.0501  -54.1978 N.am      18 UNK        -0.5000 
    100 CA        -0.5532  -22.6103  -54.1059 C.3       18 UNK         0.1400 
    101 CB         0.6987  -21.8381  -53.6471 C.3       18 UNK        -0.1800 
    102 C         -1.8097  -22.2671  -53.2726 C.2       18 UNK         0.5000 
    103 O         -1.9098  -21.1610  -52.7341 O.2       18 UNK        -0.5000 
    104 N         -2.7604  -23.2123  -53.2167 N.am      19 UNK        -0.5000 
    105 CA        -4.0293  -23.1132  -52.4955 C.3       19 UNK         0.1400 
    106 CB        -4.8162  -24.4179  -52.6876 C.3       19 UNK        -0.1800 
    107 C         -4.8885  -21.9088  -52.9254 C.2       19 UNK         0.5000 
    108 O         -4.7770  -21.4357  -54.0601 O.2       19 UNK        -0.5000 
    109 N         -5.7298  -21.4383  -51.9952 N.am      20 UNK        -0.5000 
    110 CA        -6.6131  -20.2710  -52.1134 C.3       20 UNK         0.1400 
    111 CB        -7.7078  -20.5145  -53.1734 C.3       20 UNK        -0.1800 
    112 C         -5.8459  -18.9474  -52.3318 C.2       20 UNK         0.5000 
    113 O         -6.3819  -18.0205  -52.9401 O.2       20 UNK        -0.5000 
    114 N         -4.6085  -18.8969  -51.8146 N.am      21 UNK        -0.5000 
    115 CA        -3.6319  -17.8124  -51.9232 C.3       21 UNK         0.1400 
    116 CB        -4.1284  -16.5360  -51.2119 C.3       21 UNK        -0.1800 
    117 C         -3.1991  -17.5818  -53.3833 C.2       21 UNK         0.5000 
    118 O         -3.4332  -16.5050  -53.9359 O.2       21 UNK        -0.5000 
    119 N         -2.6039  -18.6233  -53.9836 N.am      22 UNK        -0.5000 
    120 CA        -2.2352  -18.6951  -55.4075 C.3       22 UNK         0.1400 
    121 C         -3.4778  -18.6442  -56.3496 C.2       22 UNK         0.5000 
    122 N         -4.5339  -19.3935  -56.0567 N.am      22 UNK        -0.7600 
    123 O         -3.4955  -17.9398  -57.3562 O.2       22 UNK        -0.5000 
    124 C124       -1.1013  -17.7000  -55.8055 C.3       23 UNK        -0.0398 
    125 S125        0.5437  -18.2433  -55.2322 S.3       23 UNK        -0.2404 
    126 C126        1.1147  -16.8491  -54.1985 C.3       23 UNK        -0.0205 
    127 H127       -4.6205  -15.5861  -46.3368 H         1 UNK         0.0600 
    128 H128       -3.2974  -15.9541  -45.2257 H         1 UNK         0.0600 
    129 H129       -3.0477  -16.0721  -46.9707 H         1 UNK         0.0600 
    130 H130       -1.7208  -14.3894  -47.6229 H         1 UNK         0.3000 
    131 H131       -2.3703  -11.6458  -47.2242 H         1 UNK         0.0600 
    132 H132       -0.0062  -11.3445  -48.3526 H         1 UNK         0.0800 
    133 H133       -1.3654  -11.8948  -49.2616 H         1 UNK         0.0800 
    134 H134       -0.9079  -13.4949  -51.0848 H         1 UNK         0.0800 
    135 H135       -1.8475  -14.3883  -49.9179 H         1 UNK         0.0800 
    136 H136        0.2764  -14.6961  -52.7617 H         1 UNK         0.1150 
    137 H137        0.6512  -18.9584  -52.4942 H         1 UNK         0.1150 
    138 H138       -0.9585  -16.7430  -49.2071 H         1 UNK         0.1150 
    139 H139       -0.8409  -19.0599  -49.0429 H         1 UNK         0.0800 
    140 H140       -1.2625  -19.8045  -50.5554 H         1 UNK         0.0800 
    141 H141        0.6055  -20.0421  -47.5904 H         1 UNK         0.0800 
    142 H142        1.8367  -21.2232  -47.8318 H         1 UNK         0.0800 
    143 H143        0.3215  -23.0255  -48.0041 H         1 UNK         0.0600 
    144 H144        0.0939  -21.2954  -45.8096 H         1 UNK         0.3000 
    145 H145       -2.1124  -23.1880  -43.7367 H         1 UNK         0.0600 
    146 H146       -0.1886  -22.7950  -42.2244 H         1 UNK         0.0600 
    147 H147        0.2101  -24.0283  -43.4115 H         1 UNK         0.0600 
    148 H148        0.8464  -22.3981  -43.5931 H         1 UNK         0.0600 
    149 H149       -0.9092  -20.6198  -43.4039 H         1 UNK         0.3000 
    150 H150       -3.6481  -18.7121  -44.7509 H         1 UNK         0.0600 
    151 H151       -4.1506  -19.3191  -42.3653 H         1 UNK         0.0600 
    152 H152       -3.4568  -17.7120  -42.5110 H         1 UNK         0.0600 
    153 H153       -2.4612  -19.0520  -41.9462 H         1 UNK         0.0600 
    154 H154       -1.1708  -17.8458  -43.6877 H         1 UNK         0.3000 
    155 H155        0.7226  -17.9751  -46.7535 H         1 UNK         0.0600 
    156 H156       -0.3926  -15.6600  -45.1012 H         1 UNK         0.0600 
    157 H157       -0.4859  -15.8550  -46.8498 H         1 UNK         0.0600 
    158 H158        1.0693  -15.6023  -46.0835 H         1 UNK         0.0600 
    159 H159        1.5011  -17.1237  -44.1866 H         1 UNK         0.3000 
    160 H160        2.5370  -20.2657  -42.8414 H         1 UNK         0.0600 
    161 H161        4.0444  -17.7997  -43.8684 H         1 UNK         0.0600 
    162 H162        4.3822  -19.4689  -44.3070 H         1 UNK         0.0600 
    163 H163        4.6299  -18.9335  -42.6517 H         1 UNK         0.0600 
    164 H164        2.4584  -17.4701  -42.0018 H         1 UNK         0.3000 
    165 H165       -0.5073  -17.8042  -40.0600 H         1 UNK         0.0600 
    166 H166        1.0233  -17.0577  -38.2651 H         1 UNK         0.0600 
    167 H167        1.3076  -18.7524  -38.6280 H         1 UNK         0.0600 
    168 H168        2.4284  -17.5320  -39.2201 H         1 UNK         0.0600 
    169 H169        1.3267  -15.6402  -40.4034 H         1 UNK         0.3000 
    170 H170       -0.4715  -14.1144  -43.1210 H         1 UNK         0.0600 
    171 H171       -1.5936  -13.5787  -40.9646 H         1 UNK         0.0600 
    172 H172       -0.0298  -13.4352  -40.1702 H         1 UNK         0.0600 
    173 H173       -0.4864  -12.2992  -41.4329 H         1 UNK         0.0600 
    174 H174        1.6739  -12.9046  -42.1952 H         1 UNK         0.3000 
    175 H175        4.1561  -13.4637  -42.5967 H         1 UNK         0.0600 
    176 H176        4.1519  -14.8286  -45.3512 H         1 UNK         0.0600 
    177 H177        5.5060  -13.9382  -44.6575 H         1 UNK         0.0600 
    178 H178        4.9637  -15.4297  -43.9089 H         1 UNK         0.0600 
    179 H179        2.2912  -12.5550  -44.6314 H         1 UNK         0.3000 
    180 H180        3.5235   -9.2695  -44.4232 H         1 UNK         0.0600 
    181 H181        3.3881  -10.9318  -46.9977 H         1 UNK         0.0600 
    182 H182        4.7835  -10.0042  -46.4604 H         1 UNK         0.0600 
    183 H183        3.2981   -9.1728  -46.8912 H         1 UNK         0.0600 
    184 H184        1.2944  -10.2597  -45.8382 H         1 UNK         0.3000 
    185 H185       -0.9356  -10.9980  -43.3113 H         1 UNK         0.0600 
    186 H186       -0.9110   -8.5463  -42.8119 H         1 UNK         0.0600 
    187 H187       -0.8605   -8.1911  -44.5344 H         1 UNK         0.0600 
    188 H188       -2.2711   -8.9841  -43.8306 H         1 UNK         0.0600 
    189 H189       -1.6219  -10.1746  -45.8592 H         1 UNK         0.3000 
    190 H190       -2.1857  -20.5243  -47.3531 H         1 UNK         0.3000 
    191 H191       -3.5372  -20.9664  -49.8388 H         1 UNK         0.0600 
    192 H192       -4.4010  -19.4821  -47.3075 H         1 UNK         0.0600 
    193 H193       -5.2230  -19.3960  -48.8612 H         1 UNK         0.0600 
    194 H194       -3.5832  -18.7850  -48.7031 H         1 UNK         0.0600 
    195 H195       -4.2631  -22.0366  -46.4661 H         1 UNK         0.3000 
    196 H196       -6.7796  -23.2717  -47.4199 H         1 UNK         0.0600 
    197 H197       -7.3756  -23.2629  -45.0448 H         1 UNK         0.0600 
    198 H198       -6.8066  -21.6685  -45.5160 H         1 UNK         0.0600 
    199 H199       -5.7597  -22.7424  -44.5896 H         1 UNK         0.0600 
    200 H200       -3.7130  -24.2918  -45.8048 H         1 UNK         0.3000 
    201 H201       -4.8653  -26.9688  -45.2857 H         1 UNK         0.0600 
    202 H202       -3.6587  -25.7784  -43.4581 H         1 UNK         0.0600 
    203 H203       -2.1775  -25.8025  -44.4125 H         1 UNK         0.0600 
    204 H204       -2.9040  -27.3071  -43.8800 H         1 UNK         0.0600 
    205 H205       -2.0941  -25.4800  -47.0207 H         1 UNK         0.3000 
    206 H206       -1.1868  -27.9923  -48.1559 H         1 UNK         0.0600 
    207 H207       -0.4791  -25.1074  -48.8977 H         1 UNK         0.0600 
    208 H208        0.3494  -26.0660  -47.6716 H         1 UNK         0.0600 
    209 H209        0.4152  -26.5435  -49.3636 H         1 UNK         0.0600 
    210 H210       -1.4333  -28.7577  -50.2478 H         1 UNK         0.3000 
    211 H211       -3.7133  -27.8276  -51.8314 H         1 UNK         0.0600 
    212 H212       -1.6721  -30.0638  -52.3167 H         1 UNK         0.0600 
    213 H213       -3.1336  -29.7835  -53.2553 H         1 UNK         0.0600 
    214 H214       -3.2578  -30.2541  -51.5677 H         1 UNK         0.0600 
    215 H215       -0.1771  -27.6244  -51.9302 H         1 UNK         0.3000 
    216 H216        0.0043  -26.5050  -54.6086 H         1 UNK         0.0600 
    217 H217        2.3890  -26.1543  -53.9597 H         1 UNK         0.0600 
    218 H218        1.8820  -27.8055  -53.6369 H         1 UNK         0.0600 
    219 H219        2.0317  -26.6524  -52.3106 H         1 UNK         0.0600 
    220 H220       -0.3584  -24.4454  -55.1242 H         1 UNK         0.3000 
    221 H221       -0.7776  -22.2843  -55.1224 H         1 UNK         0.0600 
    222 H222        0.9267  -22.0201  -52.5967 H         1 UNK         0.0600 
    223 H223        1.5739  -22.1106  -54.2364 H         1 UNK         0.0600 
    224 H224        0.5509  -20.7678  -53.7677 H         1 UNK         0.0600 
    225 H225       -2.5913  -24.0833  -53.6982 H         1 UNK         0.3000 
    226 H226       -3.7843  -23.0063  -51.4375 H         1 UNK         0.0600 
    227 H227       -5.0334  -24.6065  -53.7396 H         1 UNK         0.0600 
    228 H228       -4.2614  -25.2711  -52.2995 H         1 UNK         0.0600 
    229 H229       -5.7666  -24.3864  -52.1533 H         1 UNK         0.0600 
    230 H230       -5.7465  -21.9040  -51.0885 H         1 UNK         0.3000 
    231 H231       -7.1097  -20.1725  -51.1471 H         1 UNK         0.0600 
    232 H232       -8.2261  -21.4568  -52.9959 H         1 UNK         0.0600 
    233 H233       -7.2971  -20.5421  -54.1831 H         1 UNK         0.0600 
    234 H234       -8.4582  -19.7237  -53.1493 H         1 UNK         0.0600 
    235 H235       -4.2637  -19.7444  -51.3917 H         1 UNK         0.3000 
    236 H236       -2.7502  -18.1544  -51.3891 H         1 UNK         0.0600 
    237 H237       -5.0290  -16.1313  -51.6736 H         1 UNK         0.0600 
    238 H238       -4.3458  -16.7286  -50.1615 H         1 UNK         0.0600 
    239 H239       -3.3698  -15.7548  -51.2499 H         1 UNK         0.0600 
    240 H240       -2.4492  -19.4774  -53.4541 H         1 UNK         0.3000 
    241 H241       -1.8403  -19.7006  -55.5566 H         1 UNK         0.0600 
    242 H242       -4.5376  -20.0262  -55.2589 H         1 UNK         0.3800 
    243 H243       -5.3380  -19.3625  -56.6621 H         1 UNK         0.3800 
    244 H244       -1.0185  -17.6204  -56.8902 H         1 UNK         0.0800 
    245 H245       -1.3146  -16.6911  -55.4524 H         1 UNK         0.0800 
    246 H246        2.1996  -16.9134  -54.1087 H         1 UNK         0.0800 
    247 H247        0.9065  -15.9129  -54.7187 H         1 UNK         0.0800 
@<TRIPOS>BOND
     1    1    2 1    
     2    1  127 1    
     3    1  128 1    
     4    1  129 1    
     5    2    3 2    
     6    2    4 am   BACKBONE|DICT|INTERRES
     7    4    5 1    
     8    4  130 1    
     9    5    6 1    
    10    5   65 1    
    11    5  131 1    
    12    6    7 1    
    13    6  132 1    
    14    6  133 1    
    15    7    8 1    
    16    8    9 1    
    17    8  134 1    
    18    8  135 1    
    19    9   10 ar   
    20    9   14 ar   
    21   10   11 ar   
    22   10  136 1    
    23   11   12 ar   
    24   11  126 1    
    25   12   13 ar   
    26   12  137 1    
    27   13   14 ar   
    28   13   15 1    
    29   14  138 1    
    30   15   16 1    
    31   15  139 1    
    32   15  140 1    
    33   16   17 1    
    34   17   18 1    
    35   17  141 1    
    36   17  142 1    
    37   18   19 1    
    38   18   67 1    
    39   18  143 1    
    40   19   20 am   BACKBONE|DICT|INTERRES
    41   19  144 1    
    42   20   21 2    
    43   20   22 1    
    44   22   23 1    
    45   22   24 1    
    46   22  145 1    
    47   23  146 1    
    48   23  147 1    
    49   23  148 1    
    50   24   25 am   BACKBONE|DICT|INTERRES
    51   24  149 1    
    52   25   26 2    
    53   25   27 1    
    54   27   28 1    
    55   27   29 1    
    56   27  150 1    
    57   28  151 1    
    58   28  152 1    
    59   28  153 1    
    60   29   30 am   BACKBONE|DICT|INTERRES
    61   29  154 1    
    62   30   31 2    
    63   30   32 1    
    64   32   33 1    
    65   32   34 1    
    66   32  155 1    
    67   33  156 1    
    68   33  157 1    
    69   33  158 1    
    70   34   35 am   BACKBONE|DICT|INTERRES
    71   34  159 1    
    72   35   36 2    
    73   35   37 1    
    74   37   38 1    
    75   37   39 1    
    76   37  160 1    
    77   38  161 1    
    78   38  162 1    
    79   38  163 1    
    80   39   40 am   BACKBONE|DICT|INTERRES
    81   39  164 1    
    82   40   41 2    
    83   40   42 1    
    84   42   43 1    
    85   42   44 1    
    86   42  165 1    
    87   43  166 1    
    88   43  167 1    
    89   43  168 1    
    90   44   45 am   BACKBONE|DICT|INTERRES
    91   44  169 1    
    92   45   46 2    
    93   45   47 1    
    94   47   48 1    
    95   47   49 1    
    96   47  170 1    
    97   48  171 1    
    98   48  172 1    
    99   48  173 1    
   100   49   50 am   BACKBONE|DICT|INTERRES
   101   49  174 1    
   102   50   51 2    
   103   50   52 1    
   104   52   53 1    
   105   52   54 1    
   106   52  175 1    
   107   53  176 1    
   108   53  177 1    
   109   53  178 1    
   110   54   55 am   BACKBONE|DICT|INTERRES
   111   54  179 1    
   112   55   56 2    
   113   55   57 1    
   114   57   58 1    
   115   57   59 1    
   116   57  180 1    
   117   58  181 1    
   118   58  182 1    
   119   58  183 1    
   120   59   60 am   BACKBONE|DICT|INTERRES
   121   59  184 1    
   122   60   61 2    
   123   60   62 1    
   124   62   63 1    
   125   62   64 1    
   126   62  185 1    
   127   63  186 1    
   128   63  187 1    
   129   63  188 1    
   130   64   65 am   BACKBONE|DICT|INTERRES
   131   64  189 1    
   132   65   66 2    
   133   67   68 2    
   134   67   69 am   BACKBONE|DICT|INTERRES
   135   69   70 1    
   136   69  190 1    
   137   70   71 1    
   138   70   72 1    
   139   70  191 1    
   140   71  192 1    
   141   71  193 1    
   142   71  194 1    
   143   72   73 2    
   144   72   74 am   BACKBONE|DICT|INTERRES
   145   74   75 1    
   146   74  195 1    
   147   75   76 1    
   148   75   77 1    
   149   75  196 1    
   150   76  197 1    
   151   76  198 1    
   152   76  199 1    
   153   77   78 2    
   154   77   79 am   BACKBONE|DICT|INTERRES
   155   79   80 1    
   156   79  200 1    
   157   80   81 1    
   158   80   82 1    
   159   80  201 1    
   160   81  202 1    
   161   81  203 1    
   162   81  204 1    
   163   82   83 2    
   164   82   84 am   BACKBONE|DICT|INTERRES
   165   84   85 1    
   166   84  205 1    
   167   85   86 1    
   168   85   87 1    
   169   85  206 1    
   170   86  207 1    
   171   86  208 1    
   172   86  209 1    
   173   87   88 2    
   174   87   89 am   BACKBONE|DICT|INTERRES
   175   89   90 1    
   176   89  210 1    
   177   90   91 1    
   178   90   92 1    
   179   90  211 1    
   180   91  212 1    
   181   91  213 1    
   182   91  214 1    
   183   92   93 2    
   184   92   94 am   BACKBONE|DICT|INTERRES
   185   94   95 1    
   186   94  215 1    
   187   95   96 1    
   188   95   97 1    
   189   95  216 1    
   190   96  217 1    
   191   96  218 1    
   192   96  219 1    
   193   97   98 2    
   194   97   99 am   BACKBONE|DICT|INTERRES
   195   99  100 1    
   196   99  220 1    
   197  100  101 1    
   198  100  102 1    
   199  100  221 1    
   200  101  222 1    
   201  101  223 1    
   202  101  224 1    
   203  102  103 2    
   204  102  104 am   BACKBONE|DICT|INTERRES
   205  104  105 1    
   206  104  225 1    
   207  105  106 1    
   208  105  107 1    
   209  105  226 1    
   210  106  227 1    
   211  106  228 1    
   212  106  229 1    
   213  107  108 2    
   214  107  109 am   BACKBONE|DICT|INTERRES
   215  109  110 1    
   216  109  230 1    
   217  110  111 1    
   218  110  112 1    
   219  110  231 1    
   220  111  232 1    
   221  111  233 1    
   222  111  234 1    
   223  112  113 2    
   224  112  114 am   BACKBONE|DICT|INTERRES
   225  114  115 1    
   226  114  235 1    
   227  115  116 1    
   228  115  117 1    
   229  115  236 1    
   230  116  237 1    
   231  116  238 1    
   232  116  239 1    
   233  117  118 2    
   234  117  119 am   BACKBONE|DICT|INTERRES
   235  119  120 1    
   236  119  240 1    
   237  120  121 1    
   238  120  124 1    
   239  120  241 1    
   240  121  122 am   BACKBONE|DICT|INTERRES
   241  121  123 2    
   242  122  242 1    
   243  122  243 1    
   244  124  125 1    
   245  124  244 1    
   246  124  245 1    
   247  125  126 1    
   248  126  246 1    
   249  126  247 1    
@<TRIPOS>SUBSTRUCTURE
     1 UNK         1 GROUP             0       ****    0 ROOT    
