@<TRIPOS>MOLECULE
3R540
247   249    1
SMALL
USER_CHARGES


@<TRIPOS>ATOM
      1 CA         -0.4432   -9.9380  -46.2981 C.3       0 UNK        -0.1800 
      2 C           0.6747   -9.8290  -47.3250 C.2       0 UNK         0.5000 
      3 O           1.4023   -8.8359  -47.3427 O.2       0 UNK        -0.5000 
      4 N           0.8256  -10.8509  -48.1749 N.am      1 UNK        -0.5000 
      5 CA          1.8010  -10.9444  -49.2694 C.3       1 UNK         0.1400 
      6 C6          1.2858  -11.8702  -50.4058 C.3       23 UNK        -0.0398 
      7 S7          0.7111  -13.5239  -49.8633 S.3       23 UNK        -0.2404 
      8 C8          1.9232  -14.5991  -50.6888 C.3       23 UNK        -0.0205 
      9 C9          1.5448  -16.0674  -50.5832 C.ar      23 UNK        -0.0193 
     10 C10         0.8359  -16.6864  -51.6162 C.ar      23 UNK        -0.1150 
     11 C11         0.5322  -18.0473  -51.5431 C.ar      23 UNK        -0.0193 
     12 C12         0.9623  -18.7916  -50.4433 C.ar      23 UNK        -0.1150 
     13 C13         1.6451  -18.1834  -49.3825 C.ar      23 UNK        -0.0193 
     14 C14         1.9239  -16.8155  -49.4644 C.ar      23 UNK        -0.1150 
     15 C15         2.0991  -18.9400  -48.1304 C.3       23 UNK        -0.0205 
     16 S16         1.8418  -20.7525  -48.1266 S.3       23 UNK        -0.2404 
     17 C17         0.0324  -20.8909  -47.9228 C.3       23 UNK        -0.0398 
     18 CA         -0.3648  -22.1603  -47.1361 C.3       11 UNK         0.1400 
     19 N          -0.0358  -22.0720  -45.7088 N.am      11 UNK        -0.5000 
     20 C          -0.1170  -23.0980  -44.8497 C.2       10 UNK         0.5000 
     21 O          -0.4342  -24.2391  -45.1809 O.2       10 UNK        -0.5000 
     22 CA          0.1348  -22.7968  -43.3622 C.3       10 UNK         0.1400 
     23 CB          1.6382  -22.7189  -43.0593 C.3       10 UNK        -0.1800 
     24 N          -0.5378  -21.5754  -42.9182 N.am      10 UNK        -0.5000 
     25 C          -1.8692  -21.4117  -42.9030 C.2       9 UNK         0.5000 
     26 O          -2.6673  -22.2977  -43.2067 O.2       9 UNK        -0.5000 
     27 CA         -2.4007  -20.0131  -42.5393 C.3       9 UNK         0.1400 
     28 CB         -2.4320  -19.8167  -41.0168 C.3       9 UNK        -0.1800 
     29 N          -1.6264  -18.9381  -43.1592 N.am      9 UNK        -0.5000 
     30 C          -1.5087  -18.7453  -44.4806 C.2       8 UNK         0.5000 
     31 O          -2.0922  -19.4214  -45.3269 O.2       8 UNK        -0.5000 
     32 CA         -0.5226  -17.6556  -44.9335 C.3       8 UNK         0.1400 
     33 CB         -1.1659  -16.2629  -44.8796 C.3       8 UNK        -0.1800 
     34 N           0.7125  -17.6736  -44.1480 N.am      8 UNK        -0.5000 
     35 C           1.5961  -18.6813  -44.1652 C.2       7 UNK         0.5000 
     36 O           1.4743  -19.6809  -44.8716 O.2       7 UNK        -0.5000 
     37 CA          2.7752  -18.5908  -43.1818 C.3       7 UNK         0.1400 
     38 CB          3.9104  -17.7256  -43.7448 C.3       7 UNK        -0.1800 
     39 N           2.3570  -18.0793  -41.8765 N.am      7 UNK        -0.5000 
     40 C           1.6161  -18.7864  -41.0110 C.2       6 UNK         0.5000 
     41 O           1.2496  -19.9428  -41.2169 O.2       6 UNK        -0.5000 
     42 CA          1.1747  -18.0798  -39.7161 C.3       6 UNK         0.1400 
     43 CB          2.2308  -18.2629  -38.6163 C.3       6 UNK        -0.1800 
     44 N           0.8991  -16.6528  -39.8869 N.am      6 UNK        -0.5000 
     45 C          -0.0306  -16.1369  -40.7020 C.2       5 UNK         0.5000 
     46 O          -0.7572  -16.8207  -41.4234 O.2       5 UNK        -0.5000 
     47 CA         -0.1712  -14.6021  -40.7404 C.3       5 UNK         0.1400 
     48 CB          0.6138  -13.8683  -39.6293 C.3       5 UNK        -0.1800 
     49 N           0.1735  -14.0423  -42.0515 N.am      5 UNK        -0.5000 
     50 C           1.3330  -14.1780  -42.7113 C.2       4 UNK         0.5000 
     51 O           2.2569  -14.9055  -42.3361 O.2       4 UNK        -0.5000 
     52 CA          1.4763  -13.3245  -43.9870 C.3       4 UNK         0.1400 
     53 CB          1.3434  -11.8255  -43.6645 C.3       4 UNK        -0.1800 
     54 N           2.7737  -13.5191  -44.6235 N.am      4 UNK        -0.5000 
     55 C           3.0789  -14.4421  -45.5399 C.2       3 UNK         0.5000 
     56 O           2.2770  -15.2657  -45.9814 O.2       3 UNK        -0.5000 
     57 CA          4.5261  -14.3819  -46.0724 C.3       3 UNK         0.1400 
     58 CB          4.8649  -15.5197  -47.0508 C.3       3 UNK        -0.1800 
     59 N           4.7612  -13.1037  -46.7421 N.am      3 UNK        -0.5000 
     60 C           5.0269  -11.9357  -46.1475 C.2       2 UNK         0.5000 
     61 O           5.2365  -11.8231  -44.9389 O.2       2 UNK        -0.5000 
     62 CA          4.9753  -10.6756  -47.0326 C.3       2 UNK         0.1400 
     63 CB          6.2034  -10.5763  -47.9578 C.3       2 UNK        -0.1800 
     64 N           3.7121  -10.5406  -47.7737 N.am      2 UNK        -0.5000 
     65 C           3.2251  -11.2941  -48.7706 C.2       1 UNK         0.5000 
     66 O           3.8459  -12.2342  -49.2687 O.2       1 UNK        -0.5000 
     67 C          -1.8499  -22.5035  -47.3770 C.2       11 UNK         0.5000 
     68 O          -2.1460  -23.3174  -48.2527 O.2       11 UNK        -0.5000 
     69 N          -2.7585  -21.9103  -46.5927 N.am      12 UNK        -0.5000 
     70 CA         -4.1917  -22.2026  -46.6378 C.3       12 UNK         0.1400 
     71 CB         -4.9546  -21.1773  -45.7869 C.3       12 UNK        -0.1800 
     72 C          -4.5279  -23.6407  -46.2011 C.2       12 UNK         0.5000 
     73 O          -5.4458  -24.2401  -46.7594 O.2       12 UNK        -0.5000 
     74 N          -3.7784  -24.1689  -45.2263 N.am      13 UNK        -0.5000 
     75 CA         -3.9309  -25.5245  -44.7095 C.3       13 UNK         0.1400 
     76 CB         -3.3429  -25.5973  -43.2904 C.3       13 UNK        -0.1800 
     77 C          -3.2918  -26.5816  -45.6276 C.2       13 UNK         0.5000 
     78 O          -3.9826  -27.5009  -46.0682 O.2       13 UNK        -0.5000 
     79 N          -1.9799  -26.4591  -45.8676 N.am      14 UNK        -0.5000 
     80 CA         -1.1612  -27.5009  -46.4886 C.3       14 UNK         0.1400 
     81 CB          0.2874  -27.3707  -45.9921 C.3       14 UNK        -0.1800 
     82 C          -1.2025  -27.4734  -48.0231 C.2       14 UNK         0.5000 
     83 O          -1.2516  -28.5369  -48.6422 O.2       14 UNK        -0.5000 
     84 N          -1.1730  -26.2700  -48.6097 N.am      15 UNK        -0.5000 
     85 CA         -1.1535  -26.0621  -50.0614 C.3       15 UNK         0.1400 
     86 CB         -0.1269  -24.9660  -50.4002 C.3       15 UNK        -0.1800 
     87 C          -2.5452  -25.7165  -50.6223 C.2       15 UNK         0.5000 
     88 O          -2.6611  -25.4649  -51.8228 O.2       15 UNK        -0.5000 
     89 N          -3.5659  -25.6726  -49.7501 N.am      16 UNK        -0.5000 
     90 CA         -4.9687  -25.3363  -50.0266 C.3       16 UNK         0.1400 
     91 CB         -5.6184  -26.4338  -50.8957 C.3       16 UNK        -0.1800 
     92 C          -5.1579  -23.9276  -50.6320 C.2       16 UNK         0.5000 
     93 O          -6.1292  -23.7035  -51.3562 O.2       16 UNK        -0.5000 
     94 N          -4.1954  -23.0223  -50.3857 N.am      17 UNK        -0.5000 
     95 CA         -4.0325  -21.7142  -51.0336 C.3       17 UNK         0.1400 
     96 CB         -5.0736  -20.7117  -50.5022 C.3       17 UNK        -0.1800 
     97 C          -4.0255  -21.8196  -52.5772 C.2       17 UNK         0.5000 
     98 O          -4.7019  -21.0504  -53.2655 O.2       17 UNK        -0.5000 
     99 N          -3.3216  -22.8429  -53.0868 N.am      18 UNK        -0.5000 
    100 CA        -3.2115  -23.2377  -54.4965 C.3       18 UNK         0.1400 
    101 CB        -2.5075  -22.1315  -55.3111 C.3       18 UNK        -0.1800 
    102 C         -4.5507  -23.6704  -55.1377 C.2       18 UNK         0.5000 
    103 O         -4.6307  -23.7588  -56.3635 O.2       18 UNK        -0.5000 
    104 N         -5.5795  -23.9098  -54.3068 N.am      19 UNK        -0.5000 
    105 CA        -6.9788  -24.1740  -54.6584 C.3       19 UNK         0.1400 
    106 CB        -7.1169  -25.5222  -55.3955 C.3       19 UNK        -0.1800 
    107 C         -7.6535  -23.0025  -55.4091 C.2       19 UNK         0.5000 
    108 O         -8.6328  -23.2202  -56.1250 O.2       19 UNK        -0.5000 
    109 N         -7.1234  -21.7831  -55.2375 N.am      20 UNK        -0.5000 
    110 CA        -7.5446  -20.5778  -55.9550 C.3       20 UNK         0.1400 
    111 CB        -6.7221  -20.4545  -57.2521 C.3       20 UNK        -0.1800 
    112 C         -7.4345  -19.3151  -55.0805 C.2       20 UNK         0.5000 
    113 O         -7.3951  -18.2068  -55.6196 O.2       20 UNK        -0.5000 
    114 N         -7.3441  -19.4951  -53.7521 N.am      21 UNK        -0.5000 
    115 CA        -7.1508  -18.4561  -52.7280 C.3       21 UNK         0.1400 
    116 CB        -8.4244  -17.5959  -52.5924 C.3       21 UNK        -0.1800 
    117 C         -5.8788  -17.6017  -52.9468 C.2       21 UNK         0.5000 
    118 O         -5.8410  -16.4385  -52.5418 O.2       21 UNK        -0.5000 
    119 N         -4.8768  -18.1909  -53.6146 N.am      22 UNK        -0.5000 
    120 CA        -3.6481  -17.5521  -54.1147 C.3       22 UNK         0.1400 
    121 C         -3.8848  -16.3806  -55.1203 C.2       22 UNK         0.5000 
    122 N         -5.0318  -16.3031  -55.7872 N.am      22 UNK        -0.7600 
    123 O         -3.0078  -15.5474  -55.3329 O.2       22 UNK        -0.5000 
    124 C124       -2.6522  -17.2109  -52.9725 C.3       23 UNK        -0.0398 
    125 S125       -2.0450  -18.7385  -52.1767 S.3       23 UNK        -0.2404 
    126 C126       -0.2830  -18.7265  -52.6293 C.3       23 UNK        -0.0205 
    127 H127       -0.7795  -10.9682  -46.1774 H         1 UNK         0.0600 
    128 H128       -1.2948   -9.3320  -46.6076 H         1 UNK         0.0600 
    129 H129       -0.1042   -9.5759  -45.3276 H         1 UNK         0.0600 
    130 H130        0.2186  -11.6548  -48.0909 H         1 UNK         0.3000 
    131 H131        1.8932   -9.9492  -49.7098 H         1 UNK         0.0600 
    132 H132        0.4355  -11.3871  -50.8888 H         1 UNK         0.0800 
    133 H133        2.0355  -11.9678  -51.1929 H         1 UNK         0.0800 
    134 H134        2.0068  -14.3153  -51.7390 H         1 UNK         0.0800 
    135 H135        2.9091  -14.4446  -50.2496 H         1 UNK         0.0800 
    136 H136        0.5187  -16.1089  -52.4731 H         1 UNK         0.1150 
    137 H137        0.7399  -19.8457  -50.4288 H         1 UNK         0.1150 
    138 H138        2.4418  -16.3293  -48.6513 H         1 UNK         0.1150 
    139 H139        3.1661  -18.7609  -47.9914 H         1 UNK         0.0800 
    140 H140        1.6070  -18.5057  -47.2612 H         1 UNK         0.0800 
    141 H141       -0.4130  -20.9109  -48.9181 H         1 UNK         0.0800 
    142 H142       -0.3562  -19.9972  -47.4323 H         1 UNK         0.0800 
    143 H143        0.2066  -22.9975  -47.5436 H         1 UNK         0.0600 
    144 H144        0.2935  -21.1719  -45.3707 H         1 UNK         0.3000 
    145 H145       -0.2778  -23.6269  -42.7851 H         1 UNK         0.0600 
    146 H146        1.8183  -22.5816  -41.9931 H         1 UNK         0.0600 
    147 H147        2.1430  -23.6383  -43.3583 H         1 UNK         0.0600 
    148 H148        2.1179  -21.8961  -43.5881 H         1 UNK         0.0600 
    149 H149        0.0569  -20.8178  -42.5996 H         1 UNK         0.3000 
    150 H150       -3.4243  -19.9390  -42.9116 H         1 UNK         0.0600 
    151 H151       -3.0515  -20.5766  -40.5391 H         1 UNK         0.0600 
    152 H152       -2.8468  -18.8438  -40.7526 H         1 UNK         0.0600 
    153 H153       -1.4356  -19.8851  -40.5812 H         1 UNK         0.0600 
    154 H154       -1.1531  -18.2930  -42.5314 H         1 UNK         0.3000 
    155 H155       -0.2644  -17.8595  -45.9740 H         1 UNK         0.0600 
    156 H156       -2.1011  -16.2448  -45.4407 H         1 UNK         0.0600 
    157 H157       -0.5103  -15.5162  -45.3254 H         1 UNK         0.0600 
    158 H158       -1.3903  -15.9543  -43.8589 H         1 UNK         0.0600 
    159 H159        0.8634  -16.9083  -43.5077 H         1 UNK         0.3000 
    160 H160        3.1670  -19.6011  -43.0455 H         1 UNK         0.0600 
    161 H161        3.6097  -16.6843  -43.8421 H         1 UNK         0.0600 
    162 H162        4.2161  -18.0764  -44.7313 H         1 UNK         0.0600 
    163 H163        4.7881  -17.7600  -43.0995 H         1 UNK         0.0600 
    164 H164        2.5735  -17.1124  -41.6679 H         1 UNK         0.3000 
    165 H165        0.2506  -18.5549  -39.3817 H         1 UNK         0.0600 
    166 H166        1.8894  -17.8481  -37.6677 H         1 UNK         0.0600 
    167 H167        2.4417  -19.3202  -38.4498 H         1 UNK         0.0600 
    168 H168        3.1721  -17.7773  -38.8771 H         1 UNK         0.0600 
    169 H169        1.4687  -16.0158  -39.3494 H         1 UNK         0.3000 
    170 H170       -1.2308  -14.3954  -40.5839 H         1 UNK         0.0600 
    171 H171        0.3260  -14.2250  -38.6394 H         1 UNK         0.0600 
    172 H172        1.6924  -13.9940  -39.7318 H         1 UNK         0.0600 
    173 H173        0.4071  -12.7982  -39.6529 H         1 UNK         0.0600 
    174 H174       -0.5387  -13.4539  -42.4599 H         1 UNK         0.3000 
    175 H175        0.6859  -13.6033  -44.6855 H         1 UNK         0.0600 
    176 H176        2.0316  -11.5217  -42.8744 H         1 UNK         0.0600 
    177 H177        1.5601  -11.2150  -44.5408 H         1 UNK         0.0600 
    178 H178        0.3340  -11.5734  -43.3381 H         1 UNK         0.0600 
    179 H179        3.5168  -12.9003  -44.3212 H         1 UNK         0.3000 
    180 H180        5.1928  -14.4727  -45.2123 H         1 UNK         0.0600 
    181 H181        4.3454  -15.3976  -48.0003 H         1 UNK         0.0600 
    182 H182        4.5939  -16.4937  -46.6420 H         1 UNK         0.0600 
    183 H183        5.9337  -15.5433  -47.2633 H         1 UNK         0.0600 
    184 H184        4.5345  -13.0649  -47.7328 H         1 UNK         0.3000 
    185 H185        5.0100   -9.8184  -46.3583 H         1 UNK         0.0600 
    186 H186        7.1254  -10.5646  -47.3752 H         1 UNK         0.0600 
    187 H187        6.2698  -11.4162  -48.6495 H         1 UNK         0.0600 
    188 H188        6.1793   -9.6590  -48.5461 H         1 UNK         0.0600 
    189 H189        3.0953   -9.8054  -47.4388 H         1 UNK         0.3000 
    190 H190       -2.4565  -21.1937  -45.9377 H         1 UNK         0.3000 
    191 H191       -4.5226  -22.0935  -47.6711 H         1 UNK         0.0600 
    192 H192       -4.7738  -20.1614  -46.1386 H         1 UNK         0.0600 
    193 H193       -6.0300  -21.3525  -45.8355 H         1 UNK         0.0600 
    194 H194       -4.6608  -21.2257  -44.7384 H         1 UNK         0.0600 
    195 H195       -3.0844  -23.5826  -44.7753 H         1 UNK         0.3000 
    196 H196       -4.9968  -25.7510  -44.6346 H         1 UNK         0.0600 
    197 H197       -3.4321  -26.6039  -42.8801 H         1 UNK         0.0600 
    198 H198       -3.8685  -24.9226  -42.6144 H         1 UNK         0.0600 
    199 H199       -2.2868  -25.3259  -43.2726 H         1 UNK         0.0600 
    200 H200       -1.4797  -25.6446  -45.5127 H         1 UNK         0.3000 
    201 H201       -1.5323  -28.4761  -46.1648 H         1 UNK         0.0600 
    202 H202        0.3382  -27.4270  -44.9046 H         1 UNK         0.0600 
    203 H203        0.7373  -26.4259  -46.2993 H         1 UNK         0.0600 
    204 H204        0.9096  -28.1737  -46.3892 H         1 UNK         0.0600 
    205 H205       -1.1785  -25.4372  -48.0352 H         1 UNK         0.3000 
    206 H206       -0.8312  -26.9747  -50.5666 H         1 UNK         0.0600 
    207 H207        0.8571  -25.2121  -50.0010 H         1 UNK         0.0600 
    208 H208       -0.0172  -24.8550  -51.4796 H         1 UNK         0.0600 
    209 H209       -0.4138  -23.9933  -50.0037 H         1 UNK         0.0600 
    210 H210       -3.3463  -25.8584  -48.7820 H         1 UNK         0.3000 
    211 H211       -5.4848  -25.3330  -49.0680 H         1 UNK         0.0600 
    212 H212       -5.2082  -26.4471  -51.9061 H         1 UNK         0.0600 
    213 H213       -6.6945  -26.2796  -50.9832 H         1 UNK         0.0600 
    214 H214       -5.4693  -27.4216  -50.4597 H         1 UNK         0.0600 
    215 H215       -3.4446  -23.2958  -49.7576 H         1 UNK         0.3000 
    216 H216       -3.0452  -21.3496  -50.7469 H         1 UNK         0.0600 
    217 H217       -4.8864  -19.7157  -50.9033 H         1 UNK         0.0600 
    218 H218       -5.0291  -20.6294  -49.4173 H         1 UNK         0.0600 
    219 H219       -6.0885  -21.0000  -50.7764 H         1 UNK         0.0600 
    220 H220       -2.8913  -23.4939  -52.4384 H         1 UNK         0.3000 
    221 H221       -2.5714  -24.1209  -54.5112 H         1 UNK         0.0600 
    222 H222       -3.1315  -21.2434  -55.4151 H         1 UNK         0.0600 
    223 H223       -1.5717  -21.8296  -54.8406 H         1 UNK         0.0600 
    224 H224       -2.2663  -22.4784  -56.3164 H         1 UNK         0.0600 
    225 H225       -5.4176  -23.7954  -53.3124 H         1 UNK         0.3000 
    226 H226       -7.5121  -24.2652  -53.7114 H         1 UNK         0.0600 
    227 H227       -6.6321  -26.3254  -54.8405 H         1 UNK         0.0600 
    228 H228       -8.1653  -25.7984  -55.5128 H         1 UNK         0.0600 
    229 H229       -6.6759  -25.4878  -56.3919 H         1 UNK         0.0600 
    230 H230       -6.3069  -21.6882  -54.6434 H         1 UNK         0.3000 
    231 H231       -8.6000  -20.6610  -56.2219 H         1 UNK         0.0600 
    232 H232       -5.6591  -20.3340  -57.0389 H         1 UNK         0.0600 
    233 H233       -7.0406  -19.5967  -57.8455 H         1 UNK         0.0600 
    234 H234       -6.8379  -21.3389  -57.8790 H         1 UNK         0.0600 
    235 H235       -7.3654  -20.4438  -53.4067 H         1 UNK         0.3000 
    236 H236       -7.0105  -18.9772  -51.7818 H         1 UNK         0.0600 
    237 H237       -9.3051  -18.2179  -52.4331 H         1 UNK         0.0600 
    238 H238       -8.3511  -16.9173  -51.7417 H         1 UNK         0.0600 
    239 H239       -8.5987  -16.9885  -53.4810 H         1 UNK         0.0600 
    240 H240       -4.9618  -19.1836  -53.8088 H         1 UNK         0.3000 
    241 H241       -3.1695  -18.3129  -54.7326 H         1 UNK         0.0600 
    242 H242       -5.1711  -15.5510  -56.4429 H         1 UNK         0.3800 
    243 H243       -5.7739  -16.9790  -55.6375 H         1 UNK         0.3800 
    244 H244       -1.8002  -16.6424  -53.3458 H         1 UNK         0.0800 
    245 H245       -3.1249  -16.5799  -52.2192 H         1 UNK         0.0800 
    246 H246        0.0533  -19.7572  -52.7520 H         1 UNK         0.0800 
    247 H247       -0.1310  -18.2439  -53.5958 H         1 UNK         0.0800 
@<TRIPOS>BOND
     1    1    2 1    
     2    1  127 1    
     3    1  128 1    
     4    1  129 1    
     5    2    3 2    
     6    2    4 am   BACKBONE|DICT|INTERRES
     7    4    5 1    
     8    4  130 1    
     9    5    6 1    
    10    5   65 1    
    11    5  131 1    
    12    6    7 1    
    13    6  132 1    
    14    6  133 1    
    15    7    8 1    
    16    8    9 1    
    17    8  134 1    
    18    8  135 1    
    19    9   10 ar   
    20    9   14 ar   
    21   10   11 ar   
    22   10  136 1    
    23   11   12 ar   
    24   11  126 1    
    25   12   13 ar   
    26   12  137 1    
    27   13   14 ar   
    28   13   15 1    
    29   14  138 1    
    30   15   16 1    
    31   15  139 1    
    32   15  140 1    
    33   16   17 1    
    34   17   18 1    
    35   17  141 1    
    36   17  142 1    
    37   18   19 1    
    38   18   67 1    
    39   18  143 1    
    40   19   20 am   BACKBONE|DICT|INTERRES
    41   19  144 1    
    42   20   21 2    
    43   20   22 1    
    44   22   23 1    
    45   22   24 1    
    46   22  145 1    
    47   23  146 1    
    48   23  147 1    
    49   23  148 1    
    50   24   25 am   BACKBONE|DICT|INTERRES
    51   24  149 1    
    52   25   26 2    
    53   25   27 1    
    54   27   28 1    
    55   27   29 1    
    56   27  150 1    
    57   28  151 1    
    58   28  152 1    
    59   28  153 1    
    60   29   30 am   BACKBONE|DICT|INTERRES
    61   29  154 1    
    62   30   31 2    
    63   30   32 1    
    64   32   33 1    
    65   32   34 1    
    66   32  155 1    
    67   33  156 1    
    68   33  157 1    
    69   33  158 1    
    70   34   35 am   BACKBONE|DICT|INTERRES
    71   34  159 1    
    72   35   36 2    
    73   35   37 1    
    74   37   38 1    
    75   37   39 1    
    76   37  160 1    
    77   38  161 1    
    78   38  162 1    
    79   38  163 1    
    80   39   40 am   BACKBONE|DICT|INTERRES
    81   39  164 1    
    82   40   41 2    
    83   40   42 1    
    84   42   43 1    
    85   42   44 1    
    86   42  165 1    
    87   43  166 1    
    88   43  167 1    
    89   43  168 1    
    90   44   45 am   BACKBONE|DICT|INTERRES
    91   44  169 1    
    92   45   46 2    
    93   45   47 1    
    94   47   48 1    
    95   47   49 1    
    96   47  170 1    
    97   48  171 1    
    98   48  172 1    
    99   48  173 1    
   100   49   50 am   BACKBONE|DICT|INTERRES
   101   49  174 1    
   102   50   51 2    
   103   50   52 1    
   104   52   53 1    
   105   52   54 1    
   106   52  175 1    
   107   53  176 1    
   108   53  177 1    
   109   53  178 1    
   110   54   55 am   BACKBONE|DICT|INTERRES
   111   54  179 1    
   112   55   56 2    
   113   55   57 1    
   114   57   58 1    
   115   57   59 1    
   116   57  180 1    
   117   58  181 1    
   118   58  182 1    
   119   58  183 1    
   120   59   60 am   BACKBONE|DICT|INTERRES
   121   59  184 1    
   122   60   61 2    
   123   60   62 1    
   124   62   63 1    
   125   62   64 1    
   126   62  185 1    
   127   63  186 1    
   128   63  187 1    
   129   63  188 1    
   130   64   65 am   BACKBONE|DICT|INTERRES
   131   64  189 1    
   132   65   66 2    
   133   67   68 2    
   134   67   69 am   BACKBONE|DICT|INTERRES
   135   69   70 1    
   136   69  190 1    
   137   70   71 1    
   138   70   72 1    
   139   70  191 1    
   140   71  192 1    
   141   71  193 1    
   142   71  194 1    
   143   72   73 2    
   144   72   74 am   BACKBONE|DICT|INTERRES
   145   74   75 1    
   146   74  195 1    
   147   75   76 1    
   148   75   77 1    
   149   75  196 1    
   150   76  197 1    
   151   76  198 1    
   152   76  199 1    
   153   77   78 2    
   154   77   79 am   BACKBONE|DICT|INTERRES
   155   79   80 1    
   156   79  200 1    
   157   80   81 1    
   158   80   82 1    
   159   80  201 1    
   160   81  202 1    
   161   81  203 1    
   162   81  204 1    
   163   82   83 2    
   164   82   84 am   BACKBONE|DICT|INTERRES
   165   84   85 1    
   166   84  205 1    
   167   85   86 1    
   168   85   87 1    
   169   85  206 1    
   170   86  207 1    
   171   86  208 1    
   172   86  209 1    
   173   87   88 2    
   174   87   89 am   BACKBONE|DICT|INTERRES
   175   89   90 1    
   176   89  210 1    
   177   90   91 1    
   178   90   92 1    
   179   90  211 1    
   180   91  212 1    
   181   91  213 1    
   182   91  214 1    
   183   92   93 2    
   184   92   94 am   BACKBONE|DICT|INTERRES
   185   94   95 1    
   186   94  215 1    
   187   95   96 1    
   188   95   97 1    
   189   95  216 1    
   190   96  217 1    
   191   96  218 1    
   192   96  219 1    
   193   97   98 2    
   194   97   99 am   BACKBONE|DICT|INTERRES
   195   99  100 1    
   196   99  220 1    
   197  100  101 1    
   198  100  102 1    
   199  100  221 1    
   200  101  222 1    
   201  101  223 1    
   202  101  224 1    
   203  102  103 2    
   204  102  104 am   BACKBONE|DICT|INTERRES
   205  104  105 1    
   206  104  225 1    
   207  105  106 1    
   208  105  107 1    
   209  105  226 1    
   210  106  227 1    
   211  106  228 1    
   212  106  229 1    
   213  107  108 2    
   214  107  109 am   BACKBONE|DICT|INTERRES
   215  109  110 1    
   216  109  230 1    
   217  110  111 1    
   218  110  112 1    
   219  110  231 1    
   220  111  232 1    
   221  111  233 1    
   222  111  234 1    
   223  112  113 2    
   224  112  114 am   BACKBONE|DICT|INTERRES
   225  114  115 1    
   226  114  235 1    
   227  115  116 1    
   228  115  117 1    
   229  115  236 1    
   230  116  237 1    
   231  116  238 1    
   232  116  239 1    
   233  117  118 2    
   234  117  119 am   BACKBONE|DICT|INTERRES
   235  119  120 1    
   236  119  240 1    
   237  120  121 1    
   238  120  124 1    
   239  120  241 1    
   240  121  122 am   BACKBONE|DICT|INTERRES
   241  121  123 2    
   242  122  242 1    
   243  122  243 1    
   244  124  125 1    
   245  124  244 1    
   246  124  245 1    
   247  125  126 1    
   248  126  246 1    
   249  126  247 1    
@<TRIPOS>SUBSTRUCTURE
     1 UNK         1 GROUP             0       ****    0 ROOT    
