@<TRIPOS>MOLECULE
3R540
247   249    1
SMALL
USER_CHARGES


@<TRIPOS>ATOM
      1 CA          3.2296  -14.1005  -41.4593 C.3       0 UNK        -0.1800 
      2 C           1.9987  -13.2669  -41.7859 C.2       0 UNK         0.5000 
      3 O           1.6155  -12.4009  -40.9985 O.2       0 UNK        -0.5000 
      4 N           1.3776  -13.5313  -42.9400 N.am      1 UNK        -0.5000 
      5 CA          0.2296  -12.7870  -43.4631 C.3       1 UNK         0.1400 
      6 C6         -0.6139  -13.6613  -44.4273 C.3       23 UNK        -0.0398 
      7 S7         -1.5355  -14.9434  -43.5163 S.3       23 UNK        -0.2404 
      8 C8         -3.2619  -14.4989  -43.8780 C.3       23 UNK        -0.0205 
      9 C9         -3.7758  -15.2315  -45.1073 C.ar      23 UNK        -0.0193 
     10 C10        -3.7099  -14.6475  -46.3756 C.ar      23 UNK        -0.1150 
     11 C11        -4.2210  -15.3186  -47.4919 C.ar      23 UNK        -0.0193 
     12 C12        -4.7797  -16.5906  -47.3305 C.ar      23 UNK        -0.1150 
     13 C13        -4.8350  -17.1971  -46.0723 C.ar      23 UNK        -0.0193 
     14 C14        -4.3423  -16.4997  -44.9632 C.ar      23 UNK        -0.1150 
     15 C15        -5.4593  -18.5880  -45.9477 C.3       23 UNK        -0.0205 
     16 S16        -4.8717  -19.5831  -44.5315 S.3       23 UNK        -0.2404 
     17 C17        -3.1062  -19.8028  -44.9416 C.3       23 UNK        -0.0398 
     18 CA         -2.8082  -21.1763  -45.5848 C.3       11 UNK         0.1400 
     19 N          -1.5393  -21.1782  -46.3247 N.am      11 UNK        -0.5000 
     20 C          -1.0686  -22.1945  -47.0621 C.2       10 UNK         0.5000 
     21 O          -1.6712  -23.2553  -47.2130 O.2       10 UNK        -0.5000 
     22 CA          0.3072  -22.0208  -47.7234 C.3       10 UNK         0.1400 
     23 CB          0.1955  -21.1663  -48.9938 C.3       10 UNK        -0.1800 
     24 N           1.2885  -21.4455  -46.8066 N.am      10 UNK        -0.5000 
     25 C           1.7534  -22.0689  -45.7141 C.2       9 UNK         0.5000 
     26 O           1.4724  -23.2309  -45.4207 O.2       9 UNK        -0.5000 
     27 CA          2.6424  -21.2432  -44.7646 C.3       9 UNK         0.1400 
     28 CB          4.1003  -21.2304  -45.2467 C.3       9 UNK        -0.1800 
     29 N           2.1674  -19.8685  -44.5973 N.am      9 UNK        -0.5000 
     30 C           0.9820  -19.5325  -44.0671 C.2       8 UNK         0.5000 
     31 O           0.1724  -20.3462  -43.6194 O.2       8 UNK        -0.5000 
     32 CA          0.6217  -18.0365  -44.0938 C.3       8 UNK         0.1400 
     33 CB          1.3199  -17.2928  -42.9458 C.3       8 UNK        -0.1800 
     34 N           0.9538  -17.4131  -45.3784 N.am      8 UNK        -0.5000 
     35 C           0.3612  -17.7358  -46.5382 C.2       7 UNK         0.5000 
     36 O          -0.5576  -18.5461  -46.6309 O.2       7 UNK        -0.5000 
     37 CA          0.9327  -17.1114  -47.8205 C.3       7 UNK         0.1400 
     38 CB          0.3315  -15.7236  -48.0743 C.3       7 UNK        -0.1800 
     39 N           2.3930  -17.0378  -47.7890 N.am      7 UNK        -0.5000 
     40 C           3.1951  -18.1116  -47.8548 C.2       6 UNK         0.5000 
     41 O           2.7804  -19.2602  -47.9999 O.2       6 UNK        -0.5000 
     42 CA          4.7082  -17.8737  -47.6911 C.3       6 UNK         0.1400 
     43 CB          5.3640  -17.6340  -49.0588 C.3       6 UNK        -0.1800 
     44 N           5.0173  -16.7505  -46.8066 N.am      6 UNK        -0.5000 
     45 C           4.7195  -16.6927  -45.5001 C.2       5 UNK         0.5000 
     46 O           4.2051  -17.6215  -44.8770 O.2       5 UNK        -0.5000 
     47 CA          4.9737  -15.3409  -44.8015 C.3       5 UNK         0.1400 
     48 CB          6.3896  -15.2868  -44.2113 C.3       5 UNK        -0.1800 
     49 N           4.7752  -14.2077  -45.7134 N.am      5 UNK        -0.5000 
     50 C           3.5815  -13.8652  -46.2150 C.2       4 UNK         0.5000 
     51 O           2.5209  -14.3650  -45.8292 O.2       4 UNK        -0.5000 
     52 CA          3.5893  -12.8964  -47.4089 C.3       4 UNK         0.1400 
     53 CB          4.0754  -13.6522  -48.6673 C.3       4 UNK        -0.1800 
     54 N           2.2404  -12.3649  -47.6022 N.am      4 UNK        -0.5000 
     55 C           1.8353  -11.5053  -48.5480 C.2       3 UNK         0.5000 
     56 O           2.5709  -11.0292  -49.4132 O.2       3 UNK        -0.5000 
     57 CA          0.3563  -11.0739  -48.4997 C.3       3 UNK         0.1400 
     58 CB         -0.5760  -12.2130  -48.9450 C.3       3 UNK        -0.1800 
     59 N          -0.0393  -10.6181  -47.1690 N.am      3 UNK        -0.5000 
     60 C           0.4119   -9.5049  -46.5721 C.2       2 UNK         0.5000 
     61 O           1.1255   -8.6682  -47.1265 O.2       2 UNK        -0.5000 
     62 CA          0.0126   -9.3031  -45.0957 C.3       2 UNK         0.1400 
     63 CB         -1.2417   -8.4220  -44.9918 C.3       2 UNK        -0.1800 
     64 N          -0.2235  -10.5612  -44.3781 N.am      2 UNK        -0.5000 
     65 C           0.7106  -11.4974  -44.1576 C.2       1 UNK         0.5000 
     66 O           1.8863  -11.3794  -44.5124 O.2       1 UNK        -0.5000 
     67 C          -2.8963  -22.3239  -44.5561 C.2       11 UNK         0.5000 
     68 O          -3.9370  -22.9762  -44.4638 O.2       11 UNK        -0.5000 
     69 N          -1.7788  -22.6138  -43.8743 N.am      12 UNK        -0.5000 
     70 CA         -1.6195  -23.7580  -42.9706 C.3       12 UNK         0.1400 
     71 CB         -0.2665  -23.6420  -42.2525 C.3       12 UNK        -0.1800 
     72 C          -1.7578  -25.1348  -43.6612 C.2       12 UNK         0.5000 
     73 O          -2.0341  -26.1233  -42.9811 O.2       12 UNK        -0.5000 
     74 N          -1.5970  -25.1714  -44.9902 N.am      13 UNK        -0.5000 
     75 CA         -1.8006  -26.3292  -45.8591 C.3       13 UNK         0.1400 
     76 CB         -0.5494  -26.5030  -46.7395 C.3       13 UNK        -0.1800 
     77 C          -3.0850  -26.1785  -46.7047 C.2       13 UNK         0.5000 
     78 O          -3.1669  -26.7565  -47.7891 O.2       13 UNK        -0.5000 
     79 N          -4.0596  -25.3943  -46.2152 N.am      14 UNK        -0.5000 
     80 CA         -5.3613  -25.1036  -46.8304 C.3       14 UNK         0.1400 
     81 CB         -6.2287  -26.3777  -46.9107 C.3       14 UNK        -0.1800 
     82 C          -5.2252  -24.3796  -48.1851 C.2       14 UNK         0.5000 
     83 O          -5.8127  -24.8020  -49.1816 O.2       14 UNK        -0.5000 
     84 N          -4.4055  -23.3193  -48.1954 N.am      15 UNK        -0.5000 
     85 CA         -3.9915  -22.5261  -49.3603 C.3       15 UNK         0.1400 
     86 CB         -5.1797  -21.7476  -49.9584 C.3       15 UNK        -0.1800 
     87 C          -3.2286  -23.3840  -50.3896 C.2       15 UNK         0.5000 
     88 O          -3.4708  -23.2768  -51.5930 O.2       15 UNK        -0.5000 
     89 N          -2.3437  -24.2485  -49.8691 N.am      16 UNK        -0.5000 
     90 CA         -1.5909  -25.2930  -50.5698 C.3       16 UNK         0.1400 
     91 CB         -0.5069  -24.6634  -51.4682 C.3       16 UNK        -0.1800 
     92 C          -2.5283  -26.2509  -51.3329 C.2       16 UNK         0.5000 
     93 O          -2.3757  -26.4323  -52.5397 O.2       16 UNK        -0.5000 
     94 N          -3.5296  -26.7880  -50.6202 N.am      17 UNK        -0.5000 
     95 CA         -4.6551  -27.5784  -51.1366 C.3       17 UNK         0.1400 
     96 CB         -4.1746  -28.9718  -51.5910 C.3       17 UNK        -0.1800 
     97 C          -5.4534  -26.8253  -52.2263 C.2       17 UNK         0.5000 
     98 O          -5.7990  -27.4000  -53.2602 O.2       17 UNK        -0.5000 
     99 N          -5.6924  -25.5315  -51.9706 N.am      18 UNK        -0.5000 
    100 CA        -6.3304  -24.5313  -52.8319 C.3       18 UNK         0.1400 
    101 CB        -7.8150  -24.8817  -53.0611 C.3       18 UNK        -0.1800 
    102 C         -5.5821  -24.2309  -54.1512 C.2       18 UNK         0.5000 
    103 O         -6.1814  -23.6487  -55.0568 O.2       18 UNK        -0.5000 
    104 N         -4.3002  -24.6099  -54.2526 N.am      19 UNK        -0.5000 
    105 CA        -3.4821  -24.4263  -55.4521 C.3       19 UNK         0.1400 
    106 CB        -2.6009  -25.6682  -55.6611 C.3       19 UNK        -0.1800 
    107 C         -2.6118  -23.1569  -55.4108 C.2       19 UNK         0.5000 
    108 O         -2.0649  -22.7974  -56.4546 O.2       19 UNK        -0.5000 
    109 N         -2.4668  -22.5105  -54.2410 N.am      20 UNK        -0.5000 
    110 CA        -1.6444  -21.3063  -54.0640 C.3       20 UNK         0.1400 
    111 CB        -1.4999  -20.9279  -52.5789 C.3       20 UNK        -0.1800 
    112 C         -2.0711  -20.1052  -54.9404 C.2       20 UNK         0.5000 
    113 O         -1.2254  -19.5859  -55.6667 O.2       20 UNK        -0.5000 
    114 N         -3.3376  -19.6605  -54.9490 N.am      21 UNK        -0.5000 
    115 CA        -4.4286  -19.9469  -54.0091 C.3       21 UNK         0.1400 
    116 CB        -5.7146  -20.1688  -54.8205 C.3       21 UNK        -0.1800 
    117 C         -4.6152  -18.7956  -52.9943 C.2       21 UNK         0.5000 
    118 O         -5.5231  -18.8641  -52.1660 O.2       21 UNK        -0.5000 
    119 N         -3.7620  -17.7632  -53.0787 N.am      22 UNK        -0.5000 
    120 CA        -3.8358  -16.4899  -52.3431 C.3       22 UNK         0.1400 
    121 C         -5.0154  -15.5744  -52.8009 C.2       22 UNK         0.5000 
    122 N         -5.1402  -14.3818  -52.2362 N.am      22 UNK        -0.7600 
    123 O         -5.7988  -15.9069  -53.6882 O.2       22 UNK        -0.5000 
    124 C124       -3.7572  -16.6836  -50.7991 C.3       23 UNK        -0.0398 
    125 S125       -2.9074  -15.3041  -49.9507 S.3       23 UNK        -0.2404 
    126 C126       -4.2113  -14.6485  -48.8597 C.3       23 UNK        -0.0205 
    127 H127        4.1244  -13.6237  -41.8595 H         1 UNK         0.0600 
    128 H128        3.1518  -15.1031  -41.8785 H         1 UNK         0.0600 
    129 H129        3.3477  -14.1996  -40.3801 H         1 UNK         0.0600 
    130 H130        1.7865  -14.1896  -43.5890 H         1 UNK         0.3000 
    131 H131       -0.4060  -12.4830  -42.6282 H         1 UNK         0.0600 
    132 H132        0.0186  -14.1539  -45.1648 H         1 UNK         0.0800 
    133 H133       -1.3200  -13.0581  -44.9985 H         1 UNK         0.0800 
    134 H134       -3.8735  -14.7657  -43.0147 H         1 UNK         0.0800 
    135 H135       -3.3707  -13.4198  -43.9940 H         1 UNK         0.0800 
    136 H136       -3.2802  -13.6626  -46.4906 H         1 UNK         0.1150 
    137 H137       -5.1838  -17.1107  -48.1861 H         1 UNK         0.1150 
    138 H138       -4.3947  -16.9379  -43.9772 H         1 UNK         0.1150 
    139 H139       -6.5401  -18.4709  -45.8615 H         1 UNK         0.0800 
    140 H140       -5.2820  -19.1578  -46.8614 H         1 UNK         0.0800 
    141 H141       -2.5083  -19.6496  -44.0417 H         1 UNK         0.0800 
    142 H142       -2.8198  -19.0034  -45.6231 H         1 UNK         0.0800 
    143 H143       -3.5831  -21.3574  -46.3312 H         1 UNK         0.0600 
    144 H144       -1.0096  -20.3094  -46.3015 H         1 UNK         0.3000 
    145 H145        0.6603  -23.0119  -48.0166 H         1 UNK         0.0600 
    146 H146        1.1527  -21.1032  -49.5117 H         1 UNK         0.0600 
    147 H147       -0.5229  -21.6003  -49.6891 H         1 UNK         0.0600 
    148 H148       -0.1332  -20.1508  -48.7742 H         1 UNK         0.0600 
    149 H149        1.6305  -20.5151  -47.0265 H         1 UNK         0.3000 
    150 H150        2.6135  -21.7226  -43.7838 H         1 UNK         0.0600 
    151 H151        4.4989  -22.2439  -45.3048 H         1 UNK         0.0600 
    152 H152        4.7378  -20.6673  -44.5647 H         1 UNK         0.0600 
    153 H153        4.1938  -20.7858  -46.2370 H         1 UNK         0.0600 
    154 H154        2.7894  -19.1270  -44.9015 H         1 UNK         0.3000 
    155 H155       -0.4571  -17.9486  -43.9480 H         1 UNK         0.0600 
    156 H156        1.0361  -17.7161  -41.9816 H         1 UNK         0.0600 
    157 H157        1.0391  -16.2427  -42.9296 H         1 UNK         0.0600 
    158 H158        2.4053  -17.3488  -43.0189 H         1 UNK         0.0600 
    159 H159        1.7147  -16.7488  -45.3879 H         1 UNK         0.3000 
    160 H160        0.6433  -17.7529  -48.6556 H         1 UNK         0.0600 
    161 H161        0.6137  -15.0079  -47.3071 H         1 UNK         0.0600 
    162 H162       -0.7571  -15.7730  -48.0749 H         1 UNK         0.0600 
    163 H163        0.6435  -15.3250  -49.0397 H         1 UNK         0.0600 
    164 H164        2.8001  -16.1303  -47.6247 H         1 UNK         0.3000 
    165 H165        5.1428  -18.7751  -47.2549 H         1 UNK         0.0600 
    166 H166        6.4456  -17.5345  -48.9662 H         1 UNK         0.0600 
    167 H167        5.1727  -18.4691  -49.7343 H         1 UNK         0.0600 
    168 H168        4.9824  -16.7311  -49.5374 H         1 UNK         0.0600 
    169 H169        5.4577  -15.9497  -47.2326 H         1 UNK         0.3000 
    170 H170        4.2580  -15.2548  -43.9830 H         1 UNK         0.0600 
    171 H171        6.5529  -16.1108  -43.5153 H         1 UNK         0.0600 
    172 H172        7.1540  -15.3545  -44.9863 H         1 UNK         0.0600 
    173 H173        6.5504  -14.3604  -43.6597 H         1 UNK         0.0600 
    174 H174        5.6075  -13.7497  -46.0566 H         1 UNK         0.3000 
    175 H175        4.2632  -12.0683  -47.1830 H         1 UNK         0.0600 
    176 H176        3.3632  -14.4180  -48.9764 H         1 UNK         0.0600 
    177 H177        4.2257  -12.9810  -49.5117 H         1 UNK         0.0600 
    178 H178        5.0341  -14.1424  -48.4967 H         1 UNK         0.0600 
    179 H179        1.5843  -12.6816  -46.9013 H         1 UNK         0.3000 
    180 H180        0.2295  -10.2430  -49.1971 H         1 UNK         0.0600 
    181 H181       -0.5900  -13.0315  -48.2260 H         1 UNK         0.0600 
    182 H182       -0.2651  -12.6243  -49.9063 H         1 UNK         0.0600 
    183 H183       -1.6005  -11.8591  -49.0613 H         1 UNK         0.0600 
    184 H184       -0.6453  -11.2259  -46.6414 H         1 UNK         0.3000 
    185 H185        0.8372   -8.7851  -44.6014 H         1 UNK         0.0600 
    186 H186       -1.0899   -7.4660  -45.4949 H         1 UNK         0.0600 
    187 H187       -2.1089   -8.8996  -45.4496 H         1 UNK         0.0600 
    188 H188       -1.4866   -8.2042  -43.9521 H         1 UNK         0.0600 
    189 H189       -1.1636  -10.7104  -44.0403 H         1 UNK         0.3000 
    190 H190       -0.9735  -22.0046  -43.9829 H         1 UNK         0.3000 
    191 H191       -2.4088  -23.6944  -42.2189 H         1 UNK         0.0600 
    192 H192        0.5666  -23.6991  -42.9529 H         1 UNK         0.0600 
    193 H193       -0.1853  -22.6983  -41.7126 H         1 UNK         0.0600 
    194 H194       -0.1392  -24.4450  -41.5254 H         1 UNK         0.0600 
    195 H195       -1.3971  -24.3051  -45.4771 H         1 UNK         0.3000 
    196 H196       -1.9219  -27.2350  -45.2625 H         1 UNK         0.0600 
    197 H197        0.3454  -26.6218  -46.1284 H         1 UNK         0.0600 
    198 H198       -0.3927  -25.6436  -47.3917 H         1 UNK         0.0600 
    199 H199       -0.6283  -27.3885  -47.3712 H         1 UNK         0.0600 
    200 H200       -3.8799  -24.9026  -45.3472 H         1 UNK         0.3000 
    201 H201       -5.8671  -24.4054  -46.1619 H         1 UNK         0.0600 
    202 H202       -7.2352  -26.1415  -47.2581 H         1 UNK         0.0600 
    203 H203       -6.3258  -26.8502  -45.9334 H         1 UNK         0.0600 
    204 H204       -5.8123  -27.1136  -47.5992 H         1 UNK         0.0600 
    205 H205       -3.8867  -23.1379  -47.3471 H         1 UNK         0.3000 
    206 H206       -3.2767  -21.7854  -49.0015 H         1 UNK         0.0600 
    207 H207       -5.6194  -21.0779  -49.2195 H         1 UNK         0.0600 
    208 H208       -5.9671  -22.4087  -50.3164 H         1 UNK         0.0600 
    209 H209       -4.8599  -21.1333  -50.7998 H         1 UNK         0.0600 
    210 H210       -2.2199  -24.2232  -48.8623 H         1 UNK         0.3000 
    211 H211       -1.0894  -25.8876  -49.8055 H         1 UNK         0.0600 
    212 H212        0.1285  -23.9820  -50.9027 H         1 UNK         0.0600 
    213 H213        0.1378  -25.4326  -51.8946 H         1 UNK         0.0600 
    214 H214       -0.9412  -24.1079  -52.2992 H         1 UNK         0.0600 
    215 H215       -3.5437  -26.6123  -49.6175 H         1 UNK         0.3000 
    216 H216       -5.3391  -27.7194  -50.2984 H         1 UNK         0.0600 
    217 H217       -5.0186  -29.6054  -51.8661 H         1 UNK         0.0600 
    218 H218       -3.5153  -28.9106  -52.4574 H         1 UNK         0.0600 
    219 H219       -3.6339  -29.4806  -50.7931 H         1 UNK         0.0600 
    220 H220       -5.4126  -25.1846  -51.0572 H         1 UNK         0.3000 
    221 H221       -6.3022  -23.5991  -52.2690 H         1 UNK         0.0600 
    222 H222       -7.9296  -25.7706  -53.6819 H         1 UNK         0.0600 
    223 H223       -8.3268  -25.0630  -52.1159 H         1 UNK         0.0600 
    224 H224       -8.3396  -24.0658  -53.5594 H         1 UNK         0.0600 
    225 H225       -3.8568  -25.0701  -53.4658 H         1 UNK         0.3000 
    226 H226       -4.1312  -24.3427  -56.3262 H         1 UNK         0.0600 
    227 H227       -3.1830  -26.5875  -55.5923 H         1 UNK         0.0600 
    228 H228       -2.1353  -25.6502  -56.6471 H         1 UNK         0.0600 
    229 H229       -1.7961  -25.7210  -54.9281 H         1 UNK         0.0600 
    230 H230       -2.9328  -22.8731  -53.4134 H         1 UNK         0.3000 
    231 H231       -0.6423  -21.5798  -54.4014 H         1 UNK         0.0600 
    232 H232       -0.9190  -20.0120  -52.4635 H         1 UNK         0.0600 
    233 H233       -0.9733  -21.7093  -52.0335 H         1 UNK         0.0600 
    234 H234       -2.4562  -20.7699  -52.0843 H         1 UNK         0.0600 
    235 H235       -3.5578  -18.9386  -55.6194 H         1 UNK         0.3000 
    236 H236       -4.2475  -20.8543  -53.4370 H         1 UNK         0.0600 
    237 H237       -6.0132  -19.2682  -55.3586 H         1 UNK         0.0600 
    238 H238       -5.5853  -20.9684  -55.5501 H         1 UNK         0.0600 
    239 H239       -6.5432  -20.4558  -54.1717 H         1 UNK         0.0600 
    240 H240       -3.0587  -17.7999  -53.8016 H         1 UNK         0.3000 
    241 H241       -2.9346  -15.9645  -52.6614 H         1 UNK         0.0600 
    242 H242       -5.8858  -13.7715  -52.5330 H         1 UNK         0.3800 
    243 H243       -4.4877  -14.0724  -51.5324 H         1 UNK         0.3800 
    244 H244       -3.1871  -17.5831  -50.5629 H         1 UNK         0.0800 
    245 H245       -4.7515  -16.8496  -50.3844 H         1 UNK         0.0800 
    246 H246       -4.0500  -13.5756  -48.7446 H         1 UNK         0.0800 
    247 H247       -5.1908  -14.7532  -49.3284 H         1 UNK         0.0800 
@<TRIPOS>BOND
     1    1    2 1    
     2    1  127 1    
     3    1  128 1    
     4    1  129 1    
     5    2    3 2    
     6    2    4 am   BACKBONE|DICT|INTERRES
     7    4    5 1    
     8    4  130 1    
     9    5    6 1    
    10    5   65 1    
    11    5  131 1    
    12    6    7 1    
    13    6  132 1    
    14    6  133 1    
    15    7    8 1    
    16    8    9 1    
    17    8  134 1    
    18    8  135 1    
    19    9   10 ar   
    20    9   14 ar   
    21   10   11 ar   
    22   10  136 1    
    23   11   12 ar   
    24   11  126 1    
    25   12   13 ar   
    26   12  137 1    
    27   13   14 ar   
    28   13   15 1    
    29   14  138 1    
    30   15   16 1    
    31   15  139 1    
    32   15  140 1    
    33   16   17 1    
    34   17   18 1    
    35   17  141 1    
    36   17  142 1    
    37   18   19 1    
    38   18   67 1    
    39   18  143 1    
    40   19   20 am   BACKBONE|DICT|INTERRES
    41   19  144 1    
    42   20   21 2    
    43   20   22 1    
    44   22   23 1    
    45   22   24 1    
    46   22  145 1    
    47   23  146 1    
    48   23  147 1    
    49   23  148 1    
    50   24   25 am   BACKBONE|DICT|INTERRES
    51   24  149 1    
    52   25   26 2    
    53   25   27 1    
    54   27   28 1    
    55   27   29 1    
    56   27  150 1    
    57   28  151 1    
    58   28  152 1    
    59   28  153 1    
    60   29   30 am   BACKBONE|DICT|INTERRES
    61   29  154 1    
    62   30   31 2    
    63   30   32 1    
    64   32   33 1    
    65   32   34 1    
    66   32  155 1    
    67   33  156 1    
    68   33  157 1    
    69   33  158 1    
    70   34   35 am   BACKBONE|DICT|INTERRES
    71   34  159 1    
    72   35   36 2    
    73   35   37 1    
    74   37   38 1    
    75   37   39 1    
    76   37  160 1    
    77   38  161 1    
    78   38  162 1    
    79   38  163 1    
    80   39   40 am   BACKBONE|DICT|INTERRES
    81   39  164 1    
    82   40   41 2    
    83   40   42 1    
    84   42   43 1    
    85   42   44 1    
    86   42  165 1    
    87   43  166 1    
    88   43  167 1    
    89   43  168 1    
    90   44   45 am   BACKBONE|DICT|INTERRES
    91   44  169 1    
    92   45   46 2    
    93   45   47 1    
    94   47   48 1    
    95   47   49 1    
    96   47  170 1    
    97   48  171 1    
    98   48  172 1    
    99   48  173 1    
   100   49   50 am   BACKBONE|DICT|INTERRES
   101   49  174 1    
   102   50   51 2    
   103   50   52 1    
   104   52   53 1    
   105   52   54 1    
   106   52  175 1    
   107   53  176 1    
   108   53  177 1    
   109   53  178 1    
   110   54   55 am   BACKBONE|DICT|INTERRES
   111   54  179 1    
   112   55   56 2    
   113   55   57 1    
   114   57   58 1    
   115   57   59 1    
   116   57  180 1    
   117   58  181 1    
   118   58  182 1    
   119   58  183 1    
   120   59   60 am   BACKBONE|DICT|INTERRES
   121   59  184 1    
   122   60   61 2    
   123   60   62 1    
   124   62   63 1    
   125   62   64 1    
   126   62  185 1    
   127   63  186 1    
   128   63  187 1    
   129   63  188 1    
   130   64   65 am   BACKBONE|DICT|INTERRES
   131   64  189 1    
   132   65   66 2    
   133   67   68 2    
   134   67   69 am   BACKBONE|DICT|INTERRES
   135   69   70 1    
   136   69  190 1    
   137   70   71 1    
   138   70   72 1    
   139   70  191 1    
   140   71  192 1    
   141   71  193 1    
   142   71  194 1    
   143   72   73 2    
   144   72   74 am   BACKBONE|DICT|INTERRES
   145   74   75 1    
   146   74  195 1    
   147   75   76 1    
   148   75   77 1    
   149   75  196 1    
   150   76  197 1    
   151   76  198 1    
   152   76  199 1    
   153   77   78 2    
   154   77   79 am   BACKBONE|DICT|INTERRES
   155   79   80 1    
   156   79  200 1    
   157   80   81 1    
   158   80   82 1    
   159   80  201 1    
   160   81  202 1    
   161   81  203 1    
   162   81  204 1    
   163   82   83 2    
   164   82   84 am   BACKBONE|DICT|INTERRES
   165   84   85 1    
   166   84  205 1    
   167   85   86 1    
   168   85   87 1    
   169   85  206 1    
   170   86  207 1    
   171   86  208 1    
   172   86  209 1    
   173   87   88 2    
   174   87   89 am   BACKBONE|DICT|INTERRES
   175   89   90 1    
   176   89  210 1    
   177   90   91 1    
   178   90   92 1    
   179   90  211 1    
   180   91  212 1    
   181   91  213 1    
   182   91  214 1    
   183   92   93 2    
   184   92   94 am   BACKBONE|DICT|INTERRES
   185   94   95 1    
   186   94  215 1    
   187   95   96 1    
   188   95   97 1    
   189   95  216 1    
   190   96  217 1    
   191   96  218 1    
   192   96  219 1    
   193   97   98 2    
   194   97   99 am   BACKBONE|DICT|INTERRES
   195   99  100 1    
   196   99  220 1    
   197  100  101 1    
   198  100  102 1    
   199  100  221 1    
   200  101  222 1    
   201  101  223 1    
   202  101  224 1    
   203  102  103 2    
   204  102  104 am   BACKBONE|DICT|INTERRES
   205  104  105 1    
   206  104  225 1    
   207  105  106 1    
   208  105  107 1    
   209  105  226 1    
   210  106  227 1    
   211  106  228 1    
   212  106  229 1    
   213  107  108 2    
   214  107  109 am   BACKBONE|DICT|INTERRES
   215  109  110 1    
   216  109  230 1    
   217  110  111 1    
   218  110  112 1    
   219  110  231 1    
   220  111  232 1    
   221  111  233 1    
   222  111  234 1    
   223  112  113 2    
   224  112  114 am   BACKBONE|DICT|INTERRES
   225  114  115 1    
   226  114  235 1    
   227  115  116 1    
   228  115  117 1    
   229  115  236 1    
   230  116  237 1    
   231  116  238 1    
   232  116  239 1    
   233  117  118 2    
   234  117  119 am   BACKBONE|DICT|INTERRES
   235  119  120 1    
   236  119  240 1    
   237  120  121 1    
   238  120  124 1    
   239  120  241 1    
   240  121  122 am   BACKBONE|DICT|INTERRES
   241  121  123 2    
   242  122  242 1    
   243  122  243 1    
   244  124  125 1    
   245  124  244 1    
   246  124  245 1    
   247  125  126 1    
   248  126  246 1    
   249  126  247 1    
@<TRIPOS>SUBSTRUCTURE
     1 UNK         1 GROUP             0       ****    0 ROOT    
