@<TRIPOS>MOLECULE
3R540
247   249    1
SMALL
USER_CHARGES


@<TRIPOS>ATOM
      1 CA          0.0764  -10.9976  -46.2496 C.3       0 UNK        -0.1800 
      2 C           0.3235  -11.7773  -47.5312 C.2       0 UNK         0.5000 
      3 O           0.3072  -11.1871  -48.6118 O.2       0 UNK        -0.5000 
      4 N           0.5593  -13.0899  -47.4241 N.am      1 UNK        -0.5000 
      5 CA          0.8342  -13.9630  -48.5633 C.3       1 UNK         0.1400 
      6 C6         -0.4202  -14.2982  -49.4201 C.3       23 UNK        -0.0398 
      7 S7         -1.8073  -15.0741  -48.5103 S.3       23 UNK        -0.2404 
      8 C8         -2.4587  -16.2712  -49.7222 C.3       23 UNK        -0.0205 
      9 C9         -1.4269  -17.2944  -50.1816 C.ar      23 UNK        -0.0193 
     10 C10        -1.0567  -17.3406  -51.5280 C.ar      23 UNK        -0.1150 
     11 C11        -0.1237  -18.2770  -51.9753 C.ar      23 UNK        -0.0193 
     12 C12         0.4384  -19.1755  -51.0681 C.ar      23 UNK        -0.1150 
     13 C13         0.0848  -19.1451  -49.7159 C.ar      23 UNK        -0.0193 
     14 C14        -0.8552  -18.2003  -49.2800 C.ar      23 UNK        -0.1150 
     15 C15         0.7262  -20.1704  -48.7822 C.3       23 UNK        -0.0205 
     16 S16         0.9572  -19.6283  -47.0524 S.3       23 UNK        -0.2404 
     17 C17         2.0665  -20.9580  -46.4461 C.3       23 UNK        -0.0398 
     18 CA          1.4844  -21.9748  -45.4172 C.3       11 UNK         0.1400 
     19 N           1.8262  -21.6382  -44.0285 N.am      11 UNK        -0.5000 
     20 C           2.9912  -21.9779  -43.4514 C.2       10 UNK         0.5000 
     21 O           3.8818  -22.5917  -44.0412 O.2       10 UNK        -0.5000 
     22 CA          3.2298  -21.5858  -41.9761 C.3       10 UNK         0.1400 
     23 CB          4.1103  -20.3299  -41.8860 C.3       10 UNK        -0.1800 
     24 N           2.0047  -21.3638  -41.2105 N.am      10 UNK        -0.5000 
     25 C           1.1036  -22.3069  -40.9069 C.2       9 UNK         0.5000 
     26 O           1.2669  -23.5042  -41.1434 O.2       9 UNK        -0.5000 
     27 CA         -0.2200  -21.8417  -40.2603 C.3       9 UNK         0.1400 
     28 CB         -0.2081  -22.1439  -38.7539 C.3       9 UNK        -0.1800 
     29 N          -0.5901  -20.4304  -40.4520 N.am      9 UNK        -0.5000 
     30 C          -0.6418  -19.7558  -41.6092 C.2       8 UNK         0.5000 
     31 O          -0.2378  -20.2138  -42.6810 O.2       8 UNK        -0.5000 
     32 CA         -1.2292  -18.3314  -41.5443 C.3       8 UNK         0.1400 
     33 CB         -0.3525  -17.3968  -40.6968 C.3       8 UNK        -0.1800 
     34 N          -1.4010  -17.7460  -42.8748 N.am      8 UNK        -0.5000 
     35 C          -2.3101  -18.1548  -43.7696 C.2       7 UNK         0.5000 
     36 O          -3.1892  -18.9814  -43.5164 O.2       7 UNK        -0.5000 
     37 CA         -2.2092  -17.5287  -45.1761 C.3       7 UNK         0.1400 
     38 CB         -3.4350  -17.8504  -46.0551 C.3       7 UNK        -0.1800 
     39 N          -1.9530  -16.0832  -45.1621 N.am      7 UNK        -0.5000 
     40 C          -2.7205  -15.1345  -44.6056 C.2       6 UNK         0.5000 
     41 O          -3.7217  -15.3637  -43.9244 O.2       6 UNK        -0.5000 
     42 CA         -2.2817  -13.6766  -44.8409 C.3       6 UNK         0.1400 
     43 CB         -3.4791  -12.7105  -44.8768 C.3       6 UNK        -0.1800 
     44 N          -1.3488  -13.2348  -43.8060 N.am      6 UNK        -0.5000 
     45 C          -0.0575  -13.5764  -43.7556 C.2       5 UNK         0.5000 
     46 O           0.4852  -14.2788  -44.6138 O.2       5 UNK        -0.5000 
     47 CA          0.7546  -13.0170  -42.5686 C.3       5 UNK         0.1400 
     48 CB          0.2954  -13.6325  -41.2389 C.3       5 UNK        -0.1800 
     49 N           2.1713  -13.3169  -42.7386 N.am      5 UNK        -0.5000 
     50 C           3.0343  -12.6184  -43.4811 C.2       4 UNK         0.5000 
     51 O           2.8179  -11.4806  -43.8984 O.2       4 UNK        -0.5000 
     52 CA          4.3351  -13.3416  -43.8795 C.3       4 UNK         0.1400 
     53 CB          5.3907  -13.2849  -42.7587 C.3       4 UNK        -0.1800 
     54 N           4.0977  -14.7128  -44.3585 N.am      4 UNK        -0.5000 
     55 C           3.7136  -15.8030  -43.6754 C.2       3 UNK         0.5000 
     56 O           3.5853  -15.8227  -42.4504 O.2       3 UNK        -0.5000 
     57 CA          3.3437  -17.0609  -44.4915 C.3       3 UNK         0.1400 
     58 CB          2.0113  -17.6596  -44.0044 C.3       3 UNK        -0.1800 
     59 N           3.2245  -16.7939  -45.9254 N.am      3 UNK        -0.5000 
     60 C           4.2137  -16.7747  -46.8213 C.2       2 UNK         0.5000 
     61 O           5.3864  -17.0141  -46.5332 O.2       2 UNK        -0.5000 
     62 CA          3.8591  -16.3823  -48.2736 C.3       2 UNK         0.1400 
     63 CB          3.4436  -17.6114  -49.0967 C.3       2 UNK        -0.1800 
     64 N           2.8850  -15.2907  -48.4537 N.am      2 UNK        -0.5000 
     65 C           1.6015  -15.2002  -48.0667 C.2       1 UNK         0.5000 
     66 O           1.0363  -16.0116  -47.3334 O.2       1 UNK        -0.5000 
     67 C          -0.0005  -22.3399  -45.6325 C.2       11 UNK         0.5000 
     68 O          -0.3513  -22.6958  -46.7565 O.2       11 UNK        -0.5000 
     69 N          -0.8413  -22.2769  -44.5877 N.am      12 UNK        -0.5000 
     70 CA         -2.3015  -22.4492  -44.6262 C.3       12 UNK         0.1400 
     71 CB         -2.8424  -22.5209  -43.1899 C.3       12 UNK        -0.1800 
     72 C          -2.8255  -23.6532  -45.4349 C.2       12 UNK         0.5000 
     73 O          -3.8139  -23.5114  -46.1541 O.2       12 UNK        -0.5000 
     74 N          -2.1471  -24.8040  -45.3292 N.am      13 UNK        -0.5000 
     75 CA         -2.4809  -26.0234  -46.0693 C.3       13 UNK         0.1400 
     76 CB         -1.6662  -27.1988  -45.5093 C.3       13 UNK        -0.1800 
     77 C          -2.2614  -25.8827  -47.5878 C.2       13 UNK         0.5000 
     78 O          -3.1004  -26.3312  -48.3697 O.2       13 UNK        -0.5000 
     79 N          -1.1564  -25.2320  -47.9758 N.am      14 UNK        -0.5000 
     80 CA         -0.8271  -24.9199  -49.3661 C.3       14 UNK         0.1400 
     81 CB          0.6553  -24.5307  -49.4762 C.3       14 UNK        -0.1800 
     82 C          -1.7292  -23.8074  -49.9225 C.2       14 UNK         0.5000 
     83 O          -2.1585  -23.8958  -51.0723 O.2       14 UNK        -0.5000 
     84 N          -2.0378  -22.8103  -49.0804 N.am      15 UNK        -0.5000 
     85 CA         -2.9597  -21.7154  -49.3802 C.3       15 UNK         0.1400 
     86 CB         -2.9959  -20.7246  -48.2078 C.3       15 UNK        -0.1800 
     87 C          -4.3757  -22.2279  -49.6856 C.2       15 UNK         0.5000 
     88 O          -4.9685  -21.8072  -50.6774 O.2       15 UNK        -0.5000 
     89 N          -4.8671  -23.1568  -48.8524 N.am      16 UNK        -0.5000 
     90 CA         -6.1499  -23.8364  -49.0191 C.3       16 UNK         0.1400 
     91 CB         -6.4611  -24.6642  -47.7633 C.3       16 UNK        -0.1800 
     92 C          -6.1969  -24.7187  -50.2783 C.2       16 UNK         0.5000 
     93 O          -7.1970  -24.6862  -50.9952 O.2       16 UNK        -0.5000 
     94 N          -5.1119  -25.4612  -50.5453 N.am      17 UNK        -0.5000 
     95 CA         -4.9627  -26.3145  -51.7276 C.3       17 UNK         0.1400 
     96 CB         -3.6974  -27.1742  -51.5891 C.3       17 UNK        -0.1800 
     97 C          -4.9405  -25.5175  -53.0459 C.2       17 UNK         0.5000 
     98 O          -5.5672  -25.9353  -54.0202 O.2       17 UNK        -0.5000 
     99 N          -4.2474  -24.3714  -53.0427 N.am      18 UNK        -0.5000 
    100 CA        -4.1883  -23.4300  -54.1626 C.3       18 UNK         0.1400 
    101 CB        -2.9317  -22.5586  -54.0046 C.3       18 UNK        -0.1800 
    102 C         -5.4366  -22.5323  -54.2745 C.2       18 UNK         0.5000 
    103 O         -5.5771  -21.8266  -55.2730 O.2       18 UNK        -0.5000 
    104 N         -6.2807  -22.5157  -53.2311 N.am      19 UNK        -0.5000 
    105 CA        -7.4309  -21.6256  -53.0186 C.3       19 UNK         0.1400 
    106 CB        -8.5642  -21.9655  -54.0075 C.3       19 UNK        -0.1800 
    107 C         -7.0459  -20.1272  -53.0409 C.2       19 UNK         0.5000 
    108 O         -7.8569  -19.2849  -53.4291 O.2       19 UNK        -0.5000 
    109 N         -5.7895  -19.8399  -52.6653 N.am      20 UNK        -0.5000 
    110 CA        -5.0776  -18.5595  -52.7416 C.3       20 UNK         0.1400 
    111 CB        -5.6527  -17.5640  -51.7150 C.3       20 UNK        -0.1800 
    112 C         -4.9835  -17.9520  -54.1632 C.2       20 UNK         0.5000 
    113 O         -4.6422  -16.7746  -54.2926 O.2       20 UNK        -0.5000 
    114 N         -5.2510  -18.7479  -55.2130 N.am      21 UNK        -0.5000 
    115 CA        -5.2901  -18.3096  -56.6150 C.3       21 UNK         0.1400 
    116 CB        -5.8864  -19.4298  -57.4801 C.3       21 UNK        -0.1800 
    117 C         -3.9200  -17.8713  -57.1670 C.2       21 UNK         0.5000 
    118 O         -3.8633  -17.1071  -58.1311 O.2       21 UNK        -0.5000 
    119 N         -2.8482  -18.3431  -56.5235 N.am      22 UNK        -0.5000 
    120 CA        -1.4633  -17.8917  -56.7015 C.3       22 UNK         0.1400 
    121 C         -1.1782  -16.4406  -56.2057 C.2       22 UNK         0.5000 
    122 N         -2.0601  -15.7982  -55.4467 N.am      22 UNK        -0.7600 
    123 O         -0.1315  -15.8832  -56.5241 O.2       22 UNK        -0.5000 
    124 C124       -0.4650  -18.9137  -56.0935 C.3       23 UNK        -0.0398 
    125 S125       -0.8646  -19.3905  -54.3730 S.3       23 UNK        -0.2404 
    126 C126        0.2683  -18.3201  -53.4406 C.3       23 UNK        -0.0205 
    127 H127        0.3620   -9.9533  -46.3767 H         1 UNK         0.0600 
    128 H128       -0.9785  -11.0325  -45.9815 H         1 UNK         0.0600 
    129 H129        0.6619  -11.4008  -45.4268 H         1 UNK         0.0600 
    130 H130        0.5757  -13.5480  -46.5164 H         1 UNK         0.3000 
    131 H131        1.5162  -13.4209  -49.2226 H         1 UNK         0.0600 
    132 H132       -0.1246  -14.9293  -50.2580 H         1 UNK         0.0800 
    133 H133       -0.8035  -13.3846  -49.8751 H         1 UNK         0.0800 
    134 H134       -3.3080  -16.7975  -49.2867 H         1 UNK         0.0800 
    135 H135       -2.8560  -15.7156  -50.5729 H         1 UNK         0.0800 
    136 H136       -1.4976  -16.6509  -52.2345 H         1 UNK         0.1150 
    137 H137        1.1528  -19.9061  -51.4208 H         1 UNK         0.1150 
    138 H138       -1.1416  -18.1602  -48.2394 H         1 UNK         0.1150 
    139 H139        0.1302  -21.0811  -48.7994 H         1 UNK         0.0800 
    140 H140        1.7050  -20.4385  -49.1823 H         1 UNK         0.0800 
    141 H141        2.4279  -21.5208  -47.3072 H         1 UNK         0.0800 
    142 H142        2.9600  -20.4794  -46.0433 H         1 UNK         0.0800 
    143 H143        1.9771  -22.9264  -45.6292 H         1 UNK         0.0600 
    144 H144        1.1477  -21.0883  -43.5060 H         1 UNK         0.3000 
    145 H145        3.7700  -22.4107  -41.5068 H         1 UNK         0.0600 
    146 H146        4.3603  -20.0962  -40.8510 H         1 UNK         0.0600 
    147 H147        5.0499  -20.4712  -42.4217 H         1 UNK         0.0600 
    148 H148        3.6166  -19.4600  -42.3164 H         1 UNK         0.0600 
    149 H149        1.7757  -20.4062  -40.9909 H         1 UNK         0.3000 
    150 H150       -1.0123  -22.4382  -40.7153 H         1 UNK         0.0600 
    151 H151        0.0300  -23.1916  -38.5640 H         1 UNK         0.0600 
    152 H152       -1.1815  -21.9493  -38.3031 H         1 UNK         0.0600 
    153 H153        0.5330  -21.5388  -38.2302 H         1 UNK         0.0600 
    154 H154       -0.9198  -19.9608  -39.6210 H         1 UNK         0.3000 
    155 H155       -2.2110  -18.4038  -41.0720 H         1 UNK         0.0600 
    156 H156       -0.8453  -16.4349  -40.5592 H         1 UNK         0.0600 
    157 H157        0.6199  -17.2194  -41.1558 H         1 UNK         0.0600 
    158 H158       -0.1749  -17.8026  -39.7004 H         1 UNK         0.0600 
    159 H159       -0.7122  -17.0711  -43.1688 H         1 UNK         0.3000 
    160 H160       -1.3386  -17.9881  -45.6467 H         1 UNK         0.0600 
    161 H161       -4.3490  -17.4114  -45.6549 H         1 UNK         0.0600 
    162 H162       -3.5958  -18.9259  -46.1229 H         1 UNK         0.0600 
    163 H163       -3.2998  -17.4782  -47.0683 H         1 UNK         0.0600 
    164 H164       -1.1186  -15.7878  -45.6561 H         1 UNK         0.3000 
    165 H165       -1.7904  -13.6215  -45.8139 H         1 UNK         0.0600 
    166 H166       -4.0022  -12.6751  -43.9204 H         1 UNK         0.0600 
    167 H167       -3.1634  -11.6966  -45.1211 H         1 UNK         0.0600 
    168 H168       -4.2009  -13.0161  -45.6353 H         1 UNK         0.0600 
    169 H169       -1.7409  -12.6761  -43.0619 H         1 UNK         0.3000 
    170 H170        0.6076  -11.9357  -42.5311 H         1 UNK         0.0600 
    171 H171       -0.7739  -13.4960  -41.0747 H         1 UNK         0.0600 
    172 H172        0.5051  -14.7004  -41.2095 H         1 UNK         0.0600 
    173 H173        0.8129  -13.1720  -40.3971 H         1 UNK         0.0600 
    174 H174        2.4628  -14.2540  -42.4783 H         1 UNK         0.3000 
    175 H175        4.7435  -12.8017  -44.7352 H         1 UNK         0.0600 
    176 H176        6.3096  -13.7898  -43.0566 H         1 UNK         0.0600 
    177 H177        5.6481  -12.2513  -42.5248 H         1 UNK         0.0600 
    178 H178        5.0382  -13.7449  -41.8354 H         1 UNK         0.0600 
    179 H179        4.1263  -14.8171  -45.3620 H         1 UNK         0.3000 
    180 H180        4.1320  -17.7976  -44.3254 H         1 UNK         0.0600 
    181 H181        1.8092  -18.6154  -44.4838 H         1 UNK         0.0600 
    182 H182        2.0202  -17.8457  -42.9313 H         1 UNK         0.0600 
    183 H183        1.1750  -16.9937  -44.2181 H         1 UNK         0.0600 
    184 H184        2.2891  -16.5762  -46.2717 H         1 UNK         0.3000 
    185 H185        4.7878  -16.0107  -48.7097 H         1 UNK         0.0600 
    186 H186        3.4236  -17.3844  -50.1625 H         1 UNK         0.0600 
    187 H187        4.1331  -18.4438  -48.9509 H         1 UNK         0.0600 
    188 H188        2.4509  -17.9510  -48.8153 H         1 UNK         0.0600 
    189 H189        3.2451  -14.5208  -49.0003 H         1 UNK         0.3000 
    190 H190       -0.4825  -21.8955  -43.7220 H         1 UNK         0.3000 
    191 H191       -2.7076  -21.5493  -45.0913 H         1 UNK         0.0600 
    192 H192       -3.9226  -22.6738  -43.1842 H         1 UNK         0.0600 
    193 H193       -2.6528  -21.5959  -42.6483 H         1 UNK         0.0600 
    194 H194       -2.3909  -23.3407  -42.6304 H         1 UNK         0.0600 
    195 H195       -1.3387  -24.8354  -44.7257 H         1 UNK         0.3000 
    196 H196       -3.5398  -26.2371  -45.9078 H         1 UNK         0.0600 
    197 H197       -1.9075  -28.1248  -46.0330 H         1 UNK         0.0600 
    198 H198       -1.8808  -27.3591  -44.4526 H         1 UNK         0.0600 
    199 H199       -0.5933  -27.0326  -45.6131 H         1 UNK         0.0600 
    200 H200       -0.5792  -24.7945  -47.2698 H         1 UNK         0.3000 
    201 H201       -0.9871  -25.8167  -49.9680 H         1 UNK         0.0600 
    202 H202        1.3006  -25.3322  -49.1167 H         1 UNK         0.0600 
    203 H203        0.8860  -23.6323  -48.9034 H         1 UNK         0.0600 
    204 H204        0.9280  -24.3342  -50.5139 H         1 UNK         0.0600 
    205 H205       -1.6001  -22.8074  -48.1627 H         1 UNK         0.3000 
    206 H206       -2.5796  -21.1955  -50.2623 H         1 UNK         0.0600 
    207 H207       -1.9965  -20.4556  -47.8712 H         1 UNK         0.0600 
    208 H208       -3.5022  -19.8047  -48.5020 H         1 UNK         0.0600 
    209 H209       -3.5295  -21.1295  -47.3488 H         1 UNK         0.0600 
    210 H210       -4.3298  -23.4039  -48.0260 H         1 UNK         0.3000 
    211 H211       -6.9214  -23.0704  -49.1212 H         1 UNK         0.0600 
    212 H212       -7.4171  -25.1802  -47.8607 H         1 UNK         0.0600 
    213 H213       -6.5230  -24.0291  -46.8795 H         1 UNK         0.0600 
    214 H214       -5.6958  -25.4190  -47.5784 H         1 UNK         0.0600 
    215 H215       -4.3434  -25.4622  -49.8842 H         1 UNK         0.3000 
    216 H216       -5.8234  -26.9856  -51.7624 H         1 UNK         0.0600 
    217 H217       -3.5803  -27.8377  -52.4468 H         1 UNK         0.0600 
    218 H218       -3.7416  -27.8002  -50.6978 H         1 UNK         0.0600 
    219 H219       -2.7986  -26.5611  -51.5236 H         1 UNK         0.0600 
    220 H220       -3.7012  -24.1298  -52.2194 H         1 UNK         0.3000 
    221 H221       -4.1009  -23.9918  -55.0947 H         1 UNK         0.0600 
    222 H222       -2.9686  -21.9605  -53.0927 H         1 UNK         0.0600 
    223 H223       -2.0294  -23.1691  -53.9654 H         1 UNK         0.0600 
    224 H224       -2.8211  -21.8711  -54.8442 H         1 UNK         0.0600 
    225 H225       -6.0485  -23.1057  -52.4433 H         1 UNK         0.3000 
    226 H226       -7.7928  -21.8324  -52.0105 H         1 UNK         0.0600 
    227 H227       -8.8145  -23.0257  -53.9685 H         1 UNK         0.0600 
    228 H228       -9.4720  -21.4100  -53.7696 H         1 UNK         0.0600 
    229 H229       -8.2914  -21.7223  -55.0349 H         1 UNK         0.0600 
    230 H230       -5.2571  -20.6105  -52.2731 H         1 UNK         0.3000 
    231 H231       -4.0492  -18.7743  -52.4466 H         1 UNK         0.0600 
    232 H232       -5.0528  -16.6546  -51.6686 H         1 UNK         0.0600 
    233 H233       -5.6621  -17.9943  -50.7135 H         1 UNK         0.0600 
    234 H234       -6.6725  -17.2707  -51.9653 H         1 UNK         0.0600 
    235 H235       -5.4934  -19.7179  -55.0436 H         1 UNK         0.3000 
    236 H236       -5.9554  -17.4457  -56.6719 H         1 UNK         0.0600 
    237 H237       -5.2438  -20.3108  -57.4938 H         1 UNK         0.0600 
    238 H238       -6.0125  -19.1008  -58.5122 H         1 UNK         0.0600 
    239 H239       -6.8666  -19.7347  -57.1129 H         1 UNK         0.0600 
    240 H240       -3.0016  -18.9614  -55.7405 H         1 UNK         0.3000 
    241 H241       -1.2773  -17.8669  -57.7769 H         1 UNK         0.0600 
    242 H242       -1.8563  -14.8580  -55.1487 H         1 UNK         0.3800 
    243 H243       -2.9327  -16.2309  -55.1626 H         1 UNK         0.3800 
    244 H244        0.5634  -18.5530  -56.1555 H         1 UNK         0.0800 
    245 H245       -0.4858  -19.8258  -56.6912 H         1 UNK         0.0800 
    246 H246        0.2555  -17.3094  -53.8496 H         1 UNK         0.0800 
    247 H247        1.2900  -18.6859  -53.5531 H         1 UNK         0.0800 
@<TRIPOS>BOND
     1    1    2 1    
     2    1  127 1    
     3    1  128 1    
     4    1  129 1    
     5    2    3 2    
     6    2    4 am   BACKBONE|DICT|INTERRES
     7    4    5 1    
     8    4  130 1    
     9    5    6 1    
    10    5   65 1    
    11    5  131 1    
    12    6    7 1    
    13    6  132 1    
    14    6  133 1    
    15    7    8 1    
    16    8    9 1    
    17    8  134 1    
    18    8  135 1    
    19    9   10 ar   
    20    9   14 ar   
    21   10   11 ar   
    22   10  136 1    
    23   11   12 ar   
    24   11  126 1    
    25   12   13 ar   
    26   12  137 1    
    27   13   14 ar   
    28   13   15 1    
    29   14  138 1    
    30   15   16 1    
    31   15  139 1    
    32   15  140 1    
    33   16   17 1    
    34   17   18 1    
    35   17  141 1    
    36   17  142 1    
    37   18   19 1    
    38   18   67 1    
    39   18  143 1    
    40   19   20 am   BACKBONE|DICT|INTERRES
    41   19  144 1    
    42   20   21 2    
    43   20   22 1    
    44   22   23 1    
    45   22   24 1    
    46   22  145 1    
    47   23  146 1    
    48   23  147 1    
    49   23  148 1    
    50   24   25 am   BACKBONE|DICT|INTERRES
    51   24  149 1    
    52   25   26 2    
    53   25   27 1    
    54   27   28 1    
    55   27   29 1    
    56   27  150 1    
    57   28  151 1    
    58   28  152 1    
    59   28  153 1    
    60   29   30 am   BACKBONE|DICT|INTERRES
    61   29  154 1    
    62   30   31 2    
    63   30   32 1    
    64   32   33 1    
    65   32   34 1    
    66   32  155 1    
    67   33  156 1    
    68   33  157 1    
    69   33  158 1    
    70   34   35 am   BACKBONE|DICT|INTERRES
    71   34  159 1    
    72   35   36 2    
    73   35   37 1    
    74   37   38 1    
    75   37   39 1    
    76   37  160 1    
    77   38  161 1    
    78   38  162 1    
    79   38  163 1    
    80   39   40 am   BACKBONE|DICT|INTERRES
    81   39  164 1    
    82   40   41 2    
    83   40   42 1    
    84   42   43 1    
    85   42   44 1    
    86   42  165 1    
    87   43  166 1    
    88   43  167 1    
    89   43  168 1    
    90   44   45 am   BACKBONE|DICT|INTERRES
    91   44  169 1    
    92   45   46 2    
    93   45   47 1    
    94   47   48 1    
    95   47   49 1    
    96   47  170 1    
    97   48  171 1    
    98   48  172 1    
    99   48  173 1    
   100   49   50 am   BACKBONE|DICT|INTERRES
   101   49  174 1    
   102   50   51 2    
   103   50   52 1    
   104   52   53 1    
   105   52   54 1    
   106   52  175 1    
   107   53  176 1    
   108   53  177 1    
   109   53  178 1    
   110   54   55 am   BACKBONE|DICT|INTERRES
   111   54  179 1    
   112   55   56 2    
   113   55   57 1    
   114   57   58 1    
   115   57   59 1    
   116   57  180 1    
   117   58  181 1    
   118   58  182 1    
   119   58  183 1    
   120   59   60 am   BACKBONE|DICT|INTERRES
   121   59  184 1    
   122   60   61 2    
   123   60   62 1    
   124   62   63 1    
   125   62   64 1    
   126   62  185 1    
   127   63  186 1    
   128   63  187 1    
   129   63  188 1    
   130   64   65 am   BACKBONE|DICT|INTERRES
   131   64  189 1    
   132   65   66 2    
   133   67   68 2    
   134   67   69 am   BACKBONE|DICT|INTERRES
   135   69   70 1    
   136   69  190 1    
   137   70   71 1    
   138   70   72 1    
   139   70  191 1    
   140   71  192 1    
   141   71  193 1    
   142   71  194 1    
   143   72   73 2    
   144   72   74 am   BACKBONE|DICT|INTERRES
   145   74   75 1    
   146   74  195 1    
   147   75   76 1    
   148   75   77 1    
   149   75  196 1    
   150   76  197 1    
   151   76  198 1    
   152   76  199 1    
   153   77   78 2    
   154   77   79 am   BACKBONE|DICT|INTERRES
   155   79   80 1    
   156   79  200 1    
   157   80   81 1    
   158   80   82 1    
   159   80  201 1    
   160   81  202 1    
   161   81  203 1    
   162   81  204 1    
   163   82   83 2    
   164   82   84 am   BACKBONE|DICT|INTERRES
   165   84   85 1    
   166   84  205 1    
   167   85   86 1    
   168   85   87 1    
   169   85  206 1    
   170   86  207 1    
   171   86  208 1    
   172   86  209 1    
   173   87   88 2    
   174   87   89 am   BACKBONE|DICT|INTERRES
   175   89   90 1    
   176   89  210 1    
   177   90   91 1    
   178   90   92 1    
   179   90  211 1    
   180   91  212 1    
   181   91  213 1    
   182   91  214 1    
   183   92   93 2    
   184   92   94 am   BACKBONE|DICT|INTERRES
   185   94   95 1    
   186   94  215 1    
   187   95   96 1    
   188   95   97 1    
   189   95  216 1    
   190   96  217 1    
   191   96  218 1    
   192   96  219 1    
   193   97   98 2    
   194   97   99 am   BACKBONE|DICT|INTERRES
   195   99  100 1    
   196   99  220 1    
   197  100  101 1    
   198  100  102 1    
   199  100  221 1    
   200  101  222 1    
   201  101  223 1    
   202  101  224 1    
   203  102  103 2    
   204  102  104 am   BACKBONE|DICT|INTERRES
   205  104  105 1    
   206  104  225 1    
   207  105  106 1    
   208  105  107 1    
   209  105  226 1    
   210  106  227 1    
   211  106  228 1    
   212  106  229 1    
   213  107  108 2    
   214  107  109 am   BACKBONE|DICT|INTERRES
   215  109  110 1    
   216  109  230 1    
   217  110  111 1    
   218  110  112 1    
   219  110  231 1    
   220  111  232 1    
   221  111  233 1    
   222  111  234 1    
   223  112  113 2    
   224  112  114 am   BACKBONE|DICT|INTERRES
   225  114  115 1    
   226  114  235 1    
   227  115  116 1    
   228  115  117 1    
   229  115  236 1    
   230  116  237 1    
   231  116  238 1    
   232  116  239 1    
   233  117  118 2    
   234  117  119 am   BACKBONE|DICT|INTERRES
   235  119  120 1    
   236  119  240 1    
   237  120  121 1    
   238  120  124 1    
   239  120  241 1    
   240  121  122 am   BACKBONE|DICT|INTERRES
   241  121  123 2    
   242  122  242 1    
   243  122  243 1    
   244  124  125 1    
   245  124  244 1    
   246  124  245 1    
   247  125  126 1    
   248  126  246 1    
   249  126  247 1    
@<TRIPOS>SUBSTRUCTURE
     1 UNK         1 GROUP             0       ****    0 ROOT    
