@<TRIPOS>MOLECULE
3R540
247   249    1
SMALL
USER_CHARGES


@<TRIPOS>ATOM
      1 CA          5.4237   -9.9833  -47.7458 C.3       0 UNK        -0.1800 
      2 C           4.7298  -11.2777  -47.3503 C.2       0 UNK         0.5000 
      3 O           5.3277  -12.3496  -47.4448 O.2       0 UNK        -0.5000 
      4 N           3.4764  -11.1921  -46.8844 N.am      1 UNK        -0.5000 
      5 CA          2.6573  -12.3444  -46.4826 C.3       1 UNK         0.1400 
      6 C6          1.1868  -11.9390  -46.2092 C.3       23 UNK        -0.0398 
      7 S7          0.0262  -13.2807  -46.6221 S.3       23 UNK        -0.2404 
      8 C8         -0.2306  -12.9325  -48.3886 C.3       23 UNK        -0.0205 
      9 C9         -0.9226  -14.0927  -49.0793 C.ar      23 UNK        -0.0193 
     10 C10        -2.2993  -14.0578  -49.3152 C.ar      23 UNK        -0.1150 
     11 C11        -2.9357  -15.1285  -49.9486 C.ar      23 UNK        -0.0193 
     12 C12        -2.1837  -16.2420  -50.3347 C.ar      23 UNK        -0.1150 
     13 C13        -0.8074  -16.2913  -50.1009 C.ar      23 UNK        -0.0193 
     14 C14        -0.1797  -15.2042  -49.4858 C.ar      23 UNK        -0.1150 
     15 C15        -0.0151  -17.5348  -50.4895 C.3       23 UNK        -0.0205 
     16 S16         0.9513  -18.2254  -49.1047 S.3       23 UNK        -0.2404 
     17 C17        -0.3109  -18.3682  -47.7957 C.3       23 UNK        -0.0398 
     18 CA         -0.5107  -19.8188  -47.3022 C.3       11 UNK         0.1400 
     19 N          -0.9048  -19.8443  -45.8931 N.am      11 UNK        -0.5000 
     20 C          -0.9846  -20.9402  -45.1292 C.2       10 UNK         0.5000 
     21 O          -0.6640  -22.0632  -45.5108 O.2       10 UNK        -0.5000 
     22 CA         -1.5713  -20.7550  -43.7192 C.3       10 UNK         0.1400 
     23 CB         -0.4801  -20.3591  -42.7136 C.3       10 UNK        -0.1800 
     24 N          -2.6447  -19.7597  -43.7081 N.am      10 UNK        -0.5000 
     25 C          -3.8528  -19.9570  -44.2554 C.2       9 UNK         0.5000 
     26 O          -4.2019  -21.0213  -44.7659 O.2       9 UNK        -0.5000 
     27 CA         -4.8133  -18.7524  -44.2735 C.3       9 UNK         0.1400 
     28 CB         -5.5690  -18.6438  -42.9409 C.3       9 UNK        -0.1800 
     29 N          -4.1328  -17.4849  -44.5490 N.am      9 UNK        -0.5000 
     30 C          -3.5346  -17.1808  -45.7103 C.2       8 UNK         0.5000 
     31 O          -3.5176  -17.9336  -46.6820 O.2       8 UNK        -0.5000 
     32 CA         -2.7688  -15.8430  -45.7668 C.3       8 UNK         0.1400 
     33 CB         -3.7167  -14.6937  -46.1388 C.3       8 UNK        -0.1800 
     34 N          -2.0814  -15.5147  -44.5119 N.am      8 UNK        -0.5000 
     35 C          -1.1487  -16.2819  -43.9338 C.2       7 UNK         0.5000 
     36 O          -0.7642  -17.3555  -44.4066 O.2       7 UNK        -0.5000 
     37 CA         -0.6047  -15.8143  -42.5755 C.3       7 UNK         0.1400 
     38 CB         -1.6954  -15.9386  -41.4915 C.3       7 UNK        -0.1800 
     39 N           0.5382  -16.6583  -42.2462 N.am      7 UNK        -0.5000 
     40 C           1.4009  -16.5167  -41.2337 C.2       6 UNK         0.5000 
     41 O           1.3515  -15.6030  -40.4096 O.2       6 UNK        -0.5000 
     42 CA          2.5134  -17.5820  -41.1257 C.3       6 UNK         0.1400 
     43 CB          2.0891  -18.7071  -40.1691 C.3       6 UNK        -0.1800 
     44 N           2.8738  -18.1651  -42.4230 N.am      6 UNK        -0.5000 
     45 C           3.5388  -17.4974  -43.3749 C.2       5 UNK         0.5000 
     46 O           4.0030  -16.3709  -43.1994 O.2       5 UNK        -0.5000 
     47 CA          3.7061  -18.1932  -44.7372 C.3       5 UNK         0.1400 
     48 CB          2.3876  -18.8183  -45.2375 C.3       5 UNK        -0.1800 
     49 N           4.1987  -17.2197  -45.7084 N.am      5 UNK        -0.5000 
     50 C           4.7764  -17.5057  -46.8805 C.2       4 UNK         0.5000 
     51 O           4.9601  -18.6514  -47.2938 O.2       4 UNK        -0.5000 
     52 CA          5.2520  -16.3107  -47.7283 C.3       4 UNK         0.1400 
     53 CB          4.0759  -15.6928  -48.5029 C.3       4 UNK        -0.1800 
     54 N           5.9145  -15.2733  -46.9357 N.am      4 UNK        -0.5000 
     55 C           7.0856  -15.4221  -46.2974 C.2       3 UNK         0.5000 
     56 O           7.7565  -16.4543  -46.3308 O.2       3 UNK        -0.5000 
     57 CA          7.5939  -14.2220  -45.4785 C.3       3 UNK         0.1400 
     58 CB          8.4403  -13.2817  -46.3512 C.3       3 UNK        -0.1800 
     59 N           6.4786  -13.4785  -44.8923 N.am      3 UNK        -0.5000 
     60 C           5.9907  -13.7010  -43.6632 C.2       2 UNK         0.5000 
     61 O           6.5354  -14.4420  -42.8436 O.2       2 UNK        -0.5000 
     62 CA          4.6912  -12.9688  -43.2626 C.3       2 UNK         0.1400 
     63 CB          4.9979  -11.8305  -42.2766 C.3       2 UNK        -0.1800 
     64 N           3.9465  -12.4162  -44.3959 N.am      2 UNK        -0.5000 
     65 C           3.2684  -13.1338  -45.3036 C.2       1 UNK         0.5000 
     66 O           3.1726  -14.3594  -45.2786 O.2       1 UNK        -0.5000 
     67 C          -1.5070  -20.5998  -48.1884 C.2       11 UNK         0.5000 
     68 O          -1.0853  -21.3957  -49.0265 O.2       11 UNK        -0.5000 
     69 N          -2.8118  -20.4071  -47.9464 N.am      12 UNK        -0.5000 
     70 CA         -3.8967  -21.1550  -48.5829 C.3       12 UNK         0.1400 
     71 CB         -5.2449  -20.5228  -48.2093 C.3       12 UNK        -0.1800 
     72 C          -3.8755  -22.6539  -48.2270 C.2       12 UNK         0.5000 
     73 O          -4.0989  -23.4872  -49.1046 O.2       12 UNK        -0.5000 
     74 N          -3.5739  -22.9799  -46.9622 N.am      13 UNK        -0.5000 
     75 CA         -3.3923  -24.3556  -46.4934 C.3       13 UNK         0.1400 
     76 CB         -3.3262  -24.3775  -44.9592 C.3       13 UNK        -0.1800 
     77 C          -2.1545  -25.0363  -47.1103 C.2       13 UNK         0.5000 
     78 O          -2.2184  -26.2202  -47.4400 O.2       13 UNK        -0.5000 
     79 N          -1.0628  -24.2760  -47.2814 N.am      14 UNK        -0.5000 
     80 CA          0.1585  -24.7081  -47.9640 C.3       14 UNK         0.1400 
     81 CB          1.2789  -23.6838  -47.7290 C.3       14 UNK        -0.1800 
     82 C          -0.0587  -24.9549  -49.4690 C.2       14 UNK         0.5000 
     83 O           0.5414  -25.8776  -50.0227 O.2       14 UNK        -0.5000 
     84 N          -0.9551  -24.1790  -50.0954 N.am      15 UNK        -0.5000 
     85 CA         -1.4505  -24.3630  -51.4623 C.3       15 UNK         0.1400 
     86 CB         -2.0493  -23.0362  -51.9655 C.3       15 UNK        -0.1800 
     87 C          -2.4508  -25.5374  -51.5577 C.2       15 UNK         0.5000 
     88 O          -3.5878  -25.3528  -51.9994 O.2       15 UNK        -0.5000 
     89 N          -2.0027  -26.7229  -51.1219 N.am      16 UNK        -0.5000 
     90 CA         -2.6890  -28.0152  -51.0248 C.3       16 UNK         0.1400 
     91 CB         -3.0918  -28.5406  -52.4162 C.3       16 UNK        -0.1800 
     92 C          -3.8796  -28.0229  -50.0466 C.2       16 UNK         0.5000 
     93 O          -3.8575  -28.7719  -49.0695 O.2       16 UNK        -0.5000 
     94 N          -4.8876  -27.1987  -50.3408 N.am      17 UNK        -0.5000 
     95 CA         -6.1389  -27.0056  -49.6154 C.3       17 UNK         0.1400 
     96 CB         -6.9469  -28.3201  -49.5167 C.3       17 UNK        -0.1800 
     97 C          -6.9182  -25.8956  -50.3398 C.2       17 UNK         0.5000 
     98 O          -8.0156  -26.1398  -50.8449 O.2       17 UNK        -0.5000 
     99 N          -6.3053  -24.7054  -50.4248 N.am      18 UNK        -0.5000 
    100 CA        -6.7868  -23.5138  -51.1313 C.3       18 UNK         0.1400 
    101 CB        -8.0574  -22.9525  -50.4555 C.3       18 UNK        -0.1800 
    102 C         -6.9471  -23.7357  -52.6510 C.2       18 UNK         0.5000 
    103 O         -7.9132  -23.2606  -53.2503 O.2       18 UNK        -0.5000 
    104 N         -5.9905  -24.4577  -53.2505 N.am      19 UNK        -0.5000 
    105 CA        -5.9641  -24.7791  -54.6793 C.3       19 UNK         0.1400 
    106 CB        -5.1237  -26.0481  -54.8894 C.3       19 UNK        -0.1800 
    107 C         -5.4316  -23.6253  -55.5514 C.2       19 UNK         0.5000 
    108 O         -5.5956  -23.6697  -56.7717 O.2       19 UNK        -0.5000 
    109 N         -4.8079  -22.6210  -54.9261 N.am      20 UNK        -0.5000 
    110 CA        -4.2927  -21.4144  -55.5598 C.3       20 UNK         0.1400 
    111 CB        -2.8058  -21.6098  -55.9021 C.3       20 UNK        -0.1800 
    112 C         -4.4913  -20.2264  -54.6091 C.2       20 UNK         0.5000 
    113 O         -4.6463  -20.4242  -53.3987 O.2       20 UNK        -0.5000 
    114 N         -4.4669  -19.0149  -55.1825 N.am      21 UNK        -0.5000 
    115 CA        -4.6377  -17.7212  -54.5147 C.3       21 UNK         0.1400 
    116 CB        -3.3956  -17.4036  -53.6505 C.3       21 UNK        -0.1800 
    117 C         -5.9822  -17.6481  -53.7574 C.2       21 UNK         0.5000 
    118 O         -7.0275  -17.8837  -54.3667 O.2       21 UNK        -0.5000 
    119 N         -5.9338  -17.3440  -52.4570 N.am      22 UNK        -0.5000 
    120 CA        -7.0723  -17.3835  -51.5270 C.3       22 UNK         0.1400 
    121 C         -7.4008  -18.8048  -50.9796 C.2       22 UNK         0.5000 
    122 N         -6.6788  -19.8561  -51.3485 N.am      22 UNK        -0.7600 
    123 O         -8.3487  -18.9653  -50.2161 O.2       22 UNK        -0.5000 
    124 C124       -6.9218  -16.3312  -50.3945 C.3       23 UNK        -0.0398 
    125 S125       -5.3418  -16.4438  -49.4824 S.3       23 UNK        -0.2404 
    126 C126       -4.4255  -15.0694  -50.2492 C.3       23 UNK        -0.0205 
    127 H127        5.7021  -10.0156  -48.7991 H         1 UNK         0.0600 
    128 H128        6.3308   -9.8501  -47.1564 H         1 UNK         0.0600 
    129 H129        4.7834   -9.1152  -47.5884 H         1 UNK         0.0600 
    130 H130        3.0356  -10.2854  -46.8178 H         1 UNK         0.3000 
    131 H131        2.6703  -13.0174  -47.3426 H         1 UNK         0.0600 
    132 H132        0.9100  -11.0673  -46.8041 H         1 UNK         0.0800 
    133 H133        1.0367  -11.6409  -45.1698 H         1 UNK         0.0800 
    134 H134        0.7286  -12.7461  -48.8739 H         1 UNK         0.0800 
    135 H135       -0.8148  -12.0172  -48.4966 H         1 UNK         0.0800 
    136 H136       -2.8732  -13.1948  -49.0081 H         1 UNK         0.1150 
    137 H137       -2.6775  -17.0787  -50.8057 H         1 UNK         0.1150 
    138 H138        0.8844  -15.2357  -49.2970 H         1 UNK         0.1150 
    139 H139       -0.6786  -18.3139  -50.8685 H         1 UNK         0.0800 
    140 H140        0.6638  -17.2824  -51.3048 H         1 UNK         0.0800 
    141 H141       -1.2594  -17.9310  -48.1070 H         1 UNK         0.0800 
    142 H142        0.0359  -17.7320  -46.9815 H         1 UNK         0.0800 
    143 H143        0.4487  -20.3376  -47.3569 H         1 UNK         0.0600 
    144 H144       -1.1334  -18.9503  -45.4702 H         1 UNK         0.3000 
    145 H145       -1.9890  -21.7125  -43.4014 H         1 UNK         0.0600 
    146 H146       -0.8906  -20.2501  -41.7097 H         1 UNK         0.0600 
    147 H147       -0.0000  -19.4204  -42.9836 H         1 UNK         0.0600 
    148 H148        0.2980  -21.1218  -42.6660 H         1 UNK         0.0600 
    149 H149       -2.4119  -18.8423  -43.3588 H         1 UNK         0.3000 
    150 H150       -5.5432  -18.9227  -45.0678 H         1 UNK         0.0600 
    151 H151       -6.1001  -19.5701  -42.7174 H         1 UNK         0.0600 
    152 H152       -6.3104  -17.8452  -42.9722 H         1 UNK         0.0600 
    153 H153       -4.8936  -18.4433  -42.1083 H         1 UNK         0.0600 
    154 H154       -4.0969  -16.8119  -43.7982 H         1 UNK         0.3000 
    155 H155       -2.0122  -15.9279  -46.5501 H         1 UNK         0.0600 
    156 H156       -4.2399  -14.9068  -47.0712 H         1 UNK         0.0600 
    157 H157       -3.1683  -13.7626  -46.2825 H         1 UNK         0.0600 
    158 H158       -4.4716  -14.5263  -45.3699 H         1 UNK         0.0600 
    159 H159       -2.3474  -14.6472  -44.0693 H         1 UNK         0.3000 
    160 H160       -0.2720  -14.7786  -42.6656 H         1 UNK         0.0600 
    161 H161       -2.0252  -16.9715  -41.3718 H         1 UNK         0.0600 
    162 H162       -2.5723  -15.3396  -41.7388 H         1 UNK         0.0600 
    163 H163       -1.3401  -15.5896  -40.5223 H         1 UNK         0.0600 
    164 H164        0.6756  -17.4086  -42.9110 H         1 UNK         0.3000 
    165 H165        3.3973  -17.0962  -40.7065 H         1 UNK         0.0600 
    166 H166        2.8889  -19.4359  -40.0370 H         1 UNK         0.0600 
    167 H167        1.8478  -18.3089  -39.1827 H         1 UNK         0.0600 
    168 H168        1.2078  -19.2362  -40.5323 H         1 UNK         0.0600 
    169 H169        2.5497  -19.1026  -42.6076 H         1 UNK         0.3000 
    170 H170        4.4559  -18.9770  -44.6148 H         1 UNK         0.0600 
    171 H171        1.6016  -18.0675  -45.2993 H         1 UNK         0.0600 
    172 H172        2.5006  -19.2604  -46.2271 H         1 UNK         0.0600 
    173 H173        2.0396  -19.6134  -44.5784 H         1 UNK         0.0600 
    174 H174        4.0939  -16.2493  -45.4207 H         1 UNK         0.3000 
    175 H175        5.9759  -16.6839  -48.4556 H         1 UNK         0.0600 
    176 H176        3.2897  -15.3435  -47.8334 H         1 UNK         0.0600 
    177 H177        4.4000  -14.8482  -49.1111 H         1 UNK         0.0600 
    178 H178        3.6267  -16.4255  -49.1743 H         1 UNK         0.0600 
    179 H179        5.4595  -14.3693  -46.9037 H         1 UNK         0.3000 
    180 H180        8.2416  -14.6083  -44.6887 H         1 UNK         0.0600 
    181 H181        8.8071  -12.4327  -45.7743 H         1 UNK         0.0600 
    182 H182        7.8778  -12.8924  -47.1997 H         1 UNK         0.0600 
    183 H183        9.3106  -13.8037  -46.7506 H         1 UNK         0.0600 
    184 H184        5.9754  -12.8620  -45.5180 H         1 UNK         0.3000 
    185 H185        4.0506  -13.6941  -42.7568 H         1 UNK         0.0600 
    186 H186        5.6286  -11.0647  -42.7300 H         1 UNK         0.0600 
    187 H187        4.0824  -11.3514  -41.9292 H         1 UNK         0.0600 
    188 H188        5.5198  -12.2061  -41.3955 H         1 UNK         0.0600 
    189 H189        3.9914  -11.4148  -44.5165 H         1 UNK         0.3000 
    190 H190       -3.0847  -19.6759  -47.2943 H         1 UNK         0.3000 
    191 H191       -3.7716  -21.0684  -49.6642 H         1 UNK         0.0600 
    192 H192       -5.2952  -19.4838  -48.5356 H         1 UNK         0.0600 
    193 H193       -5.4175  -20.5427  -47.1336 H         1 UNK         0.0600 
    194 H194       -6.0710  -21.0531  -48.6832 H         1 UNK         0.0600 
    195 H195       -3.4689  -22.2410  -46.2758 H         1 UNK         0.3000 
    196 H196       -4.2700  -24.9292  -46.7993 H         1 UNK         0.0600 
    197 H197       -4.2180  -23.9310  -44.5190 H         1 UNK         0.0600 
    198 H198       -2.4595  -23.8346  -44.5839 H         1 UNK         0.0600 
    199 H199       -3.2566  -25.4007  -44.5882 H         1 UNK         0.0600 
    200 H200       -1.0601  -23.3349  -46.8986 H         1 UNK         0.3000 
    201 H201        0.4704  -25.6546  -47.5177 H         1 UNK         0.0600 
    202 H202        1.4738  -23.5495  -46.6649 H         1 UNK         0.0600 
    203 H203        1.0327  -22.7092  -48.1491 H         1 UNK         0.0600 
    204 H204        2.2103  -24.0130  -48.1912 H         1 UNK         0.0600 
    205 H205       -1.3696  -23.4168  -49.5711 H         1 UNK         0.3000 
    206 H206       -0.6049  -24.6083  -52.1077 H         1 UNK         0.0600 
    207 H207       -2.9107  -22.7288  -51.3731 H         1 UNK         0.0600 
    208 H208       -1.3154  -22.2311  -51.9278 H         1 UNK         0.0600 
    209 H209       -2.3812  -23.1266  -52.9999 H         1 UNK         0.0600 
    210 H210       -1.0591  -26.7189  -50.7458 H         1 UNK         0.3000 
    211 H211       -1.9496  -28.7082  -50.6203 H         1 UNK         0.0600 
    212 H212       -3.8177  -27.8926  -52.9055 H         1 UNK         0.0600 
    213 H213       -3.5396  -29.5323  -52.3421 H         1 UNK         0.0600 
    214 H214       -2.2245  -28.6233  -53.0710 H         1 UNK         0.0600 
    215 H215       -4.7414  -26.5742  -51.1296 H         1 UNK         0.3000 
    216 H216       -5.9089  -26.6515  -48.6088 H         1 UNK         0.0600 
    217 H217       -7.9192  -28.1473  -49.0536 H         1 UNK         0.0600 
    218 H218       -6.4387  -29.0651  -48.9058 H         1 UNK         0.0600 
    219 H219       -7.1230  -28.7568  -50.5005 H         1 UNK         0.0600 
    220 H220       -5.3979  -24.5843  -49.9795 H         1 UNK         0.3000 
    221 H221       -5.9998  -22.7660  -51.0257 H         1 UNK         0.0600 
    222 H222       -8.8908  -23.6527  -50.5137 H         1 UNK         0.0600 
    223 H223       -7.8791  -22.7340  -49.4027 H         1 UNK         0.0600 
    224 H224       -8.3889  -22.0283  -50.9284 H         1 UNK         0.0600 
    225 H225       -5.1981  -24.7871  -52.7028 H         1 UNK         0.3000 
    226 H226       -6.9828  -24.9936  -55.0091 H         1 UNK         0.0600 
    227 H227       -5.5198  -26.8811  -54.3086 H         1 UNK         0.0600 
    228 H228       -5.1295  -26.3524  -55.9367 H         1 UNK         0.0600 
    229 H229       -4.0836  -25.8959  -54.5992 H         1 UNK         0.0600 
    230 H230       -4.7668  -22.6183  -53.9158 H         1 UNK         0.3000 
    231 H231       -4.8526  -21.2102  -56.4751 H         1 UNK         0.0600 
    232 H232       -2.4012  -20.7333  -56.4093 H         1 UNK         0.0600 
    233 H233       -2.6623  -22.4628  -56.5656 H         1 UNK         0.0600 
    234 H234       -2.2052  -21.7765  -55.0075 H         1 UNK         0.0600 
    235 H235       -4.3613  -18.9663  -56.1860 H         1 UNK         0.3000 
    236 H236       -4.6929  -16.9682  -55.3021 H         1 UNK         0.0600 
    237 H237       -3.2674  -18.1194  -52.8380 H         1 UNK         0.0600 
    238 H238       -2.4878  -17.4310  -54.2533 H         1 UNK         0.0600 
    239 H239       -3.4562  -16.4043  -53.2183 H         1 UNK         0.0600 
    240 H240       -5.0328  -17.2053  -52.0252 H         1 UNK         0.3000 
    241 H241       -7.9632  -17.0974  -52.0890 H         1 UNK         0.0600 
    242 H242       -6.9385  -20.7531  -50.9824 H         1 UNK         0.3800 
    243 H243       -5.9206  -19.7836  -52.0191 H         1 UNK         0.3800 
    244 H244       -7.7401  -16.4122  -49.6771 H         1 UNK         0.0800 
    245 H245       -7.0168  -15.3310  -50.8189 H         1 UNK         0.0800 
    246 H246       -4.8543  -14.1279  -49.9025 H         1 UNK         0.0800 
    247 H247       -4.5597  -15.0883  -51.3309 H         1 UNK         0.0800 
@<TRIPOS>BOND
     1    1    2 1    
     2    1  127 1    
     3    1  128 1    
     4    1  129 1    
     5    2    3 2    
     6    2    4 am   BACKBONE|DICT|INTERRES
     7    4    5 1    
     8    4  130 1    
     9    5    6 1    
    10    5   65 1    
    11    5  131 1    
    12    6    7 1    
    13    6  132 1    
    14    6  133 1    
    15    7    8 1    
    16    8    9 1    
    17    8  134 1    
    18    8  135 1    
    19    9   10 ar   
    20    9   14 ar   
    21   10   11 ar   
    22   10  136 1    
    23   11   12 ar   
    24   11  126 1    
    25   12   13 ar   
    26   12  137 1    
    27   13   14 ar   
    28   13   15 1    
    29   14  138 1    
    30   15   16 1    
    31   15  139 1    
    32   15  140 1    
    33   16   17 1    
    34   17   18 1    
    35   17  141 1    
    36   17  142 1    
    37   18   19 1    
    38   18   67 1    
    39   18  143 1    
    40   19   20 am   BACKBONE|DICT|INTERRES
    41   19  144 1    
    42   20   21 2    
    43   20   22 1    
    44   22   23 1    
    45   22   24 1    
    46   22  145 1    
    47   23  146 1    
    48   23  147 1    
    49   23  148 1    
    50   24   25 am   BACKBONE|DICT|INTERRES
    51   24  149 1    
    52   25   26 2    
    53   25   27 1    
    54   27   28 1    
    55   27   29 1    
    56   27  150 1    
    57   28  151 1    
    58   28  152 1    
    59   28  153 1    
    60   29   30 am   BACKBONE|DICT|INTERRES
    61   29  154 1    
    62   30   31 2    
    63   30   32 1    
    64   32   33 1    
    65   32   34 1    
    66   32  155 1    
    67   33  156 1    
    68   33  157 1    
    69   33  158 1    
    70   34   35 am   BACKBONE|DICT|INTERRES
    71   34  159 1    
    72   35   36 2    
    73   35   37 1    
    74   37   38 1    
    75   37   39 1    
    76   37  160 1    
    77   38  161 1    
    78   38  162 1    
    79   38  163 1    
    80   39   40 am   BACKBONE|DICT|INTERRES
    81   39  164 1    
    82   40   41 2    
    83   40   42 1    
    84   42   43 1    
    85   42   44 1    
    86   42  165 1    
    87   43  166 1    
    88   43  167 1    
    89   43  168 1    
    90   44   45 am   BACKBONE|DICT|INTERRES
    91   44  169 1    
    92   45   46 2    
    93   45   47 1    
    94   47   48 1    
    95   47   49 1    
    96   47  170 1    
    97   48  171 1    
    98   48  172 1    
    99   48  173 1    
   100   49   50 am   BACKBONE|DICT|INTERRES
   101   49  174 1    
   102   50   51 2    
   103   50   52 1    
   104   52   53 1    
   105   52   54 1    
   106   52  175 1    
   107   53  176 1    
   108   53  177 1    
   109   53  178 1    
   110   54   55 am   BACKBONE|DICT|INTERRES
   111   54  179 1    
   112   55   56 2    
   113   55   57 1    
   114   57   58 1    
   115   57   59 1    
   116   57  180 1    
   117   58  181 1    
   118   58  182 1    
   119   58  183 1    
   120   59   60 am   BACKBONE|DICT|INTERRES
   121   59  184 1    
   122   60   61 2    
   123   60   62 1    
   124   62   63 1    
   125   62   64 1    
   126   62  185 1    
   127   63  186 1    
   128   63  187 1    
   129   63  188 1    
   130   64   65 am   BACKBONE|DICT|INTERRES
   131   64  189 1    
   132   65   66 2    
   133   67   68 2    
   134   67   69 am   BACKBONE|DICT|INTERRES
   135   69   70 1    
   136   69  190 1    
   137   70   71 1    
   138   70   72 1    
   139   70  191 1    
   140   71  192 1    
   141   71  193 1    
   142   71  194 1    
   143   72   73 2    
   144   72   74 am   BACKBONE|DICT|INTERRES
   145   74   75 1    
   146   74  195 1    
   147   75   76 1    
   148   75   77 1    
   149   75  196 1    
   150   76  197 1    
   151   76  198 1    
   152   76  199 1    
   153   77   78 2    
   154   77   79 am   BACKBONE|DICT|INTERRES
   155   79   80 1    
   156   79  200 1    
   157   80   81 1    
   158   80   82 1    
   159   80  201 1    
   160   81  202 1    
   161   81  203 1    
   162   81  204 1    
   163   82   83 2    
   164   82   84 am   BACKBONE|DICT|INTERRES
   165   84   85 1    
   166   84  205 1    
   167   85   86 1    
   168   85   87 1    
   169   85  206 1    
   170   86  207 1    
   171   86  208 1    
   172   86  209 1    
   173   87   88 2    
   174   87   89 am   BACKBONE|DICT|INTERRES
   175   89   90 1    
   176   89  210 1    
   177   90   91 1    
   178   90   92 1    
   179   90  211 1    
   180   91  212 1    
   181   91  213 1    
   182   91  214 1    
   183   92   93 2    
   184   92   94 am   BACKBONE|DICT|INTERRES
   185   94   95 1    
   186   94  215 1    
   187   95   96 1    
   188   95   97 1    
   189   95  216 1    
   190   96  217 1    
   191   96  218 1    
   192   96  219 1    
   193   97   98 2    
   194   97   99 am   BACKBONE|DICT|INTERRES
   195   99  100 1    
   196   99  220 1    
   197  100  101 1    
   198  100  102 1    
   199  100  221 1    
   200  101  222 1    
   201  101  223 1    
   202  101  224 1    
   203  102  103 2    
   204  102  104 am   BACKBONE|DICT|INTERRES
   205  104  105 1    
   206  104  225 1    
   207  105  106 1    
   208  105  107 1    
   209  105  226 1    
   210  106  227 1    
   211  106  228 1    
   212  106  229 1    
   213  107  108 2    
   214  107  109 am   BACKBONE|DICT|INTERRES
   215  109  110 1    
   216  109  230 1    
   217  110  111 1    
   218  110  112 1    
   219  110  231 1    
   220  111  232 1    
   221  111  233 1    
   222  111  234 1    
   223  112  113 2    
   224  112  114 am   BACKBONE|DICT|INTERRES
   225  114  115 1    
   226  114  235 1    
   227  115  116 1    
   228  115  117 1    
   229  115  236 1    
   230  116  237 1    
   231  116  238 1    
   232  116  239 1    
   233  117  118 2    
   234  117  119 am   BACKBONE|DICT|INTERRES
   235  119  120 1    
   236  119  240 1    
   237  120  121 1    
   238  120  124 1    
   239  120  241 1    
   240  121  122 am   BACKBONE|DICT|INTERRES
   241  121  123 2    
   242  122  242 1    
   243  122  243 1    
   244  124  125 1    
   245  124  244 1    
   246  124  245 1    
   247  125  126 1    
   248  126  246 1    
   249  126  247 1    
@<TRIPOS>SUBSTRUCTURE
     1 UNK         1 GROUP             0       ****    0 ROOT    
