@<TRIPOS>MOLECULE
3R540
247   249    1
SMALL
USER_CHARGES


@<TRIPOS>ATOM
      1 CA          6.1828  -10.6442  -50.7621 C.3       0 UNK        -0.1800 
      2 C           5.4057  -11.8847  -50.3442 C.2       0 UNK         0.5000 
      3 O           5.3425  -12.8531  -51.1013 O.2       0 UNK        -0.5000 
      4 N           4.8165  -11.8601  -49.1455 N.am      1 UNK        -0.5000 
      5 CA          4.0617  -12.9551  -48.5408 C.3       1 UNK         0.1400 
      6 C6          2.6536  -13.1301  -49.1749 C.3       23 UNK        -0.0398 
      7 S7          2.0983  -14.8666  -49.1640 S.3       23 UNK        -0.2404 
      8 C8          2.9192  -15.4755  -50.6735 C.3       23 UNK        -0.0205 
      9 C9          2.6521  -16.9533  -50.9203 C.ar      23 UNK        -0.0193 
     10 C10         2.0205  -17.3734  -52.0950 C.ar      23 UNK        -0.1150 
     11 C11         1.7924  -18.7328  -52.3350 C.ar      23 UNK        -0.0193 
     12 C12         2.2027  -19.6755  -51.3872 C.ar      23 UNK        -0.1150 
     13 C13         2.8390  -19.2682  -50.2115 C.ar      23 UNK        -0.0193 
     14 C14         3.0678  -17.9080  -49.9883 C.ar      23 UNK        -0.1150 
     15 C15         3.3056  -20.2906  -49.1893 C.3       23 UNK        -0.0205 
     16 S16         2.2318  -20.3045  -47.7221 S.3       23 UNK        -0.2404 
     17 C17         3.2316  -21.3378  -46.5942 C.3       23 UNK        -0.0398 
     18 CA          2.5161  -22.6062  -46.0757 C.3       11 UNK         0.1400 
     19 N           1.3132  -22.2876  -45.3026 N.am      11 UNK        -0.5000 
     20 C           0.6596  -23.1595  -44.5233 C.2       10 UNK         0.5000 
     21 O           1.0921  -24.2821  -44.2582 O.2       10 UNK        -0.5000 
     22 CA         -0.7041  -22.7322  -43.9487 C.3       10 UNK         0.1400 
     23 CB         -0.6159  -22.5623  -42.4237 C.3       10 UNK        -0.1800 
     24 N          -1.2808  -21.5125  -44.5194 N.am      10 UNK        -0.5000 
     25 C          -1.6839  -21.3342  -45.7865 C.2       9 UNK         0.5000 
     26 O          -1.4693  -22.1303  -46.6996 O.2       9 UNK        -0.5000 
     27 CA         -2.4341  -20.0256  -46.0723 C.3       9 UNK         0.1400 
     28 CB         -3.7774  -19.9917  -45.3223 C.3       9 UNK        -0.1800 
     29 N          -1.6086  -18.8988  -45.6502 N.am      9 UNK        -0.5000 
     30 C          -0.8209  -18.1852  -46.4665 C.2       8 UNK         0.5000 
     31 O          -0.8483  -18.2810  -47.6911 O.2       8 UNK        -0.5000 
     32 CA          0.1665  -17.1938  -45.8193 C.3       8 UNK         0.1400 
     33 CB         -0.2346  -15.7414  -46.1316 C.3       8 UNK        -0.1800 
     34 N           0.2771  -17.3700  -44.3686 N.am      8 UNK        -0.5000 
     35 C           0.9996  -18.3325  -43.7742 C.2       7 UNK         0.5000 
     36 O           1.6752  -19.1540  -44.3910 O.2       7 UNK        -0.5000 
     37 CA          0.9375  -18.4242  -42.2356 C.3       7 UNK         0.1400 
     38 CB          2.0957  -17.6358  -41.6069 C.3       7 UNK        -0.1800 
     39 N          -0.3215  -17.9482  -41.6615 N.am      7 UNK        -0.5000 
     40 C          -1.5342  -18.4642  -41.9053 C.2       6 UNK         0.5000 
     41 O          -1.7226  -19.4552  -42.6100 O.2       6 UNK        -0.5000 
     42 CA         -2.7416  -17.6930  -41.3322 C.3       6 UNK         0.1400 
     43 CB         -3.1244  -18.2448  -39.9515 C.3       6 UNK        -0.1800 
     44 N          -2.5203  -16.2430  -41.2344 N.am      6 UNK        -0.5000 
     45 C          -2.1955  -15.4536  -42.2685 C.2       5 UNK         0.5000 
     46 O          -2.0829  -15.8765  -43.4207 O.2       5 UNK        -0.5000 
     47 CA         -1.8868  -13.9779  -41.9498 C.3       5 UNK         0.1400 
     48 CB         -0.7293  -13.8591  -40.9420 C.3       5 UNK        -0.1800 
     49 N          -1.5099  -13.2491  -43.1592 N.am      5 UNK        -0.5000 
     50 C          -2.3648  -12.7557  -44.0664 C.2       4 UNK         0.5000 
     51 O          -3.5898  -12.7943  -43.9343 O.2       4 UNK        -0.5000 
     52 CA         -1.7438  -12.1187  -45.3333 C.3       4 UNK         0.1400 
     53 CB         -2.6420  -11.0346  -45.9648 C.3       4 UNK        -0.1800 
     54 N          -0.3797  -11.6170  -45.1216 N.am      4 UNK        -0.5000 
     55 C           0.0107  -10.6689  -44.2560 C.2       3 UNK         0.5000 
     56 O          -0.7730   -9.9676  -43.6142 O.2       3 UNK        -0.5000 
     57 CA          1.5320  -10.4864  -44.0514 C.3       3 UNK         0.1400 
     58 CB          1.8762  -10.2101  -42.5730 C.3       3 UNK        -0.1800 
     59 N           2.3759  -11.5799  -44.5581 N.am      3 UNK        -0.5000 
     60 C           2.3649  -12.8755  -44.2130 C.2       2 UNK         0.5000 
     61 O           1.5019  -13.3817  -43.4933 O.2       2 UNK        -0.5000 
     62 CA          3.5031  -13.7424  -44.7983 C.3       2 UNK         0.1400 
     63 CB          3.4419  -15.2054  -44.3256 C.3       2 UNK        -0.1800 
     64 N           3.5536  -13.7233  -46.2641 N.am      2 UNK        -0.5000 
     65 C           4.0141  -12.7183  -47.0196 C.2       1 UNK         0.5000 
     66 O           4.3941  -11.6382  -46.5545 O.2       1 UNK        -0.5000 
     67 C           2.2488  -23.6405  -47.1959 C.2       11 UNK         0.5000 
     68 O           3.1710  -24.3635  -47.5765 O.2       11 UNK        -0.5000 
     69 N           0.9956  -23.7292  -47.6649 N.am      12 UNK        -0.5000 
     70 CA          0.4908  -24.8324  -48.4730 C.3       12 UNK         0.1400 
     71 CB         -0.4986  -24.2824  -49.5107 C.3       12 UNK        -0.1800 
     72 C          -0.2093  -25.8266  -47.5342 C.2       12 UNK         0.5000 
     73 O          -1.0304  -25.4085  -46.7156 O.2       12 UNK        -0.5000 
     74 N           0.0916  -27.1235  -47.6806 N.am      13 UNK        -0.5000 
     75 CA         -0.4231  -28.1999  -46.8226 C.3       13 UNK         0.1400 
     76 CB          0.2733  -29.5172  -47.1968 C.3       13 UNK        -0.1800 
     77 C          -1.9557  -28.3692  -46.8688 C.2       13 UNK         0.5000 
     78 O          -2.5569  -28.7583  -45.8672 O.2       13 UNK        -0.5000 
     79 N          -2.5549  -28.0492  -48.0223 N.am      14 UNK        -0.5000 
     80 CA         -4.0007  -28.0576  -48.2558 C.3       14 UNK         0.1400 
     81 CB         -4.2478  -28.5337  -49.6982 C.3       14 UNK        -0.1800 
     82 C          -4.6532  -26.6781  -48.0158 C.2       14 UNK         0.5000 
     83 O          -5.8386  -26.5217  -48.3080 O.2       14 UNK        -0.5000 
     84 N          -3.8692  -25.6916  -47.5479 N.am      15 UNK        -0.5000 
     85 CA         -4.2058  -24.2697  -47.3776 C.3       15 UNK         0.1400 
     86 CB         -5.3775  -24.0722  -46.3949 C.3       15 UNK        -0.1800 
     87 C          -4.4274  -23.5150  -48.7071 C.2       15 UNK         0.5000 
     88 O          -4.8911  -22.3725  -48.6915 O.2       15 UNK        -0.5000 
     89 N          -4.0740  -24.1543  -49.8337 N.am      16 UNK        -0.5000 
     90 CA         -4.3168  -23.7310  -51.2169 C.3       16 UNK         0.1400 
     91 CB         -3.7534  -24.7970  -52.1674 C.3       16 UNK        -0.1800 
     92 C          -3.7645  -22.3441  -51.5870 C.2       16 UNK         0.5000 
     93 O          -4.3107  -21.6980  -52.4813 O.2       16 UNK        -0.5000 
     94 N          -2.7335  -21.8861  -50.8672 N.am      17 UNK        -0.5000 
     95 CA         -2.1615  -20.5455  -50.9825 C.3       17 UNK         0.1400 
     96 CB         -0.9254  -20.4557  -50.0799 C.3       17 UNK        -0.1800 
     97 C          -3.1681  -19.4155  -50.6745 C.2       17 UNK         0.5000 
     98 O          -3.0484  -18.3302  -51.2420 O.2       17 UNK        -0.5000 
     99 N          -4.1712  -19.7073  -49.8346 N.am      18 UNK        -0.5000 
    100 CA        -5.3094  -18.8300  -49.5739 C.3       18 UNK         0.1400 
    101 CB        -5.4392  -18.5947  -48.0638 C.3       18 UNK        -0.1800 
    102 C         -6.6034  -19.4344  -50.1384 C.2       18 UNK         0.5000 
    103 O         -7.3575  -18.7251  -50.8036 O.2       18 UNK        -0.5000 
    104 N         -6.8374  -20.7307  -49.8824 N.am      19 UNK        -0.5000 
    105 CA        -8.0879  -21.4330  -50.1890 C.3       19 UNK         0.1400 
    106 CB        -8.0802  -22.8056  -49.4980 C.3       19 UNK        -0.1800 
    107 C         -8.3821  -21.5877  -51.6927 C.2       19 UNK         0.5000 
    108 O         -9.5524  -21.6383  -52.0727 O.2       19 UNK        -0.5000 
    109 N         -7.3276  -21.6464  -52.5142 N.am      20 UNK        -0.5000 
    110 CA        -7.3997  -21.7037  -53.9751 C.3       20 UNK         0.1400 
    111 CB        -6.8305  -23.0537  -54.4470 C.3       20 UNK        -0.1800 
    112 C         -6.6485  -20.5214  -54.6170 C.2       20 UNK         0.5000 
    113 O         -6.4368  -20.5325  -55.8303 O.2       20 UNK        -0.5000 
    114 N         -6.2301  -19.5412  -53.7985 N.am      21 UNK        -0.5000 
    115 CA        -5.4473  -18.3510  -54.1529 C.3       21 UNK         0.1400 
    116 CB        -6.3463  -17.3307  -54.8804 C.3       21 UNK        -0.1800 
    117 C         -4.1511  -18.6742  -54.9318 C.2       21 UNK         0.5000 
    118 O         -3.8153  -17.9692  -55.8852 O.2       21 UNK        -0.5000 
    119 N         -3.4746  -19.7590  -54.5283 N.am      22 UNK        -0.5000 
    120 CA        -2.2872  -20.3493  -55.1745 C.3       22 UNK         0.1400 
    121 C         -2.5881  -21.1243  -56.4948 C.2       22 UNK         0.5000 
    122 N         -3.8370  -21.3150  -56.9037 N.am      22 UNK        -0.7600 
    123 O         -1.6664  -21.5982  -57.1537 O.2       22 UNK        -0.5000 
    124 C124       -1.0914  -19.3639  -55.3451 C.3       23 UNK        -0.0398 
    125 S125       -0.5689  -18.5699  -53.7864 S.3       23 UNK        -0.2404 
    126 C126        1.1358  -19.1855  -53.6315 C.3       23 UNK        -0.0205 
    127 H127        7.2264  -10.8994  -50.9464 H         1 UNK         0.0600 
    128 H128        5.7643  -10.2309  -51.6797 H         1 UNK         0.0600 
    129 H129        6.1522   -9.8695  -49.9953 H         1 UNK         0.0600 
    130 H130        4.9310  -11.0645  -48.5280 H         1 UNK         0.3000 
    131 H131        4.6493  -13.8629  -48.6939 H         1 UNK         0.0600 
    132 H132        2.6489  -12.7913  -50.2117 H         1 UNK         0.0800 
    133 H133        1.9077  -12.5125  -48.6712 H         1 UNK         0.0800 
    134 H134        3.9960  -15.3231  -50.5903 H         1 UNK         0.0800 
    135 H135        2.5879  -14.8784  -51.5245 H         1 UNK         0.0800 
    136 H136        1.7068  -16.6447  -52.8293 H         1 UNK         0.1150 
    137 H137        2.0333  -20.7279  -51.5662 H         1 UNK         0.1150 
    138 H138        3.5636  -17.5910  -49.0814 H         1 UNK         0.1150 
    139 H139        3.3326  -21.2910  -49.6244 H         1 UNK         0.0800 
    140 H140        4.3281  -20.0511  -48.8934 H         1 UNK         0.0800 
    141 H141        4.1716  -21.6151  -47.0738 H         1 UNK         0.0800 
    142 H142        3.5166  -20.7140  -45.7460 H         1 UNK         0.0800 
    143 H143        3.2091  -23.0897  -45.3836 H         1 UNK         0.0600 
    144 H144        0.9181  -21.3686  -45.4490 H         1 UNK         0.3000 
    145 H145       -1.3996  -23.5467  -44.1615 H         1 UNK         0.0600 
    146 H146        0.0562  -21.7482  -42.1512 H         1 UNK         0.0600 
    147 H147       -1.5940  -22.3473  -41.9928 H         1 UNK         0.0600 
    148 H148       -0.2446  -23.4699  -41.9460 H         1 UNK         0.0600 
    149 H149       -1.4826  -20.7777  -43.8448 H         1 UNK         0.3000 
    150 H150       -2.6428  -19.9699  -47.1426 H         1 UNK         0.0600 
    151 H151       -4.2761  -19.0311  -45.4462 H         1 UNK         0.0600 
    152 H152       -3.6639  -20.1588  -44.2514 H         1 UNK         0.0600 
    153 H153       -4.4485  -20.7632  -45.7009 H         1 UNK         0.0600 
    154 H154       -1.5232  -18.7524  -44.6529 H         1 UNK         0.3000 
    155 H155        1.1468  -17.3734  -46.2665 H         1 UNK         0.0600 
    156 H156       -0.1794  -15.5491  -47.2034 H         1 UNK         0.0600 
    157 H157        0.4227  -15.0264  -45.6384 H         1 UNK         0.0600 
    158 H158       -1.2571  -15.5285  -45.8220 H         1 UNK         0.0600 
    159 H159       -0.3176  -16.7704  -43.8065 H         1 UNK         0.3000 
    160 H160        1.0514  -19.4759  -41.9662 H         1 UNK         0.0600 
    161 H161        1.9931  -16.5646  -41.7841 H         1 UNK         0.0600 
    162 H162        3.0551  -17.9483  -42.0217 H         1 UNK         0.0600 
    163 H163        2.1416  -17.7945  -40.5293 H         1 UNK         0.0600 
    164 H164       -0.2664  -17.1285  -41.0760 H         1 UNK         0.3000 
    165 H165       -3.5812  -17.8543  -42.0114 H         1 UNK         0.0600 
    166 H166       -2.3324  -18.0833  -39.2191 H         1 UNK         0.0600 
    167 H167       -4.0323  -17.7728  -39.5754 H         1 UNK         0.0600 
    168 H168       -3.3139  -19.3181  -39.9991 H         1 UNK         0.0600 
    169 H169       -2.5976  -15.8379  -40.3126 H         1 UNK         0.3000 
    170 H170       -2.7810  -13.5242  -41.5180 H         1 UNK         0.0600 
    171 H171       -0.9961  -14.2825  -39.9734 H         1 UNK         0.0600 
    172 H172        0.1650  -14.3759  -41.2933 H         1 UNK         0.0600 
    173 H173       -0.4625  -12.8157  -40.7718 H         1 UNK         0.0600 
    174 H174       -0.5153  -13.2117  -43.3586 H         1 UNK         0.3000 
    175 H175       -1.6550  -12.9292  -46.0579 H         1 UNK         0.0600 
    176 H176       -2.1775  -10.6054  -46.8525 H         1 UNK         0.0600 
    177 H177       -3.6011  -11.4526  -46.2726 H         1 UNK         0.0600 
    178 H178       -2.8503  -10.2223  -45.2682 H         1 UNK         0.0600 
    179 H179        0.3519  -12.1362  -45.5844 H         1 UNK         0.3000 
    180 H180        1.8068   -9.6017  -44.6272 H         1 UNK         0.0600 
    181 H181        2.9471  -10.0572  -42.4391 H         1 UNK         0.0600 
    182 H182        1.3764   -9.3108  -42.2112 H         1 UNK         0.0600 
    183 H183        1.5718  -11.0356  -41.9284 H         1 UNK         0.0600 
    184 H184        3.1073  -11.2995  -45.2072 H         1 UNK         0.3000 
    185 H185        4.4373  -13.3218  -44.4203 H         1 UNK         0.0600 
    186 H186        4.2980  -15.7745  -44.6882 H         1 UNK         0.0600 
    187 H187        3.4548  -15.2643  -43.2369 H         1 UNK         0.0600 
    188 H188        2.5387  -15.7043  -44.6730 H         1 UNK         0.0600 
    189 H189        3.2233  -14.5578  -46.7283 H         1 UNK         0.3000 
    190 H190        0.2830  -23.1330  -47.2550 H         1 UNK         0.3000 
    191 H191        1.3052  -25.3343  -48.9994 H         1 UNK         0.0600 
    192 H192       -0.9436  -25.0875  -50.0963 H         1 UNK         0.0600 
    193 H193        0.0010  -23.6103  -50.2081 H         1 UNK         0.0600 
    194 H194       -1.3071  -23.7301  -49.0323 H         1 UNK         0.0600 
    195 H195        0.7667  -27.3951  -48.3812 H         1 UNK         0.3000 
    196 H196       -0.1562  -27.9549  -45.7923 H         1 UNK         0.0600 
    197 H197       -0.0682  -30.3347  -46.5603 H         1 UNK         0.0600 
    198 H198        1.3538  -29.4419  -47.0731 H         1 UNK         0.0600 
    199 H199        0.0714  -29.7999  -48.2307 H         1 UNK         0.0600 
    200 H200       -1.9732  -27.7514  -48.7917 H         1 UNK         0.3000 
    201 H201       -4.4827  -28.7654  -47.5784 H         1 UNK         0.0600 
    202 H202       -3.8131  -29.5192  -49.8667 H         1 UNK         0.0600 
    203 H203       -3.8176  -27.8484  -50.4293 H         1 UNK         0.0600 
    204 H204       -5.3147  -28.6139  -49.9110 H         1 UNK         0.0600 
    205 H205       -2.9109  -25.9193  -47.3028 H         1 UNK         0.3000 
    206 H206       -3.3272  -23.8201  -46.9203 H         1 UNK         0.0600 
    207 H207       -5.2056  -24.6108  -45.4631 H         1 UNK         0.0600 
    208 H208       -5.4999  -23.0188  -46.1412 H         1 UNK         0.0600 
    209 H209       -6.3242  -24.4140  -46.8135 H         1 UNK         0.0600 
    210 H210       -3.6999  -25.0837  -49.7224 H         1 UNK         0.3000 
    211 H211       -5.3979  -23.6910  -51.3581 H         1 UNK         0.0600 
    212 H212       -3.9278  -24.5267  -53.2098 H         1 UNK         0.0600 
    213 H213       -4.2289  -25.7639  -52.0024 H         1 UNK         0.0600 
    214 H214       -2.6779  -24.9234  -52.0382 H         1 UNK         0.0600 
    215 H215       -2.3622  -22.4744  -50.1374 H         1 UNK         0.3000 
    216 H216       -1.8373  -20.4211  -52.0152 H         1 UNK         0.0600 
    217 H217       -0.4727  -19.4648  -50.1374 H         1 UNK         0.0600 
    218 H218       -0.1636  -21.1754  -50.3765 H         1 UNK         0.0600 
    219 H219       -1.1726  -20.6440  -49.0355 H         1 UNK         0.0600 
    220 H220       -4.2150  -20.6384  -49.4346 H         1 UNK         0.3000 
    221 H221       -5.1684  -17.8572  -50.0494 H         1 UNK         0.0600 
    222 H222       -5.6031  -19.5282  -47.5249 H         1 UNK         0.0600 
    223 H223       -4.5402  -18.1235  -47.6663 H         1 UNK         0.0600 
    224 H224       -6.2783  -17.9345  -47.8410 H         1 UNK         0.0600 
    225 H225       -6.1544  -21.2613  -49.3462 H         1 UNK         0.3000 
    226 H226       -8.9035  -20.8471  -49.7600 H         1 UNK         0.0600 
    227 H227       -9.0310  -23.3203  -49.6419 H         1 UNK         0.0600 
    228 H228       -7.2968  -23.4530  -49.8913 H         1 UNK         0.0600 
    229 H229       -7.9241  -22.7071  -48.4235 H         1 UNK         0.0600 
    230 H230       -6.3929  -21.5945  -52.1279 H         1 UNK         0.3000 
    231 H231       -8.4347  -21.6322  -54.3143 H         1 UNK         0.0600 
    232 H232       -6.9486  -23.1741  -55.5245 H         1 UNK         0.0600 
    233 H233       -7.3456  -23.8876  -53.9703 H         1 UNK         0.0600 
    234 H234       -5.7675  -23.1437  -54.2237 H         1 UNK         0.0600 
    235 H235       -6.4914  -19.6098  -52.8250 H         1 UNK         0.3000 
    236 H236       -5.1297  -17.9009  -53.2112 H         1 UNK         0.0600 
    237 H237       -6.6762  -17.7045  -55.8503 H         1 UNK         0.0600 
    238 H238       -7.2333  -17.0979  -54.2913 H         1 UNK         0.0600 
    239 H239       -5.8172  -16.3925  -55.0516 H         1 UNK         0.0600 
    240 H240       -3.8604  -20.3066  -53.7646 H         1 UNK         0.3000 
    241 H241       -1.9586  -21.1250  -54.4821 H         1 UNK         0.0600 
    242 H242       -3.9983  -21.8298  -57.7543 H         1 UNK         0.3800 
    243 H243       -4.6308  -20.9326  -56.3993 H         1 UNK         0.3800 
    244 H244       -1.3333  -18.5802  -56.0632 H         1 UNK         0.0800 
    245 H245       -0.2333  -19.8868  -55.7702 H         1 UNK         0.0800 
    246 H246        1.1272  -20.2748  -53.6964 H         1 UNK         0.0800 
    247 H247        1.7277  -18.8266  -54.4747 H         1 UNK         0.0800 
@<TRIPOS>BOND
     1    1    2 1    
     2    1  127 1    
     3    1  128 1    
     4    1  129 1    
     5    2    3 2    
     6    2    4 am   BACKBONE|DICT|INTERRES
     7    4    5 1    
     8    4  130 1    
     9    5    6 1    
    10    5   65 1    
    11    5  131 1    
    12    6    7 1    
    13    6  132 1    
    14    6  133 1    
    15    7    8 1    
    16    8    9 1    
    17    8  134 1    
    18    8  135 1    
    19    9   10 ar   
    20    9   14 ar   
    21   10   11 ar   
    22   10  136 1    
    23   11   12 ar   
    24   11  126 1    
    25   12   13 ar   
    26   12  137 1    
    27   13   14 ar   
    28   13   15 1    
    29   14  138 1    
    30   15   16 1    
    31   15  139 1    
    32   15  140 1    
    33   16   17 1    
    34   17   18 1    
    35   17  141 1    
    36   17  142 1    
    37   18   19 1    
    38   18   67 1    
    39   18  143 1    
    40   19   20 am   BACKBONE|DICT|INTERRES
    41   19  144 1    
    42   20   21 2    
    43   20   22 1    
    44   22   23 1    
    45   22   24 1    
    46   22  145 1    
    47   23  146 1    
    48   23  147 1    
    49   23  148 1    
    50   24   25 am   BACKBONE|DICT|INTERRES
    51   24  149 1    
    52   25   26 2    
    53   25   27 1    
    54   27   28 1    
    55   27   29 1    
    56   27  150 1    
    57   28  151 1    
    58   28  152 1    
    59   28  153 1    
    60   29   30 am   BACKBONE|DICT|INTERRES
    61   29  154 1    
    62   30   31 2    
    63   30   32 1    
    64   32   33 1    
    65   32   34 1    
    66   32  155 1    
    67   33  156 1    
    68   33  157 1    
    69   33  158 1    
    70   34   35 am   BACKBONE|DICT|INTERRES
    71   34  159 1    
    72   35   36 2    
    73   35   37 1    
    74   37   38 1    
    75   37   39 1    
    76   37  160 1    
    77   38  161 1    
    78   38  162 1    
    79   38  163 1    
    80   39   40 am   BACKBONE|DICT|INTERRES
    81   39  164 1    
    82   40   41 2    
    83   40   42 1    
    84   42   43 1    
    85   42   44 1    
    86   42  165 1    
    87   43  166 1    
    88   43  167 1    
    89   43  168 1    
    90   44   45 am   BACKBONE|DICT|INTERRES
    91   44  169 1    
    92   45   46 2    
    93   45   47 1    
    94   47   48 1    
    95   47   49 1    
    96   47  170 1    
    97   48  171 1    
    98   48  172 1    
    99   48  173 1    
   100   49   50 am   BACKBONE|DICT|INTERRES
   101   49  174 1    
   102   50   51 2    
   103   50   52 1    
   104   52   53 1    
   105   52   54 1    
   106   52  175 1    
   107   53  176 1    
   108   53  177 1    
   109   53  178 1    
   110   54   55 am   BACKBONE|DICT|INTERRES
   111   54  179 1    
   112   55   56 2    
   113   55   57 1    
   114   57   58 1    
   115   57   59 1    
   116   57  180 1    
   117   58  181 1    
   118   58  182 1    
   119   58  183 1    
   120   59   60 am   BACKBONE|DICT|INTERRES
   121   59  184 1    
   122   60   61 2    
   123   60   62 1    
   124   62   63 1    
   125   62   64 1    
   126   62  185 1    
   127   63  186 1    
   128   63  187 1    
   129   63  188 1    
   130   64   65 am   BACKBONE|DICT|INTERRES
   131   64  189 1    
   132   65   66 2    
   133   67   68 2    
   134   67   69 am   BACKBONE|DICT|INTERRES
   135   69   70 1    
   136   69  190 1    
   137   70   71 1    
   138   70   72 1    
   139   70  191 1    
   140   71  192 1    
   141   71  193 1    
   142   71  194 1    
   143   72   73 2    
   144   72   74 am   BACKBONE|DICT|INTERRES
   145   74   75 1    
   146   74  195 1    
   147   75   76 1    
   148   75   77 1    
   149   75  196 1    
   150   76  197 1    
   151   76  198 1    
   152   76  199 1    
   153   77   78 2    
   154   77   79 am   BACKBONE|DICT|INTERRES
   155   79   80 1    
   156   79  200 1    
   157   80   81 1    
   158   80   82 1    
   159   80  201 1    
   160   81  202 1    
   161   81  203 1    
   162   81  204 1    
   163   82   83 2    
   164   82   84 am   BACKBONE|DICT|INTERRES
   165   84   85 1    
   166   84  205 1    
   167   85   86 1    
   168   85   87 1    
   169   85  206 1    
   170   86  207 1    
   171   86  208 1    
   172   86  209 1    
   173   87   88 2    
   174   87   89 am   BACKBONE|DICT|INTERRES
   175   89   90 1    
   176   89  210 1    
   177   90   91 1    
   178   90   92 1    
   179   90  211 1    
   180   91  212 1    
   181   91  213 1    
   182   91  214 1    
   183   92   93 2    
   184   92   94 am   BACKBONE|DICT|INTERRES
   185   94   95 1    
   186   94  215 1    
   187   95   96 1    
   188   95   97 1    
   189   95  216 1    
   190   96  217 1    
   191   96  218 1    
   192   96  219 1    
   193   97   98 2    
   194   97   99 am   BACKBONE|DICT|INTERRES
   195   99  100 1    
   196   99  220 1    
   197  100  101 1    
   198  100  102 1    
   199  100  221 1    
   200  101  222 1    
   201  101  223 1    
   202  101  224 1    
   203  102  103 2    
   204  102  104 am   BACKBONE|DICT|INTERRES
   205  104  105 1    
   206  104  225 1    
   207  105  106 1    
   208  105  107 1    
   209  105  226 1    
   210  106  227 1    
   211  106  228 1    
   212  106  229 1    
   213  107  108 2    
   214  107  109 am   BACKBONE|DICT|INTERRES
   215  109  110 1    
   216  109  230 1    
   217  110  111 1    
   218  110  112 1    
   219  110  231 1    
   220  111  232 1    
   221  111  233 1    
   222  111  234 1    
   223  112  113 2    
   224  112  114 am   BACKBONE|DICT|INTERRES
   225  114  115 1    
   226  114  235 1    
   227  115  116 1    
   228  115  117 1    
   229  115  236 1    
   230  116  237 1    
   231  116  238 1    
   232  116  239 1    
   233  117  118 2    
   234  117  119 am   BACKBONE|DICT|INTERRES
   235  119  120 1    
   236  119  240 1    
   237  120  121 1    
   238  120  124 1    
   239  120  241 1    
   240  121  122 am   BACKBONE|DICT|INTERRES
   241  121  123 2    
   242  122  242 1    
   243  122  243 1    
   244  124  125 1    
   245  124  244 1    
   246  124  245 1    
   247  125  126 1    
   248  126  246 1    
   249  126  247 1    
@<TRIPOS>SUBSTRUCTURE
     1 UNK         1 GROUP             0       ****    0 ROOT    
