@<TRIPOS>MOLECULE
3R540
247   249    1
SMALL
USER_CHARGES


@<TRIPOS>ATOM
      1 CA         -1.1948  -15.9474  -44.2672 C.3       0 UNK        -0.1800 
      2 C          -2.0931  -14.7797  -44.6500 C.2       0 UNK         0.5000 
      3 O          -3.2845  -14.8007  -44.3411 O.2       0 UNK        -0.5000 
      4 N          -1.5216  -13.7661  -45.3057 N.am      1 UNK        -0.5000 
      5 CA         -2.1913  -12.5343  -45.7339 C.3       1 UNK         0.1400 
      6 C6         -2.5136  -12.5497  -47.2523 C.3       23 UNK        -0.0398 
      7 S7         -3.9710  -13.5742  -47.6347 S.3       23 UNK        -0.2404 
      8 C8         -3.4427  -14.4464  -49.1446 C.3       23 UNK        -0.0205 
      9 C9         -2.4926  -15.6065  -48.8749 C.ar      23 UNK        -0.0193 
     10 C10        -1.2809  -15.6999  -49.5673 C.ar      23 UNK        -0.1150 
     11 C11        -0.4437  -16.8126  -49.4020 C.ar      23 UNK        -0.0193 
     12 C12        -0.8166  -17.8095  -48.4973 C.ar      23 UNK        -0.1150 
     13 C13        -2.0149  -17.7209  -47.7876 C.ar      23 UNK        -0.0193 
     14 C14        -2.8534  -16.6229  -47.9857 C.ar      23 UNK        -0.1150 
     15 C15        -2.4092  -18.8265  -46.8276 C.3       23 UNK        -0.0205 
     16 S16        -3.4550  -20.0499  -47.6595 S.3       23 UNK        -0.2404 
     17 C17        -3.3861  -21.4350  -46.4834 C.3       23 UNK        -0.0398 
     18 CA         -2.5476  -22.6025  -47.0520 C.3       11 UNK         0.1400 
     19 N          -1.0998  -22.3583  -47.0236 N.am      11 UNK        -0.5000 
     20 C          -0.2053  -23.1047  -47.6900 C.2       10 UNK         0.5000 
     21 O          -0.5159  -24.0203  -48.4477 O.2       10 UNK        -0.5000 
     22 CA          1.2834  -22.8360  -47.4194 C.3       10 UNK         0.1400 
     23 CB          1.8207  -21.7074  -48.3126 C.3       10 UNK        -0.1800 
     24 N           1.5227  -22.5288  -46.0103 N.am      10 UNK        -0.5000 
     25 C           1.4680  -23.4453  -45.0318 C.2       9 UNK         0.5000 
     26 O           1.2635  -24.6420  -45.2376 O.2       9 UNK        -0.5000 
     27 CA          1.6245  -22.9464  -43.5806 C.3       9 UNK         0.1400 
     28 CB          3.0997  -22.9858  -43.1563 C.3       9 UNK        -0.1800 
     29 N           1.1011  -21.5962  -43.3677 N.am      9 UNK        -0.5000 
     30 C          -0.1802  -21.2349  -43.5235 C.2       8 UNK         0.5000 
     31 O          -1.0807  -22.0247  -43.8070 O.2       8 UNK        -0.5000 
     32 CA         -0.5003  -19.7305  -43.4108 C.3       8 UNK         0.1400 
     33 CB         -0.9262  -19.3768  -41.9791 C.3       8 UNK        -0.1800 
     34 N           0.5966  -18.8435  -43.8163 N.am      8 UNK        -0.5000 
     35 C           1.2418  -18.8652  -44.9924 C.2       7 UNK         0.5000 
     36 O           0.9784  -19.6712  -45.8834 O.2       7 UNK        -0.5000 
     37 CA          2.3762  -17.8444  -45.2177 C.3       7 UNK         0.1400 
     38 CB          2.1831  -17.0958  -46.5442 C.3       7 UNK        -0.1800 
     39 N           2.5353  -16.8754  -44.1275 N.am      7 UNK        -0.5000 
     40 C           3.1530  -17.1324  -42.9642 C.2       6 UNK         0.5000 
     41 O           3.6177  -18.2390  -42.6867 O.2       6 UNK        -0.5000 
     42 CA          3.2217  -15.9969  -41.9170 C.3       6 UNK         0.1400 
     43 CB          4.5338  -16.0233  -41.1049 C.3       6 UNK        -0.1800 
     44 N           2.9614  -14.6543  -42.4521 N.am      6 UNK        -0.5000 
     45 C           3.6992  -13.9759  -43.3416 C.2       5 UNK         0.5000 
     46 O           4.7415  -14.3946  -43.8502 O.2       5 UNK        -0.5000 
     47 CA          3.1650  -12.5871  -43.7361 C.3       5 UNK         0.1400 
     48 CB          4.0525  -11.4729  -43.1607 C.3       5 UNK        -0.1800 
     49 N           3.0708  -12.4281  -45.1857 N.am      5 UNK        -0.5000 
     50 C           2.2975  -13.1728  -45.9855 C.2       4 UNK         0.5000 
     51 O           1.5664  -14.0821  -45.5835 O.2       4 UNK        -0.5000 
     52 CA          2.2775  -12.7529  -47.4603 C.3       4 UNK         0.1400 
     53 CB          1.5428  -13.7588  -48.3646 C.3       4 UNK        -0.1800 
     54 N           1.6323  -11.4458  -47.5512 N.am      4 UNK        -0.5000 
     55 C           1.9250  -10.5008  -48.4541 C.2       3 UNK         0.5000 
     56 O           2.8256  -10.6215  -49.2858 O.2       3 UNK        -0.5000 
     57 CA          1.0701   -9.2144  -48.4606 C.3       3 UNK         0.1400 
     58 CB          0.3916   -9.0241  -49.8280 C.3       3 UNK        -0.1800 
     59 N           0.0283   -9.2134  -47.4321 N.am      3 UNK        -0.5000 
     60 C           0.1426   -8.6775  -46.2098 C.2       2 UNK         0.5000 
     61 O           1.1427   -8.0792  -45.8129 O.2       2 UNK        -0.5000 
     62 CA         -1.0608   -8.8708  -45.2608 C.3       2 UNK         0.1400 
     63 CB         -2.0215   -7.6763  -45.3615 C.3       2 UNK        -0.1800 
     64 N          -1.8095  -10.1129  -45.5007 N.am      2 UNK        -0.5000 
     65 C          -1.2878  -11.3408  -45.3722 C.2       1 UNK         0.5000 
     66 O          -0.1239  -11.5317  -45.0194 O.2       1 UNK        -0.5000 
     67 C          -2.9137  -23.9264  -46.3594 C.2       11 UNK         0.5000 
     68 O          -3.7886  -24.6319  -46.8576 O.2       11 UNK        -0.5000 
     69 N          -2.2285  -24.2692  -45.2599 N.am      12 UNK        -0.5000 
     70 CA         -2.3785  -25.5549  -44.5753 C.3       12 UNK         0.1400 
     71 CB         -1.5779  -25.5474  -43.2647 C.3       12 UNK        -0.1800 
     72 C          -1.9766  -26.7434  -45.4706 C.2       12 UNK         0.5000 
     73 O          -2.7081  -27.7322  -45.5283 O.2       12 UNK        -0.5000 
     74 N          -0.8558  -26.6014  -46.1932 N.am      13 UNK        -0.5000 
     75 CA         -0.3742  -27.5707  -47.1797 C.3       13 UNK         0.1400 
     76 CB          1.0568  -27.2018  -47.5992 C.3       13 UNK        -0.1800 
     77 C          -1.2937  -27.6845  -48.4124 C.2       13 UNK         0.5000 
     78 O          -1.5356  -28.7936  -48.8893 O.2       13 UNK        -0.5000 
     79 N          -1.8042  -26.5424  -48.8925 N.am      14 UNK        -0.5000 
     80 CA         -2.7075  -26.4354  -50.0416 C.3       14 UNK         0.1400 
     81 CB         -2.6433  -25.0004  -50.5898 C.3       14 UNK        -0.1800 
     82 C          -4.1687  -26.8283  -49.7376 C.2       14 UNK         0.5000 
     83 O          -4.9776  -26.8604  -50.6644 O.2       14 UNK        -0.5000 
     84 N          -4.4923  -27.0952  -48.4638 N.am      15 UNK        -0.5000 
     85 CA         -5.8219  -27.4169  -47.9336 C.3       15 UNK         0.1400 
     86 CB         -6.3351  -28.7610  -48.4919 C.3       15 UNK        -0.1800 
     87 C          -6.8196  -26.2529  -48.1164 C.2       15 UNK         0.5000 
     88 O          -7.9277  -26.4463  -48.6187 O.2       15 UNK        -0.5000 
     89 N          -6.3778  -25.0576  -47.7026 N.am      16 UNK        -0.5000 
     90 CA         -7.0745  -23.7662  -47.6966 C.3       16 UNK         0.1400 
     91 CB         -8.4033  -23.8393  -46.9161 C.3       16 UNK        -0.1800 
     92 C          -7.2406  -23.1141  -49.0840 C.2       16 UNK         0.5000 
     93 O          -7.8912  -22.0720  -49.1829 O.2       16 UNK        -0.5000 
     94 N          -6.6316  -23.6928  -50.1274 N.am      17 UNK        -0.5000 
     95 CA         -6.5895  -23.1310  -51.4748 C.3       17 UNK         0.1400 
     96 CB         -6.3595  -24.2607  -52.4923 C.3       17 UNK        -0.1800 
     97 C          -5.5086  -22.0386  -51.5605 C.2       17 UNK         0.5000 
     98 O          -4.3822  -22.3115  -51.9795 O.2       17 UNK        -0.5000 
     99 N          -5.8646  -20.8110  -51.1597 N.am      18 UNK        -0.5000 
    100 CA        -4.9784  -19.6410  -51.1548 C.3       18 UNK         0.1400 
    101 CB        -5.7132  -18.4396  -50.5433 C.3       18 UNK        -0.1800 
    102 C         -4.4039  -19.2860  -52.5409 C.2       18 UNK         0.5000 
    103 O         -3.2718  -18.8142  -52.6248 O.2       18 UNK        -0.5000 
    104 N         -5.1695  -19.5751  -53.6023 N.am      19 UNK        -0.5000 
    105 CA        -4.7588  -19.4255  -55.0000 C.3       19 UNK         0.1400 
    106 CB        -6.0062  -19.5203  -55.8923 C.3       19 UNK        -0.1800 
    107 C         -3.6955  -20.4500  -55.4505 C.2       19 UNK         0.5000 
    108 O         -3.0090  -20.2011  -56.4419 O.2       19 UNK        -0.5000 
    109 N         -3.5784  -21.5792  -54.7372 N.am      20 UNK        -0.5000 
    110 CA        -2.5245  -22.5730  -54.9417 C.3       20 UNK         0.1400 
    111 CB        -3.0849  -23.9809  -54.6893 C.3       20 UNK        -0.1800 
    112 C         -1.3171  -22.2858  -54.0324 C.2       20 UNK         0.5000 
    113 O         -0.1811  -22.5036  -54.4547 O.2       20 UNK        -0.5000 
    114 N         -1.5782  -21.7864  -52.8145 N.am      21 UNK        -0.5000 
    115 CA        -0.5663  -21.3537  -51.8486 C.3       21 UNK         0.1400 
    116 CB        -1.2499  -21.0237  -50.5139 C.3       21 UNK        -0.1800 
    117 C          0.2514  -20.1477  -52.3507 C.2       21 UNK         0.5000 
    118 O          1.4789  -20.1622  -52.2567 O.2       21 UNK        -0.5000 
    119 N         -0.4488  -19.1453  -52.8904 N.am      22 UNK        -0.5000 
    120 CA         0.0998  -17.9483  -53.5305 C.3       22 UNK         0.1400 
    121 C         -0.4072  -17.9219  -54.9949 C.2       22 UNK         0.5000 
    122 N          0.3985  -18.3706  -55.9479 N.am      22 UNK        -0.7600 
    123 O         -1.5189  -17.4833  -55.2785 O.2       22 UNK        -0.5000 
    124 C124       -0.2952  -16.6633  -52.7464 C.3       23 UNK        -0.0398 
    125 S125        1.0539  -16.0196  -51.7001 S.3       23 UNK        -0.2404 
    126 C126        0.8684  -16.9923  -50.1669 C.3       23 UNK        -0.0205 
    127 H127       -0.2240  -15.8838  -44.7557 H         1 UNK         0.0600 
    128 H128       -1.6561  -16.8894  -44.5605 H         1 UNK         0.0600 
    129 H129       -1.0362  -15.9643  -43.1893 H         1 UNK         0.0600 
    130 H130       -0.5152  -13.7697  -45.4472 H         1 UNK         0.3000 
    131 H131       -3.1154  -12.3953  -45.1689 H         1 UNK         0.0600 
    132 H132       -1.6516  -12.8969  -47.8236 H         1 UNK         0.0800 
    133 H133       -2.7401  -11.5503  -47.6267 H         1 UNK         0.0800 
    134 H134       -3.0018  -13.7284  -49.8379 H         1 UNK         0.0800 
    135 H135       -4.3292  -14.8431  -49.6410 H         1 UNK         0.0800 
    136 H136       -1.0074  -14.9138  -50.2554 H         1 UNK         0.1150 
    137 H137       -0.1756  -18.6676  -48.3499 H         1 UNK         0.1150 
    138 H138       -3.7934  -16.5645  -47.4553 H         1 UNK         0.1150 
    139 H139       -1.5158  -19.3165  -46.4449 H         1 UNK         0.0800 
    140 H140       -2.9405  -18.4153  -45.9684 H         1 UNK         0.0800 
    141 H141       -4.4192  -21.7424  -46.3112 H         1 UNK         0.0800 
    142 H142       -3.0053  -21.1063  -45.5156 H         1 UNK         0.0800 
    143 H143       -2.8328  -22.7292  -48.0981 H         1 UNK         0.0600 
    144 H144       -0.7637  -21.6354  -46.4043 H         1 UNK         0.3000 
    145 H145        1.8359  -23.7446  -47.6689 H         1 UNK         0.0600 
    146 H146        2.8748  -21.5145  -48.1136 H         1 UNK         0.0600 
    147 H147        1.7327  -21.9734  -49.3667 H         1 UNK         0.0600 
    148 H148        1.2773  -20.7747  -48.1672 H         1 UNK         0.0600 
    149 H149        1.6140  -21.5463  -45.7741 H         1 UNK         0.3000 
    150 H150        1.0647  -23.6260  -42.9354 H         1 UNK         0.0600 
    151 H151        3.5156  -23.9864  -43.2820 H         1 UNK         0.0600 
    152 H152        3.2157  -22.7165  -42.1063 H         1 UNK         0.0600 
    153 H153        3.7072  -22.3002  -43.7485 H         1 UNK         0.0600 
    154 H154        1.7747  -20.8778  -43.1444 H         1 UNK         0.3000 
    155 H155       -1.3444  -19.5302  -44.0717 H         1 UNK         0.0600 
    156 H156       -0.1083  -19.5141  -41.2707 H         1 UNK         0.0600 
    157 H157       -1.7548  -20.0060  -41.6508 H         1 UNK         0.0600 
    158 H158       -1.2607  -18.3415  -41.9109 H         1 UNK         0.0600 
    159 H159        0.8919  -18.1578  -43.1388 H         1 UNK         0.3000 
    160 H160        3.3005  -18.4196  -45.3009 H         1 UNK         0.0600 
    161 H161        1.2329  -16.5621  -46.5748 H         1 UNK         0.0600 
    162 H162        2.1945  -17.7898  -47.3850 H         1 UNK         0.0600 
    163 H163        2.9831  -16.3745  -46.7103 H         1 UNK         0.0600 
    164 H164        2.1852  -15.9414  -44.3025 H         1 UNK         0.3000 
    165 H165        2.4081  -16.1973  -41.2186 H         1 UNK         0.0600 
    166 H166        5.4100  -15.9129  -41.7442 H         1 UNK         0.0600 
    167 H167        4.5558  -15.2241  -40.3640 H         1 UNK         0.0600 
    168 H168        4.6427  -16.9649  -40.5654 H         1 UNK         0.0600 
    169 H169        2.1146  -14.2184  -42.1134 H         1 UNK         0.3000 
    170 H170        2.1588  -12.4638  -43.3293 H         1 UNK         0.0600 
    171 H171        5.0657  -11.5174  -43.5624 H         1 UNK         0.0600 
    172 H172        3.6440  -10.4874  -43.3857 H         1 UNK         0.0600 
    173 H173        4.1256  -11.5540  -42.0754 H         1 UNK         0.0600 
    174 H174        3.6253  -11.6909  -45.5945 H         1 UNK         0.3000 
    175 H175        3.3158  -12.6835  -47.7912 H         1 UNK         0.0600 
    176 H176        0.5081  -13.9029  -48.0540 H         1 UNK         0.0600 
    177 H177        1.5388  -13.4337  -49.4050 H         1 UNK         0.0600 
    178 H178        2.0331  -14.7304  -48.3320 H         1 UNK         0.0600 
    179 H179        0.9447  -11.2523  -46.8318 H         1 UNK         0.3000 
    180 H180        1.7488   -8.3742  -48.3003 H         1 UNK         0.0600 
    181 H181       -0.1897   -8.1022  -49.8545 H         1 UNK         0.0600 
    182 H182       -0.2791   -9.8514  -50.0634 H         1 UNK         0.0600 
    183 H183        1.1295   -8.9617  -50.6289 H         1 UNK         0.0600 
    184 H184       -0.8364   -9.6750  -47.6708 H         1 UNK         0.3000 
    185 H185       -0.6694   -8.9088  -44.2420 H         1 UNK         0.0600 
    186 H186       -2.8290   -7.7564  -44.6335 H         1 UNK         0.0600 
    187 H187       -1.5006   -6.7383  -45.1643 H         1 UNK         0.0600 
    188 H188       -2.4684   -7.6011  -46.3536 H         1 UNK         0.0600 
    189 H189       -2.7755  -10.0082  -45.7771 H         1 UNK         0.3000 
    190 H190       -1.5798  -23.6006  -44.8562 H         1 UNK         0.3000 
    191 H191       -3.4345  -25.6718  -44.3225 H         1 UNK         0.0600 
    192 H192       -1.7521  -26.4637  -42.6995 H         1 UNK         0.0600 
    193 H193       -1.8688  -24.7113  -42.6284 H         1 UNK         0.0600 
    194 H194       -0.5060  -25.4752  -43.4438 H         1 UNK         0.0600 
    195 H195       -0.2865  -25.7739  -46.0525 H         1 UNK         0.3000 
    196 H196       -0.3428  -28.5503  -46.6983 H         1 UNK         0.0600 
    197 H197        1.0983  -26.2212  -48.0738 H         1 UNK         0.0600 
    198 H198        1.7272  -27.1846  -46.7396 H         1 UNK         0.0600 
    199 H199        1.4552  -27.9276  -48.3091 H         1 UNK         0.0600 
    200 H200       -1.4904  -25.6628  -48.4910 H         1 UNK         0.3000 
    201 H201       -2.3497  -27.1093  -50.8226 H         1 UNK         0.0600 
    202 H202       -3.2371  -24.9015  -51.4966 H         1 UNK         0.0600 
    203 H203       -3.0262  -24.2768  -49.8706 H         1 UNK         0.0600 
    204 H204       -1.6229  -24.7149  -50.8457 H         1 UNK         0.0600 
    205 H205       -3.7617  -26.9920  -47.7721 H         1 UNK         0.3000 
    206 H206       -5.6941  -27.5406  -46.8571 H         1 UNK         0.0600 
    207 H207       -5.6101  -29.5579  -48.3266 H         1 UNK         0.0600 
    208 H208       -7.2615  -29.0576  -47.9988 H         1 UNK         0.0600 
    209 H209       -6.5389  -28.7093  -49.5617 H         1 UNK         0.0600 
    210 H210       -5.4190  -25.0132  -47.3548 H         1 UNK         0.3000 
    211 H211       -6.4179  -23.0944  -47.1425 H         1 UNK         0.0600 
    212 H212       -8.8185  -22.8433  -46.7582 H         1 UNK         0.0600 
    213 H213       -8.2602  -24.2882  -45.9332 H         1 UNK         0.0600 
    214 H214       -9.1563  -24.4219  -47.4470 H         1 UNK         0.0600 
    215 H215       -6.1134  -24.5462  -49.9743 H         1 UNK         0.3000 
    216 H216       -7.5542  -22.6752  -51.7083 H         1 UNK         0.0600 
    217 H217       -5.4239  -24.7878  -52.3119 H         1 UNK         0.0600 
    218 H218       -6.3229  -23.8689  -53.5095 H         1 UNK         0.0600 
    219 H219       -7.1648  -24.9943  -52.4535 H         1 UNK         0.0600 
    220 H220       -6.7897  -20.6835  -50.7704 H         1 UNK         0.3000 
    221 H221       -4.1355  -19.8808  -50.5079 H         1 UNK         0.0600 
    222 H222       -6.0356  -18.6539  -49.5240 H         1 UNK         0.0600 
    223 H223       -6.5927  -18.1647  -51.1264 H         1 UNK         0.0600 
    224 H224       -5.0598  -17.5670  -50.4968 H         1 UNK         0.0600 
    225 H225       -6.0874  -19.9611  -53.4382 H         1 UNK         0.3000 
    226 H226       -4.3240  -18.4310  -55.1220 H         1 UNK         0.0600 
    227 H227       -6.4928  -20.4922  -55.8015 H         1 UNK         0.0600 
    228 H228       -6.7358  -18.7524  -55.6343 H         1 UNK         0.0600 
    229 H229       -5.7470  -19.3799  -56.9425 H         1 UNK         0.0600 
    230 H230       -4.1565  -21.7068  -53.9156 H         1 UNK         0.3000 
    231 H231       -2.1767  -22.5396  -55.9764 H         1 UNK         0.0600 
    232 H232       -3.4412  -24.0983  -53.6677 H         1 UNK         0.0600 
    233 H233       -2.3206  -24.7403  -54.8582 H         1 UNK         0.0600 
    234 H234       -3.9161  -24.1996  -55.3596 H         1 UNK         0.0600 
    235 H235       -2.5461  -21.7144  -52.5215 H         1 UNK         0.3000 
    236 H236        0.1185  -22.1883  -51.6849 H         1 UNK         0.0600 
    237 H237       -1.8560  -21.8574  -50.1601 H         1 UNK         0.0600 
    238 H238       -0.5146  -20.8012  -49.7430 H         1 UNK         0.0600 
    239 H239       -1.8928  -20.1487  -50.5956 H         1 UNK         0.0600 
    240 H240       -1.4648  -19.2053  -52.9084 H         1 UNK         0.3000 
    241 H241        1.1889  -18.0130  -53.5727 H         1 UNK         0.0600 
    242 H242        0.0763  -18.3606  -56.9031 H         1 UNK         0.3800 
    243 H243        1.3107  -18.7440  -55.7355 H         1 UNK         0.3800 
    244 H244       -1.1966  -16.8231  -52.1530 H         1 UNK         0.0800 
    245 H245       -0.5459  -15.8452  -53.4240 H         1 UNK         0.0800 
    246 H246        1.0030  -18.0451  -50.4157 H         1 UNK         0.0800 
    247 H247        1.6920  -16.7332  -49.5032 H         1 UNK         0.0800 
@<TRIPOS>BOND
     1    1    2 1    
     2    1  127 1    
     3    1  128 1    
     4    1  129 1    
     5    2    3 2    
     6    2    4 am   BACKBONE|DICT|INTERRES
     7    4    5 1    
     8    4  130 1    
     9    5    6 1    
    10    5   65 1    
    11    5  131 1    
    12    6    7 1    
    13    6  132 1    
    14    6  133 1    
    15    7    8 1    
    16    8    9 1    
    17    8  134 1    
    18    8  135 1    
    19    9   10 ar   
    20    9   14 ar   
    21   10   11 ar   
    22   10  136 1    
    23   11   12 ar   
    24   11  126 1    
    25   12   13 ar   
    26   12  137 1    
    27   13   14 ar   
    28   13   15 1    
    29   14  138 1    
    30   15   16 1    
    31   15  139 1    
    32   15  140 1    
    33   16   17 1    
    34   17   18 1    
    35   17  141 1    
    36   17  142 1    
    37   18   19 1    
    38   18   67 1    
    39   18  143 1    
    40   19   20 am   BACKBONE|DICT|INTERRES
    41   19  144 1    
    42   20   21 2    
    43   20   22 1    
    44   22   23 1    
    45   22   24 1    
    46   22  145 1    
    47   23  146 1    
    48   23  147 1    
    49   23  148 1    
    50   24   25 am   BACKBONE|DICT|INTERRES
    51   24  149 1    
    52   25   26 2    
    53   25   27 1    
    54   27   28 1    
    55   27   29 1    
    56   27  150 1    
    57   28  151 1    
    58   28  152 1    
    59   28  153 1    
    60   29   30 am   BACKBONE|DICT|INTERRES
    61   29  154 1    
    62   30   31 2    
    63   30   32 1    
    64   32   33 1    
    65   32   34 1    
    66   32  155 1    
    67   33  156 1    
    68   33  157 1    
    69   33  158 1    
    70   34   35 am   BACKBONE|DICT|INTERRES
    71   34  159 1    
    72   35   36 2    
    73   35   37 1    
    74   37   38 1    
    75   37   39 1    
    76   37  160 1    
    77   38  161 1    
    78   38  162 1    
    79   38  163 1    
    80   39   40 am   BACKBONE|DICT|INTERRES
    81   39  164 1    
    82   40   41 2    
    83   40   42 1    
    84   42   43 1    
    85   42   44 1    
    86   42  165 1    
    87   43  166 1    
    88   43  167 1    
    89   43  168 1    
    90   44   45 am   BACKBONE|DICT|INTERRES
    91   44  169 1    
    92   45   46 2    
    93   45   47 1    
    94   47   48 1    
    95   47   49 1    
    96   47  170 1    
    97   48  171 1    
    98   48  172 1    
    99   48  173 1    
   100   49   50 am   BACKBONE|DICT|INTERRES
   101   49  174 1    
   102   50   51 2    
   103   50   52 1    
   104   52   53 1    
   105   52   54 1    
   106   52  175 1    
   107   53  176 1    
   108   53  177 1    
   109   53  178 1    
   110   54   55 am   BACKBONE|DICT|INTERRES
   111   54  179 1    
   112   55   56 2    
   113   55   57 1    
   114   57   58 1    
   115   57   59 1    
   116   57  180 1    
   117   58  181 1    
   118   58  182 1    
   119   58  183 1    
   120   59   60 am   BACKBONE|DICT|INTERRES
   121   59  184 1    
   122   60   61 2    
   123   60   62 1    
   124   62   63 1    
   125   62   64 1    
   126   62  185 1    
   127   63  186 1    
   128   63  187 1    
   129   63  188 1    
   130   64   65 am   BACKBONE|DICT|INTERRES
   131   64  189 1    
   132   65   66 2    
   133   67   68 2    
   134   67   69 am   BACKBONE|DICT|INTERRES
   135   69   70 1    
   136   69  190 1    
   137   70   71 1    
   138   70   72 1    
   139   70  191 1    
   140   71  192 1    
   141   71  193 1    
   142   71  194 1    
   143   72   73 2    
   144   72   74 am   BACKBONE|DICT|INTERRES
   145   74   75 1    
   146   74  195 1    
   147   75   76 1    
   148   75   77 1    
   149   75  196 1    
   150   76  197 1    
   151   76  198 1    
   152   76  199 1    
   153   77   78 2    
   154   77   79 am   BACKBONE|DICT|INTERRES
   155   79   80 1    
   156   79  200 1    
   157   80   81 1    
   158   80   82 1    
   159   80  201 1    
   160   81  202 1    
   161   81  203 1    
   162   81  204 1    
   163   82   83 2    
   164   82   84 am   BACKBONE|DICT|INTERRES
   165   84   85 1    
   166   84  205 1    
   167   85   86 1    
   168   85   87 1    
   169   85  206 1    
   170   86  207 1    
   171   86  208 1    
   172   86  209 1    
   173   87   88 2    
   174   87   89 am   BACKBONE|DICT|INTERRES
   175   89   90 1    
   176   89  210 1    
   177   90   91 1    
   178   90   92 1    
   179   90  211 1    
   180   91  212 1    
   181   91  213 1    
   182   91  214 1    
   183   92   93 2    
   184   92   94 am   BACKBONE|DICT|INTERRES
   185   94   95 1    
   186   94  215 1    
   187   95   96 1    
   188   95   97 1    
   189   95  216 1    
   190   96  217 1    
   191   96  218 1    
   192   96  219 1    
   193   97   98 2    
   194   97   99 am   BACKBONE|DICT|INTERRES
   195   99  100 1    
   196   99  220 1    
   197  100  101 1    
   198  100  102 1    
   199  100  221 1    
   200  101  222 1    
   201  101  223 1    
   202  101  224 1    
   203  102  103 2    
   204  102  104 am   BACKBONE|DICT|INTERRES
   205  104  105 1    
   206  104  225 1    
   207  105  106 1    
   208  105  107 1    
   209  105  226 1    
   210  106  227 1    
   211  106  228 1    
   212  106  229 1    
   213  107  108 2    
   214  107  109 am   BACKBONE|DICT|INTERRES
   215  109  110 1    
   216  109  230 1    
   217  110  111 1    
   218  110  112 1    
   219  110  231 1    
   220  111  232 1    
   221  111  233 1    
   222  111  234 1    
   223  112  113 2    
   224  112  114 am   BACKBONE|DICT|INTERRES
   225  114  115 1    
   226  114  235 1    
   227  115  116 1    
   228  115  117 1    
   229  115  236 1    
   230  116  237 1    
   231  116  238 1    
   232  116  239 1    
   233  117  118 2    
   234  117  119 am   BACKBONE|DICT|INTERRES
   235  119  120 1    
   236  119  240 1    
   237  120  121 1    
   238  120  124 1    
   239  120  241 1    
   240  121  122 am   BACKBONE|DICT|INTERRES
   241  121  123 2    
   242  122  242 1    
   243  122  243 1    
   244  124  125 1    
   245  124  244 1    
   246  124  245 1    
   247  125  126 1    
   248  126  246 1    
   249  126  247 1    
@<TRIPOS>SUBSTRUCTURE
     1 UNK         1 GROUP             0       ****    0 ROOT    
