@<TRIPOS>MOLECULE
3R540
247   249    1
SMALL
USER_CHARGES


@<TRIPOS>ATOM
      1 CA          3.8395  -17.5357  -47.5006 C.3       0 UNK        -0.1800 
      2 C           4.6991  -17.6604  -48.7557 C.2       0 UNK         0.5000 
      3 O           5.8371  -18.1120  -48.6533 O.2       0 UNK        -0.5000 
      4 N           4.2313  -17.2748  -49.9528 N.am      1 UNK        -0.5000 
      5 CA          2.9291  -16.6808  -50.2959 C.3       1 UNK         0.1400 
      6 C6          2.7753  -16.6286  -51.8386 C.3       23 UNK        -0.0398 
      7 S7          1.1075  -16.1802  -52.4336 S.3       23 UNK        -0.2404 
      8 C8          0.4431  -17.7890  -52.9607 C.3       23 UNK        -0.0205 
      9 C9          0.0881  -18.6730  -51.7772 C.ar      23 UNK        -0.0193 
     10 C10        -1.0557  -18.4065  -51.0187 C.ar      23 UNK        -0.1150 
     11 C11        -1.4141  -19.2404  -49.9564 C.ar      23 UNK        -0.0193 
     12 C12        -0.6195  -20.3513  -49.6593 C.ar      23 UNK        -0.1150 
     13 C13         0.5474  -20.6075  -50.3884 C.ar      23 UNK        -0.0193 
     14 C14         0.8905  -19.7690  -51.4515 C.ar      23 UNK        -0.1150 
     15 C15         1.4446  -21.7849  -50.0330 C.3       23 UNK        -0.0205 
     16 S16         2.8616  -21.2796  -49.0066 S.3       23 UNK        -0.2404 
     17 C17         2.0250  -20.9038  -47.4315 C.3       23 UNK        -0.0398 
     18 CA          2.5077  -21.7643  -46.2428 C.3       11 UNK         0.1400 
     19 N           2.0702  -21.1867  -44.9724 N.am      11 UNK        -0.5000 
     20 C           2.8118  -21.1515  -43.8588 C.2       10 UNK         0.5000 
     21 O           3.9457  -21.6270  -43.7870 O.2       10 UNK        -0.5000 
     22 CA          2.2059  -20.4723  -42.6170 C.3       10 UNK         0.1400 
     23 CB          2.6272  -18.9951  -42.5554 C.3       10 UNK        -0.1800 
     24 N           0.7467  -20.5613  -42.5224 N.am      10 UNK        -0.5000 
     25 C           0.0806  -21.6831  -42.2081 C.2       9 UNK         0.5000 
     26 O           0.6162  -22.7870  -42.1067 O.2       9 UNK        -0.5000 
     27 CA         -1.4270  -21.5516  -41.9309 C.3       9 UNK         0.1400 
     28 CB         -1.6651  -20.9561  -40.5340 C.3       9 UNK        -0.1800 
     29 N          -2.0776  -20.7041  -42.9260 N.am      9 UNK        -0.5000 
     30 C          -2.9378  -21.1393  -43.8575 C.2       8 UNK         0.5000 
     31 O          -3.3543  -22.2950  -43.9234 O.2       8 UNK        -0.5000 
     32 CA         -3.4002  -20.1171  -44.9182 C.3       8 UNK         0.1400 
     33 CB         -4.7275  -19.4739  -44.4934 C.3       8 UNK        -0.1800 
     34 N          -2.4278  -19.0578  -45.1895 N.am      8 UNK        -0.5000 
     35 C          -1.1533  -19.2475  -45.5614 C.2       7 UNK         0.5000 
     36 O          -0.6789  -20.3498  -45.8236 O.2       7 UNK        -0.5000 
     37 CA         -0.2286  -18.0173  -45.5543 C.3       7 UNK         0.1400 
     38 CB          0.0166  -17.5133  -46.9840 C.3       7 UNK        -0.1800 
     39 N          -0.7238  -16.9330  -44.6959 N.am      7 UNK        -0.5000 
     40 C          -0.8645  -17.0251  -43.3614 C.2       6 UNK         0.5000 
     41 O          -0.5584  -18.0346  -42.7240 O.2       6 UNK        -0.5000 
     42 CA         -1.5040  -15.8382  -42.6172 C.3       6 UNK         0.1400 
     43 CB         -0.4615  -15.0491  -41.8115 C.3       6 UNK        -0.1800 
     44 N          -2.2190  -14.9311  -43.5155 N.am      6 UNK        -0.5000 
     45 C          -3.4820  -15.1213  -43.9242 C.2       5 UNK         0.5000 
     46 O          -4.1827  -16.0597  -43.5465 O.2       5 UNK        -0.5000 
     47 CA         -4.0484  -14.1151  -44.9456 C.3       5 UNK         0.1400 
     48 CB         -4.7527  -12.9543  -44.2282 C.3       5 UNK        -0.1800 
     49 N          -3.0269  -13.5755  -45.8454 N.am      5 UNK        -0.5000 
     50 C          -2.3602  -14.3008  -46.7525 C.2       4 UNK         0.5000 
     51 O          -2.5836  -15.4934  -46.9526 O.2       4 UNK        -0.5000 
     52 CA         -1.2454  -13.5956  -47.5515 C.3       4 UNK         0.1400 
     53 CB         -1.4439  -12.0689  -47.6671 C.3       4 UNK        -0.1800 
     54 N           0.1012  -13.8900  -47.0465 N.am      4 UNK        -0.5000 
     55 C           0.5774  -13.6970  -45.8042 C.2       3 UNK         0.5000 
     56 O          -0.1231  -13.3426  -44.8556 O.2       3 UNK        -0.5000 
     57 CA          2.0910  -13.9146  -45.5685 C.3       3 UNK         0.1400 
     58 CB          2.3684  -15.2014  -44.7736 C.3       3 UNK        -0.1800 
     59 N           2.8832  -13.9463  -46.7984 N.am      3 UNK        -0.5000 
     60 C           3.1253  -12.8940  -47.5911 C.2       2 UNK         0.5000 
     61 O           2.7819  -11.7435  -47.3182 O.2       2 UNK        -0.5000 
     62 CA          3.8562  -13.1690  -48.9233 C.3       2 UNK         0.1400 
     63 CB          5.3252  -12.7294  -48.8240 C.3       2 UNK        -0.1800 
     64 N           3.8157  -14.5574  -49.4055 N.am      2 UNK        -0.5000 
     65 C           2.7162  -15.2854  -49.6585 C.2       1 UNK         0.5000 
     66 O           1.5777  -14.9129  -49.3743 O.2       1 UNK        -0.5000 
     67 C           2.0245  -23.2242  -46.3013 C.2       11 UNK         0.5000 
     68 O           1.0647  -23.5369  -47.0051 O.2       11 UNK        -0.5000 
     69 N           2.6975  -24.0950  -45.5367 N.am      12 UNK        -0.5000 
     70 CA          2.3712  -25.5147  -45.3553 C.3       12 UNK         0.1400 
     71 CB          3.3768  -26.1282  -44.3693 C.3       12 UNK        -0.1800 
     72 C           2.3148  -26.3484  -46.6537 C.2       12 UNK         0.5000 
     73 O           1.6534  -27.3867  -46.6761 O.2       12 UNK        -0.5000 
     74 N           2.9926  -25.8765  -47.7089 N.am      13 UNK        -0.5000 
     75 CA          3.0214  -26.4782  -49.0417 C.3       13 UNK         0.1400 
     76 CB          4.0813  -25.7523  -49.8850 C.3       13 UNK        -0.1800 
     77 C           1.6628  -26.4666  -49.7722 C.2       13 UNK         0.5000 
     78 O           1.4338  -27.3369  -50.6134 O.2       13 UNK        -0.5000 
     79 N           0.7928  -25.4980  -49.4549 N.am      14 UNK        -0.5000 
     80 CA         -0.5277  -25.3342  -50.0647 C.3       14 UNK         0.1400 
     81 CB         -0.4040  -24.7087  -51.4708 C.3       14 UNK        -0.1800 
     82 C          -1.4279  -24.5331  -49.1108 C.2       14 UNK         0.5000 
     83 O          -2.0014  -23.5128  -49.4984 O.2       14 UNK        -0.5000 
     84 N          -1.4933  -24.9987  -47.8565 N.am      15 UNK        -0.5000 
     85 CA         -2.1845  -24.3596  -46.7378 C.3       15 UNK         0.1400 
     86 CB         -1.9469  -25.1897  -45.4661 C.3       15 UNK        -0.1800 
     87 C          -3.6867  -24.1665  -47.0125 C.2       15 UNK         0.5000 
     88 O          -4.4424  -25.1404  -46.9983 O.2       15 UNK        -0.5000 
     89 N          -4.0660  -22.9110  -47.2861 N.am      16 UNK        -0.5000 
     90 CA         -5.4177  -22.4385  -47.5989 C.3       16 UNK         0.1400 
     91 CB         -6.3689  -22.6503  -46.4027 C.3       16 UNK        -0.1800 
     92 C          -5.9736  -23.0080  -48.9214 C.2       16 UNK         0.5000 
     93 O          -7.1847  -23.1913  -49.0517 O.2       16 UNK        -0.5000 
     94 N          -5.0847  -23.2493  -49.8968 N.am      17 UNK        -0.5000 
     95 CA         -5.4258  -23.7506  -51.2336 C.3       17 UNK         0.1400 
     96 CB         -4.1518  -24.3002  -51.8897 C.3       17 UNK        -0.1800 
     97 C          -6.0906  -22.7027  -52.1529 C.2       17 UNK         0.5000 
     98 O          -6.5121  -23.0544  -53.2551 O.2       17 UNK        -0.5000 
     99 N          -6.1497  -21.4424  -51.6982 N.am      18 UNK        -0.5000 
    100 CA        -6.6722  -20.2587  -52.3888 C.3       18 UNK         0.1400 
    101 CB        -8.1630  -20.4170  -52.7525 C.3       18 UNK        -0.1800 
    102 C         -5.7976  -19.8141  -53.5789 C.2       18 UNK         0.5000 
    103 O         -6.2963  -19.1570  -54.4939 O.2       18 UNK        -0.5000 
    104 N         -4.4967  -20.1400  -53.5226 N.am      19 UNK        -0.5000 
    105 CA        -3.4863  -19.8413  -54.5437 C.3       19 UNK         0.1400 
    106 CB        -2.1663  -20.5191  -54.1462 C.3       19 UNK        -0.1800 
    107 C         -3.2796  -18.3352  -54.8076 C.2       19 UNK         0.5000 
    108 O         -2.9387  -17.9560  -55.9285 O.2       19 UNK        -0.5000 
    109 N         -3.5360  -17.5094  -53.7878 N.am      20 UNK        -0.5000 
    110 CA        -3.6716  -16.0583  -53.8876 C.3       20 UNK         0.1400 
    111 CB        -2.3291  -15.3659  -53.5933 C.3       20 UNK        -0.1800 
    112 C         -4.8038  -15.6247  -52.9453 C.2       20 UNK         0.5000 
    113 O         -4.6020  -14.7726  -52.0790 O.2       20 UNK        -0.5000 
    114 N         -5.9601  -16.2928  -53.0815 N.am      21 UNK        -0.5000 
    115 CA        -7.1876  -16.1976  -52.2755 C.3       21 UNK         0.1400 
    116 CB        -7.7744  -14.7736  -52.2956 C.3       21 UNK        -0.1800 
    117 C         -7.0472  -16.7242  -50.8318 C.2       21 UNK         0.5000 
    118 O         -7.9652  -17.3840  -50.3458 O.2       21 UNK        -0.5000 
    119 N         -5.8999  -16.4627  -50.1944 N.am      22 UNK        -0.5000 
    120 CA        -5.5083  -16.9172  -48.8486 C.3       22 UNK         0.1400 
    121 C         -6.3584  -16.3087  -47.6906 C.2       22 UNK         0.5000 
    122 N         -7.0142  -15.1708  -47.8859 N.am      22 UNK        -0.7600 
    123 O         -6.4121  -16.8544  -46.5933 O.2       22 UNK        -0.5000 
    124 C124       -5.3535  -18.4643  -48.7433 C.3       23 UNK        -0.0398 
    125 S125       -4.1940  -19.1647  -49.9720 S.3       23 UNK        -0.2404 
    126 C126       -2.6249  -18.9060  -49.0988 C.3       23 UNK        -0.0205 
    127 H127        4.0532  -18.3597  -46.8197 H         1 UNK         0.0600 
    128 H128        2.7760  -17.5594  -47.7205 H         1 UNK         0.0600 
    129 H129        4.0730  -16.6083  -46.9800 H         1 UNK         0.0600 
    130 H130        4.8518  -17.3947  -50.7407 H         1 UNK         0.3000 
    131 H131        2.1519  -17.3427  -49.9087 H         1 UNK         0.0600 
    132 H132        3.4853  -15.9188  -52.2669 H         1 UNK         0.0800 
    133 H133        3.0398  -17.5969  -52.2658 H         1 UNK         0.0800 
    134 H134       -0.4529  -17.6260  -53.5590 H         1 UNK         0.0800 
    135 H135        1.1558  -18.2847  -53.6214 H         1 UNK         0.0800 
    136 H136       -1.6679  -17.5480  -51.2538 H         1 UNK         0.1150 
    137 H137       -0.8980  -21.0043  -48.8441 H         1 UNK         0.1150 
    138 H138        1.7844  -19.9723  -52.0240 H         1 UNK         0.1150 
    139 H139        0.8741  -22.5524  -49.5106 H         1 UNK         0.0800 
    140 H140        1.8213  -22.2479  -50.9459 H         1 UNK         0.0800 
    141 H141        0.9499  -20.9947  -47.5528 H         1 UNK         0.0800 
    142 H142        2.2084  -19.8531  -47.2179 H         1 UNK         0.0800 
    143 H143        3.5993  -21.7761  -46.2807 H         1 UNK         0.0600 
    144 H144        1.1097  -20.8626  -44.9463 H         1 UNK         0.3000 
    145 H145        2.6260  -20.9716  -41.7412 H         1 UNK         0.0600 
    146 H146        2.2616  -18.5181  -41.6458 H         1 UNK         0.0600 
    147 H147        2.2481  -18.4270  -43.4042 H         1 UNK         0.0600 
    148 H148        3.7136  -18.8984  -42.5577 H         1 UNK         0.0600 
    149 H149        0.2440  -19.6783  -42.5631 H         1 UNK         0.3000 
    150 H150       -1.8517  -22.5575  -41.9434 H         1 UNK         0.0600 
    151 H151       -1.1815  -21.5588  -39.7641 H         1 UNK         0.0600 
    152 H152       -2.7290  -20.9217  -40.2992 H         1 UNK         0.0600 
    153 H153       -1.2726  -19.9414  -40.4536 H         1 UNK         0.0600 
    154 H154       -1.7780  -19.7374  -42.9563 H         1 UNK         0.3000 
    155 H155       -3.5613  -20.6558  -45.8511 H         1 UNK         0.0600 
    156 H156       -5.4894  -20.2291  -44.2992 H         1 UNK         0.0600 
    157 H157       -5.1144  -18.8151  -45.2696 H         1 UNK         0.0600 
    158 H158       -4.6132  -18.8841  -43.5830 H         1 UNK         0.0600 
    159 H159       -2.7295  -18.1139  -44.9936 H         1 UNK         0.3000 
    160 H160        0.7317  -18.3433  -45.1533 H         1 UNK         0.0600 
    161 H161       -0.9034  -17.2052  -47.4684 H         1 UNK         0.0600 
    162 H162        0.4492  -18.2951  -47.6079 H         1 UNK         0.0600 
    163 H163        0.6955  -16.6643  -47.0083 H         1 UNK         0.0600 
    164 H164       -1.0630  -16.1035  -45.1624 H         1 UNK         0.3000 
    165 H165       -2.2102  -16.2643  -41.9012 H         1 UNK         0.0600 
    166 H166       -0.9472  -14.3451  -41.1358 H         1 UNK         0.0600 
    167 H167        0.1519  -15.7127  -41.2003 H         1 UNK         0.0600 
    168 H168        0.2064  -14.4771  -42.4526 H         1 UNK         0.0600 
    169 H169       -1.6823  -14.1598  -43.9021 H         1 UNK         0.3000 
    170 H170       -4.7889  -14.6418  -45.5510 H         1 UNK         0.0600 
    171 H171       -4.0565  -12.3741  -43.6213 H         1 UNK         0.0600 
    172 H172       -5.2232  -12.2773  -44.9415 H         1 UNK         0.0600 
    173 H173       -5.5372  -13.3237  -43.5663 H         1 UNK         0.0600 
    174 H174       -2.7659  -12.6091  -45.7137 H         1 UNK         0.3000 
    175 H175       -1.2891  -14.0087  -48.5606 H         1 UNK         0.0600 
    176 H176       -1.3267  -11.5608  -46.7094 H         1 UNK         0.0600 
    177 H177       -0.7171  -11.6372  -48.3555 H         1 UNK         0.0600 
    178 H178       -2.4349  -11.8284  -48.0544 H         1 UNK         0.0600 
    179 H179        0.7471  -14.2223  -47.7577 H         1 UNK         0.3000 
    180 H180        2.4375  -13.0715  -44.9671 H         1 UNK         0.0600 
    181 H181        3.4225  -15.2742  -44.5055 H         1 UNK         0.0600 
    182 H182        2.1104  -16.0967  -45.3353 H         1 UNK         0.0600 
    183 H183        1.8034  -15.2260  -43.8439 H         1 UNK         0.0600 
    184 H184        3.2061  -14.8488  -47.1079 H         1 UNK         0.3000 
    185 H185        3.3676  -12.5534  -49.6811 H         1 UNK         0.0600 
    186 H186        5.8268  -12.8039  -49.7890 H         1 UNK         0.0600 
    187 H187        5.4040  -11.6907  -48.5000 H         1 UNK         0.0600 
    188 H188        5.8785  -13.3392  -48.1086 H         1 UNK         0.0600 
    189 H189        4.7084  -14.9628  -49.6486 H         1 UNK         0.3000 
    190 H190        3.4555  -23.7374  -44.9706 H         1 UNK         0.3000 
    191 H191        1.3817  -25.5630  -44.8994 H         1 UNK         0.0600 
    192 H192        3.3509  -25.6142  -43.4082 H         1 UNK         0.0600 
    193 H193        4.3968  -26.0761  -44.7519 H         1 UNK         0.0600 
    194 H194        3.1499  -27.1783  -44.1798 H         1 UNK         0.0600 
    195 H195        3.5044  -25.0149  -47.5926 H         1 UNK         0.3000 
    196 H196        3.3254  -27.5211  -48.9311 H         1 UNK         0.0600 
    197 H197        5.0682  -25.8242  -49.4275 H         1 UNK         0.0600 
    198 H198        3.8423  -24.6947  -50.0066 H         1 UNK         0.0600 
    199 H199        4.1546  -26.1889  -50.8820 H         1 UNK         0.0600 
    200 H200        1.0237  -24.8420  -48.7146 H         1 UNK         0.3000 
    201 H201       -0.9882  -26.3186  -50.1710 H         1 UNK         0.0600 
    202 H202        0.2941  -25.2615  -52.0989 H         1 UNK         0.0600 
    203 H203       -0.0692  -23.6738  -51.4318 H         1 UNK         0.0600 
    204 H204       -1.3631  -24.7183  -51.9850 H         1 UNK         0.0600 
    205 H205       -0.9853  -25.8424  -47.6366 H         1 UNK         0.3000 
    206 H206       -1.7278  -23.3792  -46.5824 H         1 UNK         0.0600 
    207 H207       -2.2878  -26.2189  -45.5845 H         1 UNK         0.0600 
    208 H208       -0.8898  -25.2117  -45.2064 H         1 UNK         0.0600 
    209 H209       -2.4787  -24.7637  -44.6149 H         1 UNK         0.0600 
    210 H210       -3.3366  -22.2163  -47.3526 H         1 UNK         0.3000 
    211 H211       -5.3279  -21.3628  -47.7533 H         1 UNK         0.0600 
    212 H212       -6.6073  -23.7041  -46.2566 H         1 UNK         0.0600 
    213 H213       -7.3103  -22.1209  -46.5535 H         1 UNK         0.0600 
    214 H214       -5.9310  -22.2781  -45.4772 H         1 UNK         0.0600 
    215 H215       -4.0972  -23.1132  -49.7058 H         1 UNK         0.3000 
    216 H216       -6.1325  -24.5753  -51.1215 H         1 UNK         0.0600 
    217 H217       -4.3622  -24.7239  -52.8725 H         1 UNK         0.0600 
    218 H218       -3.7105  -25.0925  -51.2852 H         1 UNK         0.0600 
    219 H219       -3.4054  -23.5160  -52.0221 H         1 UNK         0.0600 
    220 H220       -5.7527  -21.2692  -50.7859 H         1 UNK         0.3000 
    221 H221       -6.6111  -19.4506  -51.6625 H         1 UNK         0.0600 
    222 H222       -8.7464  -20.7384  -51.8898 H         1 UNK         0.0600 
    223 H223       -8.5839  -19.4694  -53.0906 H         1 UNK         0.0600 
    224 H224       -8.3140  -21.1426  -53.5519 H         1 UNK         0.0600 
    225 H225       -4.1771  -20.6599  -52.7186 H         1 UNK         0.3000 
    226 H226       -3.8270  -20.2853  -55.4812 H         1 UNK         0.0600 
    227 H227       -2.2704  -21.6042  -54.1325 H         1 UNK         0.0600 
    228 H228       -1.3690  -20.2781  -54.8505 H         1 UNK         0.0600 
    229 H229       -1.8380  -20.2062  -53.1558 H         1 UNK         0.0600 
    230 H230       -3.8071  -17.9175  -52.9039 H         1 UNK         0.3000 
    231 H231       -3.9860  -15.7837  -54.8968 H         1 UNK         0.0600 
    232 H232       -2.4265  -14.2816  -53.6564 H         1 UNK         0.0600 
    233 H233       -1.9626  -15.6043  -52.5949 H         1 UNK         0.0600 
    234 H234       -1.5677  -15.6610  -54.3147 H         1 UNK         0.0600 
    235 H235       -5.9958  -16.9993  -53.8072 H         1 UNK         0.3000 
    236 H236       -7.9077  -16.8507  -52.7713 H         1 UNK         0.0600 
    237 H237       -7.1300  -14.0558  -51.7879 H         1 UNK         0.0600 
    238 H238       -7.9264  -14.4246  -53.3170 H         1 UNK         0.0600 
    239 H239       -8.7436  -14.7476  -51.7961 H         1 UNK         0.0600 
    240 H240       -5.2322  -15.8684  -50.6774 H         1 UNK         0.3000 
    241 H241       -4.5180  -16.4914  -48.6891 H         1 UNK         0.0600 
    242 H242       -7.5639  -14.7820  -47.1364 H         1 UNK         0.3800 
    243 H243       -6.9805  -14.7052  -48.7782 H         1 UNK         0.3800 
    244 H244       -6.3217  -18.9507  -48.8679 H         1 UNK         0.0800 
    245 H245       -5.0042  -18.7467  -47.7492 H         1 UNK         0.0800 
    246 H246       -2.5643  -17.8608  -48.7973 H         1 UNK         0.0800 
    247 H247       -2.6231  -19.4983  -48.1834 H         1 UNK         0.0800 
@<TRIPOS>BOND
     1    1    2 1    
     2    1  127 1    
     3    1  128 1    
     4    1  129 1    
     5    2    3 2    
     6    2    4 am   BACKBONE|DICT|INTERRES
     7    4    5 1    
     8    4  130 1    
     9    5    6 1    
    10    5   65 1    
    11    5  131 1    
    12    6    7 1    
    13    6  132 1    
    14    6  133 1    
    15    7    8 1    
    16    8    9 1    
    17    8  134 1    
    18    8  135 1    
    19    9   10 ar   
    20    9   14 ar   
    21   10   11 ar   
    22   10  136 1    
    23   11   12 ar   
    24   11  126 1    
    25   12   13 ar   
    26   12  137 1    
    27   13   14 ar   
    28   13   15 1    
    29   14  138 1    
    30   15   16 1    
    31   15  139 1    
    32   15  140 1    
    33   16   17 1    
    34   17   18 1    
    35   17  141 1    
    36   17  142 1    
    37   18   19 1    
    38   18   67 1    
    39   18  143 1    
    40   19   20 am   BACKBONE|DICT|INTERRES
    41   19  144 1    
    42   20   21 2    
    43   20   22 1    
    44   22   23 1    
    45   22   24 1    
    46   22  145 1    
    47   23  146 1    
    48   23  147 1    
    49   23  148 1    
    50   24   25 am   BACKBONE|DICT|INTERRES
    51   24  149 1    
    52   25   26 2    
    53   25   27 1    
    54   27   28 1    
    55   27   29 1    
    56   27  150 1    
    57   28  151 1    
    58   28  152 1    
    59   28  153 1    
    60   29   30 am   BACKBONE|DICT|INTERRES
    61   29  154 1    
    62   30   31 2    
    63   30   32 1    
    64   32   33 1    
    65   32   34 1    
    66   32  155 1    
    67   33  156 1    
    68   33  157 1    
    69   33  158 1    
    70   34   35 am   BACKBONE|DICT|INTERRES
    71   34  159 1    
    72   35   36 2    
    73   35   37 1    
    74   37   38 1    
    75   37   39 1    
    76   37  160 1    
    77   38  161 1    
    78   38  162 1    
    79   38  163 1    
    80   39   40 am   BACKBONE|DICT|INTERRES
    81   39  164 1    
    82   40   41 2    
    83   40   42 1    
    84   42   43 1    
    85   42   44 1    
    86   42  165 1    
    87   43  166 1    
    88   43  167 1    
    89   43  168 1    
    90   44   45 am   BACKBONE|DICT|INTERRES
    91   44  169 1    
    92   45   46 2    
    93   45   47 1    
    94   47   48 1    
    95   47   49 1    
    96   47  170 1    
    97   48  171 1    
    98   48  172 1    
    99   48  173 1    
   100   49   50 am   BACKBONE|DICT|INTERRES
   101   49  174 1    
   102   50   51 2    
   103   50   52 1    
   104   52   53 1    
   105   52   54 1    
   106   52  175 1    
   107   53  176 1    
   108   53  177 1    
   109   53  178 1    
   110   54   55 am   BACKBONE|DICT|INTERRES
   111   54  179 1    
   112   55   56 2    
   113   55   57 1    
   114   57   58 1    
   115   57   59 1    
   116   57  180 1    
   117   58  181 1    
   118   58  182 1    
   119   58  183 1    
   120   59   60 am   BACKBONE|DICT|INTERRES
   121   59  184 1    
   122   60   61 2    
   123   60   62 1    
   124   62   63 1    
   125   62   64 1    
   126   62  185 1    
   127   63  186 1    
   128   63  187 1    
   129   63  188 1    
   130   64   65 am   BACKBONE|DICT|INTERRES
   131   64  189 1    
   132   65   66 2    
   133   67   68 2    
   134   67   69 am   BACKBONE|DICT|INTERRES
   135   69   70 1    
   136   69  190 1    
   137   70   71 1    
   138   70   72 1    
   139   70  191 1    
   140   71  192 1    
   141   71  193 1    
   142   71  194 1    
   143   72   73 2    
   144   72   74 am   BACKBONE|DICT|INTERRES
   145   74   75 1    
   146   74  195 1    
   147   75   76 1    
   148   75   77 1    
   149   75  196 1    
   150   76  197 1    
   151   76  198 1    
   152   76  199 1    
   153   77   78 2    
   154   77   79 am   BACKBONE|DICT|INTERRES
   155   79   80 1    
   156   79  200 1    
   157   80   81 1    
   158   80   82 1    
   159   80  201 1    
   160   81  202 1    
   161   81  203 1    
   162   81  204 1    
   163   82   83 2    
   164   82   84 am   BACKBONE|DICT|INTERRES
   165   84   85 1    
   166   84  205 1    
   167   85   86 1    
   168   85   87 1    
   169   85  206 1    
   170   86  207 1    
   171   86  208 1    
   172   86  209 1    
   173   87   88 2    
   174   87   89 am   BACKBONE|DICT|INTERRES
   175   89   90 1    
   176   89  210 1    
   177   90   91 1    
   178   90   92 1    
   179   90  211 1    
   180   91  212 1    
   181   91  213 1    
   182   91  214 1    
   183   92   93 2    
   184   92   94 am   BACKBONE|DICT|INTERRES
   185   94   95 1    
   186   94  215 1    
   187   95   96 1    
   188   95   97 1    
   189   95  216 1    
   190   96  217 1    
   191   96  218 1    
   192   96  219 1    
   193   97   98 2    
   194   97   99 am   BACKBONE|DICT|INTERRES
   195   99  100 1    
   196   99  220 1    
   197  100  101 1    
   198  100  102 1    
   199  100  221 1    
   200  101  222 1    
   201  101  223 1    
   202  101  224 1    
   203  102  103 2    
   204  102  104 am   BACKBONE|DICT|INTERRES
   205  104  105 1    
   206  104  225 1    
   207  105  106 1    
   208  105  107 1    
   209  105  226 1    
   210  106  227 1    
   211  106  228 1    
   212  106  229 1    
   213  107  108 2    
   214  107  109 am   BACKBONE|DICT|INTERRES
   215  109  110 1    
   216  109  230 1    
   217  110  111 1    
   218  110  112 1    
   219  110  231 1    
   220  111  232 1    
   221  111  233 1    
   222  111  234 1    
   223  112  113 2    
   224  112  114 am   BACKBONE|DICT|INTERRES
   225  114  115 1    
   226  114  235 1    
   227  115  116 1    
   228  115  117 1    
   229  115  236 1    
   230  116  237 1    
   231  116  238 1    
   232  116  239 1    
   233  117  118 2    
   234  117  119 am   BACKBONE|DICT|INTERRES
   235  119  120 1    
   236  119  240 1    
   237  120  121 1    
   238  120  124 1    
   239  120  241 1    
   240  121  122 am   BACKBONE|DICT|INTERRES
   241  121  123 2    
   242  122  242 1    
   243  122  243 1    
   244  124  125 1    
   245  124  244 1    
   246  124  245 1    
   247  125  126 1    
   248  126  246 1    
   249  126  247 1    
@<TRIPOS>SUBSTRUCTURE
     1 UNK         1 GROUP             0       ****    0 ROOT    
