@<TRIPOS>MOLECULE
3R540
247   249    1
SMALL
USER_CHARGES


@<TRIPOS>ATOM
      1 CA          0.7208  -13.8586  -50.7318 C.3       0 UNK        -0.1800 
      2 C           2.1268  -13.6199  -50.2022 C.2       0 UNK         0.5000 
      3 O           2.8112  -12.7079  -50.6661 O.2       0 UNK        -0.5000 
      4 N           2.5556  -14.4337  -49.2286 N.am      1 UNK        -0.5000 
      5 CA          3.8823  -14.3631  -48.6001 C.3       1 UNK         0.1400 
      6 C6          4.2205  -15.6546  -47.8182 C.3       23 UNK        -0.0398 
      7 S7          4.4172  -17.1074  -48.9038 S.3       23 UNK        -0.2404 
      8 C8          3.0106  -18.1601  -48.4201 C.3       23 UNK        -0.0205 
      9 C9          1.7303  -17.7969  -49.1563 C.ar      23 UNK        -0.0193 
     10 C10         1.6345  -18.0148  -50.5340 C.ar      23 UNK        -0.1150 
     11 C11         0.4590  -17.7074  -51.2238 C.ar      23 UNK        -0.0193 
     12 C12        -0.6317  -17.1897  -50.5208 C.ar      23 UNK        -0.1150 
     13 C13        -0.5562  -16.9840  -49.1408 C.ar      23 UNK        -0.0193 
     14 C14         0.6317  -17.2789  -48.4638 C.ar      23 UNK        -0.1150 
     15 C15        -1.7635  -16.4409  -48.3929 C.3       23 UNK        -0.0205 
     16 S16        -2.9666  -17.7551  -48.0114 S.3       23 UNK        -0.2404 
     17 C17        -2.1140  -18.6585  -46.6783 C.3       23 UNK        -0.0398 
     18 CA         -1.5529  -20.0337  -47.1230 C.3       11 UNK         0.1400 
     19 N          -0.3560  -20.4024  -46.3532 N.am      11 UNK        -0.5000 
     20 C           0.3596  -21.5322  -46.4552 C.2       10 UNK         0.5000 
     21 O           0.0907  -22.4411  -47.2386 O.2       10 UNK        -0.5000 
     22 CA          1.5408  -21.7034  -45.4847 C.3       10 UNK         0.1400 
     23 CB          2.7953  -20.9855  -45.9991 C.3       10 UNK        -0.1800 
     24 N           1.2142  -21.2175  -44.1453 N.am      10 UNK        -0.5000 
     25 C           0.5128  -21.9148  -43.2414 C.2       9 UNK         0.5000 
     26 O           0.1342  -23.0732  -43.4159 O.2       9 UNK        -0.5000 
     27 CA          0.1522  -21.1907  -41.9290 C.3       9 UNK         0.1400 
     28 CB          1.2891  -21.3332  -40.9059 C.3       9 UNK        -0.1800 
     29 N          -0.1520  -19.7706  -42.1113 N.am      9 UNK        -0.5000 
     30 C          -1.1571  -19.2908  -42.8576 C.2       8 UNK         0.5000 
     31 O          -1.9716  -19.9979  -43.4531 O.2       8 UNK        -0.5000 
     32 CA         -1.2241  -17.7596  -43.0131 C.3       8 UNK         0.1400 
     33 CB         -1.9468  -17.1263  -41.8162 C.3       8 UNK        -0.1800 
     34 N           0.0885  -17.1284  -43.1859 N.am      8 UNK        -0.5000 
     35 C           0.9662  -17.4262  -44.1548 C.2       7 UNK         0.5000 
     36 O           0.7865  -18.2971  -45.0000 O.2       7 UNK        -0.5000 
     37 CA          2.2864  -16.6518  -44.1713 C.3       7 UNK         0.1400 
     38 CB          2.0878  -15.2475  -44.7545 C.3       7 UNK        -0.1800 
     39 N           2.8801  -16.5862  -42.8396 N.am      7 UNK        -0.5000 
     40 C           3.4732  -17.6303  -42.2420 C.2       6 UNK         0.5000 
     41 O           3.6770  -18.7114  -42.7949 O.2       6 UNK        -0.5000 
     42 CA          3.8661  -17.4505  -40.7653 C.3       6 UNK         0.1400 
     43 CB          5.2915  -16.8916  -40.6439 C.3       6 UNK        -0.1800 
     44 N           2.9317  -16.5856  -40.0422 N.am      6 UNK        -0.5000 
     45 C           1.6710  -16.9322  -39.7420 C.2       5 UNK         0.5000 
     46 O           1.1760  -18.0226  -40.0303 O.2       5 UNK        -0.5000 
     47 CA          0.8029  -15.8709  -39.0389 C.3       5 UNK         0.1400 
     48 CB          0.9668  -15.9670  -37.5150 C.3       5 UNK        -0.1800 
     49 N           1.0811  -14.4982  -39.4684 N.am      5 UNK        -0.5000 
     50 C           0.9477  -14.0382  -40.7200 C.2       4 UNK         0.5000 
     51 O           0.5867  -14.7428  -41.6639 O.2       4 UNK        -0.5000 
     52 CA          1.2929  -12.5561  -40.9826 C.3       4 UNK         0.1400 
     53 CB          1.6770  -11.7603  -39.7145 C.3       4 UNK        -0.1800 
     54 N           2.3319  -12.4067  -42.0084 N.am      4 UNK        -0.5000 
     55 C           3.5637  -12.9389  -41.9932 C.2       3 UNK         0.5000 
     56 O           3.9736  -13.6754  -41.0946 O.2       3 UNK        -0.5000 
     57 CA          4.4791  -12.6047  -43.1883 C.3       3 UNK         0.1400 
     58 CB          5.5121  -13.7153  -43.4593 C.3       3 UNK        -0.1800 
     59 N           3.7027  -12.3687  -44.4091 N.am      3 UNK        -0.5000 
     60 C           3.7246  -11.2571  -45.1529 C.2       2 UNK         0.5000 
     61 O           4.3744  -10.2516  -44.8604 O.2       2 UNK        -0.5000 
     62 CA          2.8657  -11.2900  -46.4389 C.3       2 UNK         0.1400 
     63 CB          3.1426  -10.0945  -47.3744 C.3       2 UNK        -0.1800 
     64 N           2.9562  -12.5520  -47.1913 N.am      2 UNK        -0.5000 
     65 C           4.0650  -13.1136  -47.7049 C.2       1 UNK         0.5000 
     66 O           5.2026  -12.6810  -47.5172 O.2       1 UNK        -0.5000 
     67 C          -2.6523  -21.1144  -47.0671 C.2       11 UNK         0.5000 
     68 O          -3.2825  -21.4021  -48.0850 O.2       11 UNK        -0.5000 
     69 N          -2.8088  -21.7418  -45.8934 N.am      12 UNK        -0.5000 
     70 CA         -3.7118  -22.8650  -45.6381 C.3       12 UNK         0.1400 
     71 CB         -3.6394  -23.2197  -44.1454 C.3       12 UNK        -0.1800 
     72 C          -3.4485  -24.1178  -46.5029 C.2       12 UNK         0.5000 
     73 O          -4.3662  -24.9201  -46.6747 O.2       12 UNK        -0.5000 
     74 N          -2.2270  -24.2626  -47.0338 N.am      13 UNK        -0.5000 
     75 CA         -1.8378  -25.3288  -47.9547 C.3       13 UNK         0.1400 
     76 CB         -0.5490  -25.9896  -47.4401 C.3       13 UNK        -0.1800 
     77 C          -1.6342  -24.7917  -49.3820 C.2       13 UNK         0.5000 
     78 O          -2.0480  -25.4503  -50.3358 O.2       13 UNK        -0.5000 
     79 N          -0.9870  -23.6241  -49.5080 N.am      14 UNK        -0.5000 
     80 CA         -0.6219  -23.0020  -50.7799 C.3       14 UNK         0.1400 
     81 CB          0.3965  -21.8766  -50.5295 C.3       14 UNK        -0.1800 
     82 C          -1.8388  -22.4799  -51.5586 C.2       14 UNK         0.5000 
     83 O          -1.9972  -22.8150  -52.7328 O.2       14 UNK        -0.5000 
     84 N          -2.6784  -21.6771  -50.8939 N.am      15 UNK        -0.5000 
     85 CA         -3.9119  -21.1450  -51.4634 C.3       15 UNK         0.1400 
     86 CB         -4.1950  -19.7430  -50.9062 C.3       15 UNK        -0.1800 
     87 C          -5.0784  -22.0979  -51.1791 C.2       15 UNK         0.5000 
     88 O          -5.8616  -22.3795  -52.0889 O.2       15 UNK        -0.5000 
     89 N          -5.1556  -22.5844  -49.9310 N.am      16 UNK        -0.5000 
     90 CA         -6.1275  -23.5546  -49.4165 C.3       16 UNK         0.1400 
     91 CB         -5.8467  -24.9510  -50.0090 C.3       16 UNK        -0.1800 
     92 C          -7.5846  -23.0960  -49.6222 C.2       16 UNK         0.5000 
     93 O          -8.3945  -23.8357  -50.1798 O.2       16 UNK        -0.5000 
     94 N          -7.8709  -21.8454  -49.2279 N.am      17 UNK        -0.5000 
     95 CA         -9.1499  -21.1427  -49.4178 C.3       17 UNK         0.1400 
     96 CB        -10.2611  -21.7829  -48.5593 C.3       17 UNK        -0.1800 
     97 C          -9.5412  -21.0042  -50.9078 C.2       17 UNK         0.5000 
     98 O         -10.7209  -21.0799  -51.2542 O.2       17 UNK        -0.5000 
     99 N          -8.5178  -20.8203  -51.7545 N.am      18 UNK        -0.5000 
    100 CA        -8.5493  -20.7286  -53.2168 C.3       18 UNK         0.1400 
    101 CB        -9.4339  -19.5587  -53.6956 C.3       18 UNK        -0.1800 
    102 C         -8.8722  -22.0586  -53.9318 C.2       18 UNK         0.5000 
    103 O         -9.1715  -22.0364  -55.1265 O.2       18 UNK        -0.5000 
    104 N         -8.7724  -23.1969  -53.2272 N.am      19 UNK        -0.5000 
    105 CA        -8.8845  -24.5298  -53.8258 C.3       19 UNK         0.1400 
    106 CB        -9.1793  -25.5731  -52.7382 C.3       19 UNK        -0.1800 
    107 C         -7.6166  -24.9137  -54.6108 C.2       19 UNK         0.5000 
    108 O         -7.7245  -25.5480  -55.6610 O.2       19 UNK        -0.5000 
    109 N         -6.4474  -24.5105  -54.0955 N.am      20 UNK        -0.5000 
    110 CA        -5.1467  -24.6798  -54.7451 C.3       20 UNK         0.1400 
    111 CB        -4.1199  -25.1370  -53.6988 C.3       20 UNK        -0.1800 
    112 C         -4.7005  -23.3767  -55.4321 C.2       20 UNK         0.5000 
    113 O         -4.0769  -23.4308  -56.4939 O.2       20 UNK        -0.5000 
    114 N         -5.0491  -22.2320  -54.8225 N.am      21 UNK        -0.5000 
    115 CA        -4.8909  -20.8585  -55.3182 C.3       21 UNK         0.1400 
    116 CB        -5.8741  -20.6073  -56.4795 C.3       21 UNK        -0.1800 
    117 C         -3.4433  -20.4542  -55.6789 C.2       21 UNK         0.5000 
    118 O         -3.2523  -19.5449  -56.4883 O.2       21 UNK        -0.5000 
    119 N         -2.4530  -21.1297  -55.0799 N.am      22 UNK        -0.5000 
    120 CA        -1.0109  -20.9632  -55.3296 C.3       22 UNK         0.1400 
    121 C         -0.5616  -21.3679  -56.7678 C.2       22 UNK         0.5000 
    122 N         -1.3279  -22.1775  -57.4919 N.am      22 UNK        -0.7600 
    123 O          0.5074  -20.9742  -57.2269 O.2       22 UNK        -0.5000 
    124 C124       -0.4703  -19.5780  -54.8723 C.3       23 UNK        -0.0398 
    125 S125       -0.7927  -19.2883  -53.0995 S.3       23 UNK        -0.2404 
    126 C126        0.3636  -17.9388  -52.7243 C.3       23 UNK        -0.0205 
    127 H127        0.2703  -12.9203  -51.0554 H         1 UNK         0.0600 
    128 H128        0.0778  -14.2908  -49.9658 H         1 UNK         0.0600 
    129 H129        0.7498  -14.5375  -51.5840 H         1 UNK         0.0600 
    130 H130        1.9678  -15.2016  -48.9367 H         1 UNK         0.3000 
    131 H131        4.6161  -14.2658  -49.4035 H         1 UNK         0.0600 
    132 H132        5.1591  -15.5396  -47.2722 H         1 UNK         0.0800 
    133 H133        3.4586  -15.8603  -47.0697 H         1 UNK         0.0800 
    134 H134        2.8678  -18.1087  -47.3410 H         1 UNK         0.0800 
    135 H135        3.2584  -19.1981  -48.6458 H         1 UNK         0.0800 
    136 H136        2.4809  -18.4239  -51.0677 H         1 UNK         0.1150 
    137 H137       -1.5476  -16.9623  -51.0482 H         1 UNK         0.1150 
    138 H138        0.6940  -17.1235  -47.3966 H         1 UNK         0.1150 
    139 H139       -1.4581  -15.9352  -47.4756 H         1 UNK         0.0800 
    140 H140       -2.2562  -15.6834  -49.0043 H         1 UNK         0.0800 
    141 H141       -2.7952  -18.7583  -45.8314 H         1 UNK         0.0800 
    142 H142       -1.3115  -18.0186  -46.3203 H         1 UNK         0.0800 
    143 H143       -1.2244  -19.9545  -48.1608 H         1 UNK         0.0600 
    144 H144       -0.0095  -19.6891  -45.7140 H         1 UNK         0.3000 
    145 H145        1.7690  -22.7702  -45.4317 H         1 UNK         0.0600 
    146 H146        3.6654  -21.2378  -45.3929 H         1 UNK         0.0600 
    147 H147        3.0198  -21.2705  -47.0278 H         1 UNK         0.0600 
    148 H148        2.6776  -19.9041  -45.9695 H         1 UNK         0.0600 
    149 H149        1.4563  -20.2575  -43.9392 H         1 UNK         0.3000 
    150 H150       -0.7393  -21.6715  -41.5212 H         1 UNK         0.0600 
    151 H151        1.5378  -22.3820  -40.7389 H         1 UNK         0.0600 
    152 H152        1.0070  -20.9086  -39.9422 H         1 UNK         0.0600 
    153 H153        2.1959  -20.8275  -41.2407 H         1 UNK         0.0600 
    154 H154        0.4406  -19.1120  -41.6159 H         1 UNK         0.3000 
    155 H155       -1.8070  -17.5415  -43.9088 H         1 UNK         0.0600 
    156 H156       -1.4295  -17.3348  -40.8803 H         1 UNK         0.0600 
    157 H157       -2.9608  -17.5171  -41.7229 H         1 UNK         0.0600 
    158 H158       -2.0230  -16.0442  -41.9254 H         1 UNK         0.0600 
    159 H159        0.3094  -16.3635  -42.5528 H         1 UNK         0.3000 
    160 H160        2.9708  -17.1893  -44.8319 H         1 UNK         0.0600 
    161 H161        3.0519  -14.8102  -44.9978 H         1 UNK         0.0600 
    162 H162        1.5636  -14.5837  -44.0682 H         1 UNK         0.0600 
    163 H163        1.5088  -15.2822  -45.6786 H         1 UNK         0.0600 
    164 H164        2.6988  -15.7577  -42.2904 H         1 UNK         0.3000 
    165 H165        3.8485  -18.4364  -40.2956 H         1 UNK         0.0600 
    166 H166        5.5889  -16.7905  -39.6001 H         1 UNK         0.0600 
    167 H167        6.0109  -17.5560  -41.1241 H         1 UNK         0.0600 
    168 H168        5.3857  -15.9141  -41.1165 H         1 UNK         0.0600 
    169 H169        3.2507  -15.6511  -39.8217 H         1 UNK         0.3000 
    170 H170       -0.2395  -16.0847  -39.2800 H         1 UNK         0.0600 
    171 H171        0.7433  -16.9744  -37.1611 H         1 UNK         0.0600 
    172 H172        1.9843  -15.7276  -37.2034 H         1 UNK         0.0600 
    173 H173        0.2884  -15.2859  -37.0010 H         1 UNK         0.0600 
    174 H174        1.4042  -13.8598  -38.7562 H         1 UNK         0.3000 
    175 H175        0.3872  -12.1066  -41.3918 H         1 UNK         0.0600 
    176 H176        2.5808  -12.1467  -39.2419 H         1 UNK         0.0600 
    177 H177        1.8573  -10.7126  -39.9557 H         1 UNK         0.0600 
    178 H178        0.8752  -11.7808  -38.9752 H         1 UNK         0.0600 
    179 H179        2.0798  -11.8384  -42.8039 H         1 UNK         0.3000 
    180 H180        5.0251  -11.7024  -42.9071 H         1 UNK         0.0600 
    181 H181        5.0359  -14.6772  -43.6492 H         1 UNK         0.0600 
    182 H182        6.1815  -13.8444  -42.6080 H         1 UNK         0.0600 
    183 H183        6.1322  -13.4728  -44.3226 H         1 UNK         0.0600 
    184 H184        3.1257  -13.1350  -44.7226 H         1 UNK         0.3000 
    185 H185        1.8297  -11.2077  -46.1070 H         1 UNK         0.0600 
    186 H186        2.9526   -9.1470  -46.8689 H         1 UNK         0.0600 
    187 H187        4.1776  -10.0815  -47.7178 H         1 UNK         0.0600 
    188 H188        2.4996  -10.1260  -48.2542 H         1 UNK         0.0600 
    189 H189        2.0731  -12.9867  -47.4178 H         1 UNK         0.3000 
    190 H190       -2.2691  -21.4098  -45.1020 H         1 UNK         0.3000 
    191 H191       -4.7251  -22.5260  -45.8618 H         1 UNK         0.0600 
    192 H192       -2.6381  -23.5447  -43.8599 H         1 UNK         0.0600 
    193 H193       -4.3305  -24.0270  -43.8992 H         1 UNK         0.0600 
    194 H194       -3.9034  -22.3645  -43.5227 H         1 UNK         0.0600 
    195 H195       -1.5311  -23.5459  -46.8608 H         1 UNK         0.3000 
    196 H196       -2.6113  -26.0983  -48.0016 H         1 UNK         0.0600 
    197 H197       -0.2272  -26.7905  -48.1070 H         1 UNK         0.0600 
    198 H198       -0.7006  -26.4284  -46.4538 H         1 UNK         0.0600 
    199 H199        0.2711  -25.2743  -47.3644 H         1 UNK         0.0600 
    200 H200       -0.6368  -23.1653  -48.6693 H         1 UNK         0.3000 
    201 H201       -0.1355  -23.7613  -51.3959 H         1 UNK         0.0600 
    202 H202        1.2823  -22.2520  -50.0170 H         1 UNK         0.0600 
    203 H203       -0.0229  -21.0733  -49.9234 H         1 UNK         0.0600 
    204 H204        0.7284  -21.4353  -51.4699 H         1 UNK         0.0600 
    205 H205       -2.5279  -21.5061  -49.9065 H         1 UNK         0.3000 
    206 H206       -3.8026  -21.0473  -52.5432 H         1 UNK         0.0600 
    207 H207       -3.3514  -19.0742  -51.0792 H         1 UNK         0.0600 
    208 H208       -5.0655  -19.3006  -51.3917 H         1 UNK         0.0600 
    209 H209       -4.3923  -19.7589  -49.8346 H         1 UNK         0.0600 
    210 H210       -4.4717  -22.2484  -49.2567 H         1 UNK         0.3000 
    211 H211       -5.9766  -23.6106  -48.3387 H         1 UNK         0.0600 
    212 H212       -5.9944  -24.9734  -51.0887 H         1 UNK         0.0600 
    213 H213       -6.5063  -25.7012  -49.5716 H         1 UNK         0.0600 
    214 H214       -4.8229  -25.2635  -49.8051 H         1 UNK         0.0600 
    215 H215       -7.1333  -21.3053  -48.7972 H         1 UNK         0.3000 
    216 H216       -8.9985  -20.1263  -49.0516 H         1 UNK         0.0600 
    217 H217      -11.1711  -21.1825  -48.5871 H         1 UNK         0.0600 
    218 H218       -9.9573  -21.8605  -47.5155 H         1 UNK         0.0600 
    219 H219      -10.5199  -22.7828  -48.9087 H         1 UNK         0.0600 
    220 H220       -7.5903  -20.8337  -51.3555 H         1 UNK         0.3000 
    221 H221       -7.5261  -20.4900  -53.5087 H         1 UNK         0.0600 
    222 H222      -10.4936  -19.7570  -53.5342 H         1 UNK         0.0600 
    223 H223       -9.1809  -18.6338  -53.1774 H         1 UNK         0.0600 
    224 H224       -9.2976  -19.3776  -54.7624 H         1 UNK         0.0600 
    225 H225       -8.5413  -23.1562  -52.2413 H         1 UNK         0.3000 
    226 H226       -9.7260  -24.5281  -54.5219 H         1 UNK         0.0600 
    227 H227      -10.0550  -25.2969  -52.1506 H         1 UNK         0.0600 
    228 H228       -9.3781  -26.5493  -53.1819 H         1 UNK         0.0600 
    229 H229       -8.3388  -25.6931  -52.0541 H         1 UNK         0.0600 
    230 H230       -6.4573  -23.9642  -53.2417 H         1 UNK         0.3000 
    231 H231       -5.2028  -25.4521  -55.5150 H         1 UNK         0.0600 
    232 H232       -4.3682  -26.1256  -53.3128 H         1 UNK         0.0600 
    233 H233       -4.0747  -24.4556  -52.8498 H         1 UNK         0.0600 
    234 H234       -3.1185  -25.1959  -54.1273 H         1 UNK         0.0600 
    235 H235       -5.4978  -22.3130  -53.9152 H         1 UNK         0.3000 
    236 H236       -5.1827  -20.2050  -54.4953 H         1 UNK         0.0600 
    237 H237       -5.6094  -21.1902  -57.3623 H         1 UNK         0.0600 
    238 H238       -6.8934  -20.8706  -56.1993 H         1 UNK         0.0600 
    239 H239       -5.8834  -19.5563  -56.7703 H         1 UNK         0.0600 
    240 H240       -2.6791  -21.8540  -54.4074 H         1 UNK         0.3000 
    241 H241       -0.5270  -21.7070  -54.6962 H         1 UNK         0.0600 
    242 H242       -2.2085  -22.5207  -57.1263 H         1 UNK         0.3800 
    243 H243       -1.0316  -22.4466  -58.4167 H         1 UNK         0.3800 
    244 H244       -0.9131  -18.7698  -55.4553 H         1 UNK         0.0800 
    245 H245        0.6071  -19.5209  -55.0338 H         1 UNK         0.0800 
    246 H246        0.0281  -17.0247  -53.2159 H         1 UNK         0.0800 
    247 H247        1.3458  -18.1748  -53.1362 H         1 UNK         0.0800 
@<TRIPOS>BOND
     1    1    2 1    
     2    1  127 1    
     3    1  128 1    
     4    1  129 1    
     5    2    3 2    
     6    2    4 am   BACKBONE|DICT|INTERRES
     7    4    5 1    
     8    4  130 1    
     9    5    6 1    
    10    5   65 1    
    11    5  131 1    
    12    6    7 1    
    13    6  132 1    
    14    6  133 1    
    15    7    8 1    
    16    8    9 1    
    17    8  134 1    
    18    8  135 1    
    19    9   10 ar   
    20    9   14 ar   
    21   10   11 ar   
    22   10  136 1    
    23   11   12 ar   
    24   11  126 1    
    25   12   13 ar   
    26   12  137 1    
    27   13   14 ar   
    28   13   15 1    
    29   14  138 1    
    30   15   16 1    
    31   15  139 1    
    32   15  140 1    
    33   16   17 1    
    34   17   18 1    
    35   17  141 1    
    36   17  142 1    
    37   18   19 1    
    38   18   67 1    
    39   18  143 1    
    40   19   20 am   BACKBONE|DICT|INTERRES
    41   19  144 1    
    42   20   21 2    
    43   20   22 1    
    44   22   23 1    
    45   22   24 1    
    46   22  145 1    
    47   23  146 1    
    48   23  147 1    
    49   23  148 1    
    50   24   25 am   BACKBONE|DICT|INTERRES
    51   24  149 1    
    52   25   26 2    
    53   25   27 1    
    54   27   28 1    
    55   27   29 1    
    56   27  150 1    
    57   28  151 1    
    58   28  152 1    
    59   28  153 1    
    60   29   30 am   BACKBONE|DICT|INTERRES
    61   29  154 1    
    62   30   31 2    
    63   30   32 1    
    64   32   33 1    
    65   32   34 1    
    66   32  155 1    
    67   33  156 1    
    68   33  157 1    
    69   33  158 1    
    70   34   35 am   BACKBONE|DICT|INTERRES
    71   34  159 1    
    72   35   36 2    
    73   35   37 1    
    74   37   38 1    
    75   37   39 1    
    76   37  160 1    
    77   38  161 1    
    78   38  162 1    
    79   38  163 1    
    80   39   40 am   BACKBONE|DICT|INTERRES
    81   39  164 1    
    82   40   41 2    
    83   40   42 1    
    84   42   43 1    
    85   42   44 1    
    86   42  165 1    
    87   43  166 1    
    88   43  167 1    
    89   43  168 1    
    90   44   45 am   BACKBONE|DICT|INTERRES
    91   44  169 1    
    92   45   46 2    
    93   45   47 1    
    94   47   48 1    
    95   47   49 1    
    96   47  170 1    
    97   48  171 1    
    98   48  172 1    
    99   48  173 1    
   100   49   50 am   BACKBONE|DICT|INTERRES
   101   49  174 1    
   102   50   51 2    
   103   50   52 1    
   104   52   53 1    
   105   52   54 1    
   106   52  175 1    
   107   53  176 1    
   108   53  177 1    
   109   53  178 1    
   110   54   55 am   BACKBONE|DICT|INTERRES
   111   54  179 1    
   112   55   56 2    
   113   55   57 1    
   114   57   58 1    
   115   57   59 1    
   116   57  180 1    
   117   58  181 1    
   118   58  182 1    
   119   58  183 1    
   120   59   60 am   BACKBONE|DICT|INTERRES
   121   59  184 1    
   122   60   61 2    
   123   60   62 1    
   124   62   63 1    
   125   62   64 1    
   126   62  185 1    
   127   63  186 1    
   128   63  187 1    
   129   63  188 1    
   130   64   65 am   BACKBONE|DICT|INTERRES
   131   64  189 1    
   132   65   66 2    
   133   67   68 2    
   134   67   69 am   BACKBONE|DICT|INTERRES
   135   69   70 1    
   136   69  190 1    
   137   70   71 1    
   138   70   72 1    
   139   70  191 1    
   140   71  192 1    
   141   71  193 1    
   142   71  194 1    
   143   72   73 2    
   144   72   74 am   BACKBONE|DICT|INTERRES
   145   74   75 1    
   146   74  195 1    
   147   75   76 1    
   148   75   77 1    
   149   75  196 1    
   150   76  197 1    
   151   76  198 1    
   152   76  199 1    
   153   77   78 2    
   154   77   79 am   BACKBONE|DICT|INTERRES
   155   79   80 1    
   156   79  200 1    
   157   80   81 1    
   158   80   82 1    
   159   80  201 1    
   160   81  202 1    
   161   81  203 1    
   162   81  204 1    
   163   82   83 2    
   164   82   84 am   BACKBONE|DICT|INTERRES
   165   84   85 1    
   166   84  205 1    
   167   85   86 1    
   168   85   87 1    
   169   85  206 1    
   170   86  207 1    
   171   86  208 1    
   172   86  209 1    
   173   87   88 2    
   174   87   89 am   BACKBONE|DICT|INTERRES
   175   89   90 1    
   176   89  210 1    
   177   90   91 1    
   178   90   92 1    
   179   90  211 1    
   180   91  212 1    
   181   91  213 1    
   182   91  214 1    
   183   92   93 2    
   184   92   94 am   BACKBONE|DICT|INTERRES
   185   94   95 1    
   186   94  215 1    
   187   95   96 1    
   188   95   97 1    
   189   95  216 1    
   190   96  217 1    
   191   96  218 1    
   192   96  219 1    
   193   97   98 2    
   194   97   99 am   BACKBONE|DICT|INTERRES
   195   99  100 1    
   196   99  220 1    
   197  100  101 1    
   198  100  102 1    
   199  100  221 1    
   200  101  222 1    
   201  101  223 1    
   202  101  224 1    
   203  102  103 2    
   204  102  104 am   BACKBONE|DICT|INTERRES
   205  104  105 1    
   206  104  225 1    
   207  105  106 1    
   208  105  107 1    
   209  105  226 1    
   210  106  227 1    
   211  106  228 1    
   212  106  229 1    
   213  107  108 2    
   214  107  109 am   BACKBONE|DICT|INTERRES
   215  109  110 1    
   216  109  230 1    
   217  110  111 1    
   218  110  112 1    
   219  110  231 1    
   220  111  232 1    
   221  111  233 1    
   222  111  234 1    
   223  112  113 2    
   224  112  114 am   BACKBONE|DICT|INTERRES
   225  114  115 1    
   226  114  235 1    
   227  115  116 1    
   228  115  117 1    
   229  115  236 1    
   230  116  237 1    
   231  116  238 1    
   232  116  239 1    
   233  117  118 2    
   234  117  119 am   BACKBONE|DICT|INTERRES
   235  119  120 1    
   236  119  240 1    
   237  120  121 1    
   238  120  124 1    
   239  120  241 1    
   240  121  122 am   BACKBONE|DICT|INTERRES
   241  121  123 2    
   242  122  242 1    
   243  122  243 1    
   244  124  125 1    
   245  124  244 1    
   246  124  245 1    
   247  125  126 1    
   248  126  246 1    
   249  126  247 1    
@<TRIPOS>SUBSTRUCTURE
     1 UNK         1 GROUP             0       ****    0 ROOT    
