@<TRIPOS>MOLECULE
3R540
247   249    1
SMALL
USER_CHARGES


@<TRIPOS>ATOM
      1 CA         -1.0412  -12.9811  -52.8222 C.3       0 UNK        -0.1800 
      2 C          -0.4153  -12.4952  -51.5236 C.2       0 UNK         0.5000 
      3 O          -0.5605  -11.3252  -51.1718 O.2       0 UNK        -0.5000 
      4 N           0.2682  -13.3911  -50.8022 N.am      1 UNK        -0.5000 
      5 CA          0.9686  -13.1118  -49.5406 C.3       1 UNK         0.1400 
      6 C6          2.2702  -13.9446  -49.4173 C.3       23 UNK        -0.0398 
      7 S7          1.9893  -15.7478  -49.3679 S.3       23 UNK        -0.2404 
      8 C8          2.7409  -16.2931  -50.9330 C.3       23 UNK        -0.0205 
      9 C9          2.6363  -17.8028  -51.0806 C.ar      23 UNK        -0.0193 
     10 C10         1.8768  -18.3736  -52.1068 C.ar      23 UNK        -0.1150 
     11 C11         1.7602  -19.7638  -52.2114 C.ar      23 UNK        -0.0193 
     12 C12         2.3929  -20.5820  -51.2719 C.ar      23 UNK        -0.1150 
     13 C13         3.1415  -20.0205  -50.2339 C.ar      23 UNK        -0.0193 
     14 C14         3.2842  -18.6336  -50.1629 C.ar      23 UNK        -0.1150 
     15 C15         3.7447  -20.9045  -49.1523 C.3       23 UNK        -0.0205 
     16 S16         3.0067  -20.5712  -47.5165 S.3       23 UNK        -0.2404 
     17 C17         1.2364  -20.9020  -47.8218 C.3       23 UNK        -0.0398 
     18 CA          0.7793  -22.2296  -47.1848 C.3       11 UNK         0.1400 
     19 N           0.7708  -22.1709  -45.7209 N.am      11 UNK        -0.5000 
     20 C           0.5565  -23.2197  -44.9154 C.2       10 UNK         0.5000 
     21 O           0.3770  -24.3686  -45.3189 O.2       10 UNK        -0.5000 
     22 CA          0.4722  -22.9230  -43.4093 C.3       10 UNK         0.1400 
     23 CB          1.8704  -22.7728  -42.7910 C.3       10 UNK        -0.1800 
     24 N          -0.3224  -21.7242  -43.1429 N.am      10 UNK        -0.5000 
     25 C          -1.6511  -21.6566  -43.3064 C.2       9 UNK         0.5000 
     26 O          -2.3457  -22.6139  -43.6512 O.2       9 UNK        -0.5000 
     27 CA         -2.3087  -20.2815  -43.0811 C.3       9 UNK         0.1400 
     28 CB         -2.5851  -20.0553  -41.5875 C.3       9 UNK        -0.1800 
     29 N          -1.5126  -19.1685  -43.6037 N.am      9 UNK        -0.5000 
     30 C          -1.2168  -18.9947  -44.8997 C.2       8 UNK         0.5000 
     31 O          -1.6124  -19.7367  -45.7948 O.2       8 UNK        -0.5000 
     32 CA         -0.2882  -17.8277  -45.2674 C.3       8 UNK         0.1400 
     33 CB         -1.0900  -16.5322  -45.4271 C.3       8 UNK        -0.1800 
     34 N           0.7962  -17.6177  -44.3141 N.am      8 UNK        -0.5000 
     35 C           1.7274  -18.5226  -43.9848 C.2       7 UNK         0.5000 
     36 O           1.7450  -19.6777  -44.4102 O.2       7 UNK        -0.5000 
     37 CA          2.7942  -18.0600  -42.9822 C.3       7 UNK         0.1400 
     38 CB          3.8526  -17.1883  -43.6762 C.3       7 UNK        -0.1800 
     39 N           2.1821  -17.3077  -41.8884 N.am      7 UNK        -0.5000 
     40 C           1.6242  -17.8718  -40.8095 C.2       6 UNK         0.5000 
     41 O           1.6360  -19.0830  -40.5866 O.2       6 UNK        -0.5000 
     42 CA          0.9182  -16.9265  -39.8182 C.3       6 UNK         0.1400 
     43 CB          1.9175  -16.3839  -38.7853 C.3       6 UNK        -0.1800 
     44 N           0.2354  -15.8024  -40.4635 N.am      6 UNK        -0.5000 
     45 C          -0.8195  -15.9239  -41.2807 C.2       5 UNK         0.5000 
     46 O          -1.3154  -17.0034  -41.6037 O.2       5 UNK        -0.5000 
     47 CA         -1.4028  -14.6212  -41.8603 C.3       5 UNK         0.1400 
     48 CB         -2.3397  -13.9551  -40.8417 C.3       5 UNK        -0.1800 
     49 N          -0.4241  -13.6323  -42.3262 N.am      5 UNK        -0.5000 
     50 C           0.6430  -13.8489  -43.1082 C.2       4 UNK         0.5000 
     51 O           1.0631  -14.9668  -43.4088 O.2       4 UNK        -0.5000 
     52 CA          1.3177  -12.5902  -43.6839 C.3       4 UNK         0.1400 
     53 CB          2.6209  -12.9109  -44.4388 C.3       4 UNK        -0.1800 
     54 N           0.3944  -11.9105  -44.5933 N.am      4 UNK        -0.5000 
     55 C          -0.5488  -11.0331  -44.2196 C.2       3 UNK         0.5000 
     56 O          -0.6949  -10.6568  -43.0555 O.2       3 UNK        -0.5000 
     57 CA         -1.5109  -10.5098  -45.3072 C.3       3 UNK         0.1400 
     58 CB         -0.9934   -9.1857  -45.8888 C.3       3 UNK        -0.1800 
     59 N          -1.7277  -11.4575  -46.4016 N.am      3 UNK        -0.5000 
     60 C          -2.3311  -12.6482  -46.2811 C.2       2 UNK         0.5000 
     61 O          -2.8687  -13.0361  -45.2435 O.2       2 UNK        -0.5000 
     62 CA         -2.3146  -13.5791  -47.5127 C.3       2 UNK         0.1400 
     63 CB         -3.6794  -13.5789  -48.2171 C.3       2 UNK        -0.1800 
     64 N          -1.2708  -13.3149  -48.5103 N.am      2 UNK        -0.5000 
     65 C           0.0532  -13.2526  -48.2994 C.2       1 UNK         0.5000 
     66 O           0.5581  -13.2965  -47.1774 O.2       1 UNK        -0.5000 
     67 C          -0.5831  -22.6671  -47.7580 C.2       11 UNK         0.5000 
     68 O          -0.6109  -23.5109  -48.6517 O.2       11 UNK        -0.5000 
     69 N          -1.6822  -22.1272  -47.2128 N.am      12 UNK        -0.5000 
     70 CA         -3.0589  -22.4855  -47.5542 C.3       12 UNK         0.1400 
     71 CB         -4.0308  -21.6125  -46.7456 C.3       12 UNK        -0.1800 
     72 C          -3.3583  -23.9737  -47.3172 C.2       12 UNK         0.5000 
     73 O          -3.9352  -24.6213  -48.1912 O.2       12 UNK        -0.5000 
     74 N          -2.9224  -24.4899  -46.1594 N.am      13 UNK        -0.5000 
     75 CA         -3.0308  -25.8990  -45.7877 C.3       13 UNK         0.1400 
     76 CB         -2.6597  -26.0687  -44.3068 C.3       13 UNK        -0.1800 
     77 C          -2.1740  -26.8152  -46.6806 C.2       13 UNK         0.5000 
     78 O          -2.6566  -27.8664  -47.1018 O.2       13 UNK        -0.5000 
     79 N          -0.9360  -26.3918  -46.9742 N.am      14 UNK        -0.5000 
     80 CA          0.0069  -27.1059  -47.8379 C.3       14 UNK         0.1400 
     81 CB          1.3940  -26.4533  -47.7359 C.3       14 UNK        -0.1800 
     82 C          -0.4554  -27.1779  -49.3051 C.2       14 UNK         0.5000 
     83 O          -0.3514  -28.2380  -49.9235 O.2       14 UNK        -0.5000 
     84 N          -0.9739  -26.0589  -49.8286 N.am      15 UNK        -0.5000 
     85 CA         -1.5315  -25.9513  -51.1781 C.3       15 UNK         0.1400 
     86 CB         -1.6297  -24.4646  -51.5616 C.3       15 UNK        -0.1800 
     87 C          -2.9115  -26.6214  -51.3208 C.2       15 UNK         0.5000 
     88 O          -3.3116  -26.9302  -52.4438 O.2       15 UNK        -0.5000 
     89 N          -3.6162  -26.7996  -50.1922 N.am      16 UNK        -0.5000 
     90 CA         -5.0184  -27.2123  -50.0683 C.3       16 UNK         0.1400 
     91 CB         -5.2154  -28.6687  -50.5372 C.3       16 UNK        -0.1800 
     92 C          -5.9579  -26.2047  -50.7648 C.2       16 UNK         0.5000 
     93 O          -6.8538  -26.5943  -51.5167 O.2       16 UNK        -0.5000 
     94 N          -5.6952  -24.9158  -50.5233 N.am      17 UNK        -0.5000 
     95 CA         -6.3347  -23.7777  -51.1713 C.3       17 UNK         0.1400 
     96 CB         -5.7214  -23.5620  -52.5749 C.3       17 UNK        -0.1800 
     97 C          -6.2253  -22.5625  -50.2348 C.2       17 UNK         0.5000 
     98 O          -6.6570  -22.6480  -49.0843 O.2       17 UNK        -0.5000 
     99 N          -5.6485  -21.4628  -50.7268 N.am      18 UNK        -0.5000 
    100 CA        -5.3801  -20.2310  -49.9981 C.3       18 UNK         0.1400 
    101 CB        -6.5935  -19.2909  -50.0872 C.3       18 UNK        -0.1800 
    102 C         -4.1370  -19.5842  -50.6166 C.2       18 UNK         0.5000 
    103 O         -3.8985  -19.7643  -51.8132 O.2       18 UNK        -0.5000 
    104 N         -3.3990  -18.8058  -49.8154 N.am      19 UNK        -0.5000 
    105 CA        -2.1593  -18.1237  -50.2098 C.3       19 UNK         0.1400 
    106 CB        -1.5597  -17.4455  -48.9717 C.3       19 UNK        -0.1800 
    107 C         -2.3286  -17.1012  -51.3532 C.2       19 UNK         0.5000 
    108 O         -1.3775  -16.8477  -52.0919 O.2       19 UNK        -0.5000 
    109 N         -3.5381  -16.5396  -51.4819 N.am      20 UNK        -0.5000 
    110 CA        -3.9245  -15.6514  -52.5777 C.3       20 UNK         0.1400 
    111 CB        -4.9831  -14.6627  -52.0650 C.3       20 UNK        -0.1800 
    112 C         -4.4497  -16.4123  -53.8111 C.2       20 UNK         0.5000 
    113 O         -4.4686  -15.8384  -54.9003 O.2       20 UNK        -0.5000 
    114 N         -4.8787  -17.6698  -53.6324 N.am      21 UNK        -0.5000 
    115 CA        -5.4478  -18.5048  -54.6907 C.3       21 UNK         0.1400 
    116 CB        -6.4817  -19.4704  -54.0897 C.3       21 UNK        -0.1800 
    117 C         -4.3641  -19.2780  -55.4578 C.2       21 UNK         0.5000 
    118 O         -4.4786  -19.4202  -56.6759 O.2       21 UNK        -0.5000 
    119 N         -3.3333  -19.7554  -54.7461 N.am      22 UNK        -0.5000 
    120 CA        -2.1892  -20.4733  -55.3343 C.3       22 UNK         0.1400 
    121 C         -1.1749  -19.5811  -56.1111 C.2       22 UNK         0.5000 
    122 N         -1.2483  -18.2582  -56.0280 N.am      22 UNK        -0.7600 
    123 O         -0.3121  -20.1013  -56.8131 O.2       22 UNK        -0.5000 
    124 C124       -1.4913  -21.4083  -54.3119 C.3       23 UNK        -0.0398 
    125 S125       -0.8012  -20.5638  -52.8479 S.3       23 UNK        -0.2404 
    126 C126        0.9426  -20.3859  -53.3300 C.3       23 UNK        -0.0205 
    127 H127       -2.1194  -12.8239  -52.8004 H         1 UNK         0.0600 
    128 H128       -0.8501  -14.0413  -52.9910 H         1 UNK         0.0600 
    129 H129       -0.6325  -12.4247  -53.6656 H         1 UNK         0.0600 
    130 H130        0.3246  -14.3488  -51.1212 H         1 UNK         0.3000 
    131 H131        1.2786  -12.0648  -49.5484 H         1 UNK         0.0600 
    132 H132        2.8205  -13.6621  -48.5181 H         1 UNK         0.0800 
    133 H133        2.9353  -13.7036  -50.2475 H         1 UNK         0.0800 
    134 H134        2.2523  -15.7866  -51.7667 H         1 UNK         0.0800 
    135 H135        3.7920  -16.0018  -50.9561 H         1 UNK         0.0800 
    136 H136        1.3635  -17.7397  -52.8167 H         1 UNK         0.1150 
    137 H137        2.2773  -21.6551  -51.3343 H         1 UNK         0.1150 
    138 H138        3.8557  -18.1963  -49.3559 H         1 UNK         0.1150 
    139 H139        3.6152  -21.9608  -49.3930 H         1 UNK         0.0800 
    140 H140        4.8197  -20.7272  -49.1016 H         1 UNK         0.0800 
    141 H141        1.0424  -20.9078  -48.8941 H         1 UNK         0.0800 
    142 H142        0.6572  -20.0678  -47.4256 H         1 UNK         0.0800 
    143 H143        1.4969  -23.0016  -47.4705 H         1 UNK         0.0600 
    144 H144        0.9593  -21.2649  -45.3016 H         1 UNK         0.3000 
    145 H145       -0.0184  -23.7722  -42.9285 H         1 UNK         0.0600 
    146 H146        1.8094  -22.5956  -41.7171 H         1 UNK         0.0600 
    147 H147        2.4587  -23.6792  -42.9389 H         1 UNK         0.0600 
    148 H148        2.4269  -21.9471  -43.2346 H         1 UNK         0.0600 
    149 H149        0.1849  -20.8812  -42.9127 H         1 UNK         0.3000 
    150 H150       -3.2651  -20.2835  -43.6078 H         1 UNK         0.0600 
    151 H151       -3.1687  -20.8755  -41.1674 H         1 UNK         0.0600 
    152 H152       -3.1525  -19.1383  -41.4276 H         1 UNK         0.0600 
    153 H153       -1.6599  -19.9796  -41.0144 H         1 UNK         0.0600 
    154 H154       -1.1940  -18.4790  -42.9290 H         1 UNK         0.3000 
    155 H155        0.1713  -18.0598  -46.2295 H         1 UNK         0.0600 
    156 H156       -0.4621  -15.7245  -45.8048 H         1 UNK         0.0600 
    157 H157       -1.9150  -16.6701  -46.1254 H         1 UNK         0.0600 
    158 H158       -1.5197  -16.2111  -44.4807 H         1 UNK         0.0600 
    159 H159        0.8733  -16.6807  -43.9229 H         1 UNK         0.3000 
    160 H160        3.2936  -18.9459  -42.5837 H         1 UNK         0.0600 
    161 H161        3.4200  -16.2786  -44.0948 H         1 UNK         0.0600 
    162 H162        4.3277  -17.7316  -44.4941 H         1 UNK         0.0600 
    163 H163        4.6383  -16.8951  -42.9799 H         1 UNK         0.0600 
    164 H164        2.0528  -16.3151  -42.0398 H         1 UNK         0.3000 
    165 H165        0.1652  -17.5128  -39.2871 H         1 UNK         0.0600 
    166 H166        1.4142  -15.7859  -38.0253 H         1 UNK         0.0600 
    167 H167        2.4278  -17.1990  -38.2703 H         1 UNK         0.0600 
    168 H168        2.6814  -15.7612  -39.2525 H         1 UNK         0.0600 
    169 H169        0.5893  -14.8774  -40.2688 H         1 UNK         0.3000 
    170 H170       -2.0074  -14.8931  -42.7258 H         1 UNK         0.0600 
    171 H171       -3.0967  -14.6565  -40.4877 H         1 UNK         0.0600 
    172 H172       -1.7940  -13.5919  -39.9700 H         1 UNK         0.0600 
    173 H173       -2.8656  -13.1091  -41.2849 H         1 UNK         0.0600 
    174 H174       -0.6771  -12.6638  -42.1721 H         1 UNK         0.3000 
    175 H175        1.5691  -11.9320  -42.8498 H         1 UNK         0.0600 
    176 H176        3.3452  -13.3902  -43.7791 H         1 UNK         0.0600 
    177 H177        2.4483  -13.5846  -45.2790 H         1 UNK         0.0600 
    178 H178        3.0842  -12.0042  -44.8276 H         1 UNK         0.0600 
    179 H179        0.4066  -12.2395  -45.5551 H         1 UNK         0.3000 
    180 H180       -2.4748  -10.3210  -44.8300 H         1 UNK         0.0600 
    181 H181       -0.0391   -9.3169  -46.4004 H         1 UNK         0.0600 
    182 H182       -0.8452   -8.4449  -45.1019 H         1 UNK         0.0600 
    183 H183       -1.7022   -8.7634  -46.6013 H         1 UNK         0.0600 
    184 H184       -1.3131  -11.2255  -47.2919 H         1 UNK         0.3000 
    185 H185       -2.1392  -14.5852  -47.1365 H         1 UNK         0.0600 
    186 H186       -4.4866  -13.7820  -47.5120 H         1 UNK         0.0600 
    187 H187       -3.8881  -12.6178  -48.6885 H         1 UNK         0.0600 
    188 H188       -3.7236  -14.3501  -48.9861 H         1 UNK         0.0600 
    189 H189       -1.5830  -13.2358  -49.4665 H         1 UNK         0.3000 
    190 H190       -1.5742  -21.3845  -46.5243 H         1 UNK         0.3000 
    191 H191       -3.2046  -22.2786  -48.6162 H         1 UNK         0.0600 
    192 H192       -3.8959  -21.7457  -45.6727 H         1 UNK         0.0600 
    193 H193       -5.0673  -21.8629  -46.9738 H         1 UNK         0.0600 
    194 H194       -3.8915  -20.5547  -46.9659 H         1 UNK         0.0600 
    195 H195       -2.4734  -23.8758  -45.4902 H         1 UNK         0.3000 
    196 H196       -4.0742  -26.1970  -45.9111 H         1 UNK         0.0600 
    197 H197       -2.7577  -27.1097  -43.9963 H         1 UNK         0.0600 
    198 H198       -3.3130  -25.4749  -43.6672 H         1 UNK         0.0600 
    199 H199       -1.6325  -25.7618  -44.1090 H         1 UNK         0.0600 
    200 H200       -0.5976  -25.5357  -46.5439 H         1 UNK         0.3000 
    201 H201        0.0882  -28.1294  -47.4660 H         1 UNK         0.0600 
    202 H202        1.7613  -26.4667  -46.7096 H         1 UNK         0.0600 
    203 H203        1.3766  -25.4161  -48.0709 H         1 UNK         0.0600 
    204 H204        2.1223  -26.9848  -48.3495 H         1 UNK         0.0600 
    205 H205       -0.9641  -25.2043  -49.2745 H         1 UNK         0.3000 
    206 H206       -0.8495  -26.4411  -51.8761 H         1 UNK         0.0600 
    207 H207       -2.3019  -23.9214  -50.8956 H         1 UNK         0.0600 
    208 H208       -2.0084  -24.3458  -52.5774 H         1 UNK         0.0600 
    209 H209       -0.6547  -23.9786  -51.5202 H         1 UNK         0.0600 
    210 H210       -3.1953  -26.4687  -49.3337 H         1 UNK         0.3000 
    211 H211       -5.2564  -27.1725  -49.0043 H         1 UNK         0.0600 
    212 H212       -5.0493  -28.7793  -51.6090 H         1 UNK         0.0600 
    213 H213       -6.2296  -29.0101  -50.3277 H         1 UNK         0.0600 
    214 H214       -4.5324  -29.3428  -50.0202 H         1 UNK         0.0600 
    215 H215       -5.0034  -24.6921  -49.8113 H         1 UNK         0.3000 
    216 H216       -7.4004  -23.9859  -51.2854 H         1 UNK         0.0600 
    217 H217       -4.6506  -23.3593  -52.5240 H         1 UNK         0.0600 
    218 H218       -6.2003  -22.7322  -53.0960 H         1 UNK         0.0600 
    219 H219       -5.8555  -24.4443  -53.2009 H         1 UNK         0.0600 
    220 H220       -5.2571  -21.4787  -51.6600 H         1 UNK         0.3000 
    221 H221       -5.1753  -20.4578  -48.9533 H         1 UNK         0.0600 
    222 H222       -7.4807  -19.7520  -49.6529 H         1 UNK         0.0600 
    223 H223       -6.8265  -19.0279  -51.1191 H         1 UNK         0.0600 
    224 H224       -6.4125  -18.3631  -49.5433 H         1 UNK         0.0600 
    225 H225       -3.6758  -18.6947  -48.8510 H         1 UNK         0.3000 
    226 H226       -1.4545  -18.8832  -50.5516 H         1 UNK         0.0600 
    227 H227       -1.3479  -18.1750  -48.1905 H         1 UNK         0.0600 
    228 H228       -0.6206  -16.9512  -49.2156 H         1 UNK         0.0600 
    229 H229       -2.2313  -16.6907  -48.5625 H         1 UNK         0.0600 
    230 H230       -4.2566  -16.7851  -50.8175 H         1 UNK         0.3000 
    231 H231       -3.0569  -15.0762  -52.9022 H         1 UNK         0.0600 
    232 H232       -5.8725  -15.1772  -51.6991 H         1 UNK         0.0600 
    233 H233       -5.2997  -13.9825  -52.8569 H         1 UNK         0.0600 
    234 H234       -4.5901  -14.0498  -51.2544 H         1 UNK         0.0600 
    235 H235       -4.7345  -18.1177  -52.7372 H         1 UNK         0.3000 
    236 H236       -5.9723  -17.8689  -55.4074 H         1 UNK         0.0600 
    237 H237       -7.2811  -18.9273  -53.5859 H         1 UNK         0.0600 
    238 H238       -6.9443  -20.0779  -54.8685 H         1 UNK         0.0600 
    239 H239       -6.0319  -20.1528  -53.3700 H         1 UNK         0.0600 
    240 H240       -3.3190  -19.6312  -53.7386 H         1 UNK         0.3000 
    241 H241       -2.6034  -21.1358  -56.0970 H         1 UNK         0.0600 
    242 H242       -0.5925  -17.6905  -56.5404 H         1 UNK         0.3800 
    243 H243       -1.9476  -17.8229  -55.4489 H         1 UNK         0.3800 
    244 H244       -0.7118  -21.9976  -54.7976 H         1 UNK         0.0800 
    245 H245       -2.2166  -22.1373  -53.9486 H         1 UNK         0.0800 
    246 H246        1.3510  -21.3632  -53.5920 H         1 UNK         0.0800 
    247 H247        1.0180  -19.7684  -54.2254 H         1 UNK         0.0800 
@<TRIPOS>BOND
     1    1    2 1    
     2    1  127 1    
     3    1  128 1    
     4    1  129 1    
     5    2    3 2    
     6    2    4 am   BACKBONE|DICT|INTERRES
     7    4    5 1    
     8    4  130 1    
     9    5    6 1    
    10    5   65 1    
    11    5  131 1    
    12    6    7 1    
    13    6  132 1    
    14    6  133 1    
    15    7    8 1    
    16    8    9 1    
    17    8  134 1    
    18    8  135 1    
    19    9   10 ar   
    20    9   14 ar   
    21   10   11 ar   
    22   10  136 1    
    23   11   12 ar   
    24   11  126 1    
    25   12   13 ar   
    26   12  137 1    
    27   13   14 ar   
    28   13   15 1    
    29   14  138 1    
    30   15   16 1    
    31   15  139 1    
    32   15  140 1    
    33   16   17 1    
    34   17   18 1    
    35   17  141 1    
    36   17  142 1    
    37   18   19 1    
    38   18   67 1    
    39   18  143 1    
    40   19   20 am   BACKBONE|DICT|INTERRES
    41   19  144 1    
    42   20   21 2    
    43   20   22 1    
    44   22   23 1    
    45   22   24 1    
    46   22  145 1    
    47   23  146 1    
    48   23  147 1    
    49   23  148 1    
    50   24   25 am   BACKBONE|DICT|INTERRES
    51   24  149 1    
    52   25   26 2    
    53   25   27 1    
    54   27   28 1    
    55   27   29 1    
    56   27  150 1    
    57   28  151 1    
    58   28  152 1    
    59   28  153 1    
    60   29   30 am   BACKBONE|DICT|INTERRES
    61   29  154 1    
    62   30   31 2    
    63   30   32 1    
    64   32   33 1    
    65   32   34 1    
    66   32  155 1    
    67   33  156 1    
    68   33  157 1    
    69   33  158 1    
    70   34   35 am   BACKBONE|DICT|INTERRES
    71   34  159 1    
    72   35   36 2    
    73   35   37 1    
    74   37   38 1    
    75   37   39 1    
    76   37  160 1    
    77   38  161 1    
    78   38  162 1    
    79   38  163 1    
    80   39   40 am   BACKBONE|DICT|INTERRES
    81   39  164 1    
    82   40   41 2    
    83   40   42 1    
    84   42   43 1    
    85   42   44 1    
    86   42  165 1    
    87   43  166 1    
    88   43  167 1    
    89   43  168 1    
    90   44   45 am   BACKBONE|DICT|INTERRES
    91   44  169 1    
    92   45   46 2    
    93   45   47 1    
    94   47   48 1    
    95   47   49 1    
    96   47  170 1    
    97   48  171 1    
    98   48  172 1    
    99   48  173 1    
   100   49   50 am   BACKBONE|DICT|INTERRES
   101   49  174 1    
   102   50   51 2    
   103   50   52 1    
   104   52   53 1    
   105   52   54 1    
   106   52  175 1    
   107   53  176 1    
   108   53  177 1    
   109   53  178 1    
   110   54   55 am   BACKBONE|DICT|INTERRES
   111   54  179 1    
   112   55   56 2    
   113   55   57 1    
   114   57   58 1    
   115   57   59 1    
   116   57  180 1    
   117   58  181 1    
   118   58  182 1    
   119   58  183 1    
   120   59   60 am   BACKBONE|DICT|INTERRES
   121   59  184 1    
   122   60   61 2    
   123   60   62 1    
   124   62   63 1    
   125   62   64 1    
   126   62  185 1    
   127   63  186 1    
   128   63  187 1    
   129   63  188 1    
   130   64   65 am   BACKBONE|DICT|INTERRES
   131   64  189 1    
   132   65   66 2    
   133   67   68 2    
   134   67   69 am   BACKBONE|DICT|INTERRES
   135   69   70 1    
   136   69  190 1    
   137   70   71 1    
   138   70   72 1    
   139   70  191 1    
   140   71  192 1    
   141   71  193 1    
   142   71  194 1    
   143   72   73 2    
   144   72   74 am   BACKBONE|DICT|INTERRES
   145   74   75 1    
   146   74  195 1    
   147   75   76 1    
   148   75   77 1    
   149   75  196 1    
   150   76  197 1    
   151   76  198 1    
   152   76  199 1    
   153   77   78 2    
   154   77   79 am   BACKBONE|DICT|INTERRES
   155   79   80 1    
   156   79  200 1    
   157   80   81 1    
   158   80   82 1    
   159   80  201 1    
   160   81  202 1    
   161   81  203 1    
   162   81  204 1    
   163   82   83 2    
   164   82   84 am   BACKBONE|DICT|INTERRES
   165   84   85 1    
   166   84  205 1    
   167   85   86 1    
   168   85   87 1    
   169   85  206 1    
   170   86  207 1    
   171   86  208 1    
   172   86  209 1    
   173   87   88 2    
   174   87   89 am   BACKBONE|DICT|INTERRES
   175   89   90 1    
   176   89  210 1    
   177   90   91 1    
   178   90   92 1    
   179   90  211 1    
   180   91  212 1    
   181   91  213 1    
   182   91  214 1    
   183   92   93 2    
   184   92   94 am   BACKBONE|DICT|INTERRES
   185   94   95 1    
   186   94  215 1    
   187   95   96 1    
   188   95   97 1    
   189   95  216 1    
   190   96  217 1    
   191   96  218 1    
   192   96  219 1    
   193   97   98 2    
   194   97   99 am   BACKBONE|DICT|INTERRES
   195   99  100 1    
   196   99  220 1    
   197  100  101 1    
   198  100  102 1    
   199  100  221 1    
   200  101  222 1    
   201  101  223 1    
   202  101  224 1    
   203  102  103 2    
   204  102  104 am   BACKBONE|DICT|INTERRES
   205  104  105 1    
   206  104  225 1    
   207  105  106 1    
   208  105  107 1    
   209  105  226 1    
   210  106  227 1    
   211  106  228 1    
   212  106  229 1    
   213  107  108 2    
   214  107  109 am   BACKBONE|DICT|INTERRES
   215  109  110 1    
   216  109  230 1    
   217  110  111 1    
   218  110  112 1    
   219  110  231 1    
   220  111  232 1    
   221  111  233 1    
   222  111  234 1    
   223  112  113 2    
   224  112  114 am   BACKBONE|DICT|INTERRES
   225  114  115 1    
   226  114  235 1    
   227  115  116 1    
   228  115  117 1    
   229  115  236 1    
   230  116  237 1    
   231  116  238 1    
   232  116  239 1    
   233  117  118 2    
   234  117  119 am   BACKBONE|DICT|INTERRES
   235  119  120 1    
   236  119  240 1    
   237  120  121 1    
   238  120  124 1    
   239  120  241 1    
   240  121  122 am   BACKBONE|DICT|INTERRES
   241  121  123 2    
   242  122  242 1    
   243  122  243 1    
   244  124  125 1    
   245  124  244 1    
   246  124  245 1    
   247  125  126 1    
   248  126  246 1    
   249  126  247 1    
@<TRIPOS>SUBSTRUCTURE
     1 UNK         1 GROUP             0       ****    0 ROOT    
