@<TRIPOS>MOLECULE
3R540
247   249    1
SMALL
USER_CHARGES


@<TRIPOS>ATOM
      1 CA          5.5163  -11.5044  -47.1000 C.3       0 UNK        -0.1800 
      2 C           4.4534  -12.5893  -47.0124 C.2       0 UNK         0.5000 
      3 O           3.3712  -12.3447  -46.4837 O.2       0 UNK        -0.5000 
      4 N           4.7467  -13.7814  -47.5469 N.am      1 UNK        -0.5000 
      5 CA          3.8722  -14.9649  -47.5577 C.3       1 UNK         0.1400 
      6 C6          4.6085  -16.2075  -48.1197 C.3       23 UNK        -0.0398 
      7 S7          5.2696  -15.9589  -49.8092 S.3       23 UNK        -0.2404 
      8 C8          5.2176  -17.6512  -50.4913 C.3       23 UNK        -0.0205 
      9 C9          3.8276  -18.2633  -50.6756 C.ar      23 UNK        -0.0193 
     10 C10         2.6580  -17.4958  -50.7496 C.ar      23 UNK        -0.1150 
     11 C11         1.4109  -18.1049  -50.9185 C.ar      23 UNK        -0.0193 
     12 C12         1.3324  -19.4964  -51.0316 C.ar      23 UNK        -0.1150 
     13 C13         2.4923  -20.2739  -50.9787 C.ar      23 UNK        -0.0193 
     14 C14         3.7301  -19.6514  -50.7996 C.ar      23 UNK        -0.1150 
     15 C15         2.4290  -21.7850  -51.1324 C.3       23 UNK        -0.0205 
     16 S16         2.6090  -22.6284  -49.5305 S.3       23 UNK        -0.2404 
     17 C17         0.8721  -22.7807  -49.0022 C.3       23 UNK        -0.0398 
     18 CA          0.7421  -23.7585  -47.8114 C.3       11 UNK         0.1400 
     19 N           1.3357  -23.2280  -46.5836 N.am      11 UNK        -0.5000 
     20 C           1.7738  -23.9792  -45.5654 C.2       10 UNK         0.5000 
     21 O           1.7608  -25.2098  -45.5680 O.2       10 UNK        -0.5000 
     22 CA          2.2754  -23.2263  -44.3180 C.3       10 UNK         0.1400 
     23 CB          3.7462  -22.8176  -44.4880 C.3       10 UNK        -0.1800 
     24 N           1.4758  -22.0388  -44.0096 N.am      10 UNK        -0.5000 
     25 C           0.1822  -22.0707  -43.6620 C.2       9 UNK         0.5000 
     26 O          -0.4604  -23.1104  -43.5235 O.2       9 UNK        -0.5000 
     27 CA         -0.5315  -20.7200  -43.4792 C.3       9 UNK         0.1400 
     28 CB         -0.4313  -20.2557  -42.0201 C.3       9 UNK        -0.1800 
     29 N          -0.0809  -19.6449  -44.3671 N.am      9 UNK        -0.5000 
     30 C          -0.0100  -19.6882  -45.7065 C.2       8 UNK         0.5000 
     31 O          -0.1786  -20.7196  -46.3591 O.2       8 UNK        -0.5000 
     32 CA          0.2620  -18.3637  -46.4530 C.3       8 UNK         0.1400 
     33 CB         -0.8063  -18.1408  -47.5361 C.3       8 UNK        -0.1800 
     34 N           0.2733  -17.1948  -45.5705 N.am      8 UNK        -0.5000 
     35 C           1.3009  -16.7862  -44.8143 C.2       7 UNK         0.5000 
     36 O           2.3973  -17.3449  -44.7897 O.2       7 UNK        -0.5000 
     37 CA          1.0324  -15.5882  -43.8836 C.3       7 UNK         0.1400 
     38 CB          1.3293  -14.2544  -44.5839 C.3       7 UNK        -0.1800 
     39 N          -0.3534  -15.5885  -43.4116 N.am      7 UNK        -0.5000 
     40 C          -0.7886  -16.2890  -42.3549 C.2       6 UNK         0.5000 
     41 O          -0.0458  -16.9410  -41.6220 O.2       6 UNK        -0.5000 
     42 CA         -2.3039  -16.2739  -42.0702 C.3       6 UNK         0.1400 
     43 CB         -2.6451  -15.1794  -41.0479 C.3       6 UNK        -0.1800 
     44 N          -3.1109  -16.0674  -43.2732 N.am      6 UNK        -0.5000 
     45 C          -3.2842  -16.9721  -44.2477 C.2       5 UNK         0.5000 
     46 O          -2.8471  -18.1199  -44.2006 O.2       5 UNK        -0.5000 
     47 CA         -4.0437  -16.4993  -45.5049 C.3       5 UNK         0.1400 
     48 CB         -5.5310  -16.8607  -45.3944 C.3       5 UNK        -0.1800 
     49 N          -3.9125  -15.0602  -45.7621 N.am      5 UNK        -0.5000 
     50 C          -2.7535  -14.4315  -45.9987 C.2       4 UNK         0.5000 
     51 O          -1.6671  -15.0104  -46.0730 O.2       4 UNK        -0.5000 
     52 CA         -2.8090  -12.9010  -46.0616 C.3       4 UNK         0.1400 
     53 CB         -3.0355  -12.3279  -44.6462 C.3       4 UNK        -0.1800 
     54 N          -1.5550  -12.3959  -46.6135 N.am      4 UNK        -0.5000 
     55 C          -1.3359  -11.1377  -47.0127 C.2       3 UNK         0.5000 
     56 O          -2.1963  -10.2559  -46.9927 O.2       3 UNK        -0.5000 
     57 CA          0.0791  -10.7891  -47.5127 C.3       3 UNK         0.1400 
     58 CB          0.9382  -10.2748  -46.3479 C.3       3 UNK        -0.1800 
     59 N           0.7788  -11.8865  -48.1883 N.am      3 UNK        -0.5000 
     60 C           0.3917  -12.4217  -49.3571 C.2       2 UNK         0.5000 
     61 O          -0.6443  -12.0952  -49.9364 O.2       2 UNK        -0.5000 
     62 CA          1.3100  -13.4655  -50.0239 C.3       2 UNK         0.1400 
     63 CB          1.7814  -12.9833  -51.4054 C.3       2 UNK        -0.1800 
     64 N           2.4878  -13.8080  -49.2314 N.am      2 UNK        -0.5000 
     65 C           2.5191  -14.7409  -48.2723 C.2       1 UNK         0.5000 
     66 O           1.5393  -15.4050  -47.9429 O.2       1 UNK        -0.5000 
     67 C          -0.7241  -24.1601  -47.5769 C.2       11 UNK         0.5000 
     68 O          -1.1573  -25.1836  -48.1107 O.2       11 UNK        -0.5000 
     69 N          -1.4540  -23.3785  -46.7669 N.am      12 UNK        -0.5000 
     70 CA         -2.8426  -23.6484  -46.3830 C.3       12 UNK         0.1400 
     71 CB         -3.4039  -22.4643  -45.5835 C.3       12 UNK        -0.1800 
     72 C          -2.9945  -24.9599  -45.5911 C.2       12 UNK         0.5000 
     73 O          -3.9270  -25.7229  -45.8423 O.2       12 UNK        -0.5000 
     74 N          -2.0514  -25.2130  -44.6736 N.am      13 UNK        -0.5000 
     75 CA         -1.9463  -26.4566  -43.9124 C.3       13 UNK         0.1400 
     76 CB         -0.9433  -26.2624  -42.7651 C.3       13 UNK        -0.1800 
     77 C          -1.5383  -27.6595  -44.7833 C.2       13 UNK         0.5000 
     78 O          -1.9432  -28.7832  -44.4822 O.2       13 UNK        -0.5000 
     79 N          -0.7447  -27.4094  -45.8346 N.am      14 UNK        -0.5000 
     80 CA         -0.2806  -28.4255  -46.7742 C.3       14 UNK         0.1400 
     81 CB          0.9468  -27.9174  -47.5480 C.3       14 UNK        -0.1800 
     82 C          -1.3938  -28.8867  -47.7290 C.2       14 UNK         0.5000 
     83 O          -1.6844  -30.0837  -47.7679 O.2       14 UNK        -0.5000 
     84 N          -1.9904  -27.9493  -48.4820 N.am      15 UNK        -0.5000 
     85 CA         -2.9862  -28.2632  -49.5142 C.3       15 UNK         0.1400 
     86 CB         -2.3107  -28.9864  -50.7011 C.3       15 UNK        -0.1800 
     87 C          -3.7799  -27.0571  -50.0495 C.2       15 UNK         0.5000 
     88 O          -4.8314  -27.2788  -50.6535 O.2       15 UNK        -0.5000 
     89 N          -3.2744  -25.8239  -49.8985 N.am      16 UNK        -0.5000 
     90 CA         -3.8543  -24.6345  -50.5300 C.3       16 UNK         0.1400 
     91 CB         -2.8577  -23.4672  -50.4443 C.3       16 UNK        -0.1800 
     92 C          -5.2163  -24.2325  -49.9329 C.2       16 UNK         0.5000 
     93 O          -5.4498  -24.4039  -48.7343 O.2       16 UNK        -0.5000 
     94 N          -6.0805  -23.6627  -50.7808 N.am      17 UNK        -0.5000 
     95 CA         -7.3794  -23.0953  -50.4188 C.3       17 UNK         0.1400 
     96 CB         -8.2437  -22.9999  -51.6890 C.3       17 UNK        -0.1800 
     97 C          -7.2038  -21.7304  -49.7231 C.2       17 UNK         0.5000 
     98 O          -7.4699  -20.6884  -50.3264 O.2       17 UNK        -0.5000 
     99 N          -6.7068  -21.7675  -48.4790 N.am      18 UNK        -0.5000 
    100 CA        -6.2948  -20.6248  -47.6604 C.3       18 UNK         0.1400 
    101 CB        -7.5092  -19.7379  -47.2990 C.3       18 UNK        -0.1800 
    102 C         -5.1272  -19.8818  -48.3415 C.2       18 UNK         0.5000 
    103 O         -4.0714  -20.4857  -48.5333 O.2       18 UNK        -0.5000 
    104 N         -5.3348  -18.6150  -48.7255 N.am      19 UNK        -0.5000 
    105 CA        -4.3847  -17.8327  -49.5200 C.3       19 UNK         0.1400 
    106 CB        -4.7931  -16.3520  -49.4788 C.3       19 UNK        -0.1800 
    107 C         -4.2686  -18.3205  -50.9791 C.2       19 UNK         0.5000 
    108 O         -3.2295  -18.1005  -51.6006 O.2       19 UNK        -0.5000 
    109 N         -5.3240  -18.9706  -51.4964 N.am      20 UNK        -0.5000 
    110 CA        -5.4466  -19.5381  -52.8417 C.3       20 UNK         0.1400 
    111 CB        -4.6334  -20.8471  -52.9302 C.3       20 UNK        -0.1800 
    112 C         -5.1083  -18.5088  -53.9407 C.2       20 UNK         0.5000 
    113 O         -5.7959  -17.4908  -54.0452 O.2       20 UNK        -0.5000 
    114 N         -4.0389  -18.7640  -54.7068 N.am      21 UNK        -0.5000 
    115 CA        -3.5121  -17.8958  -55.7622 C.3       21 UNK         0.1400 
    116 CB        -2.3595  -18.6233  -56.4713 C.3       21 UNK        -0.1800 
    117 C         -3.0515  -16.5074  -55.2725 C.2       21 UNK         0.5000 
    118 O         -3.0222  -15.5722  -56.0741 O.2       21 UNK        -0.5000 
    119 N         -2.7219  -16.3864  -53.9797 N.am      22 UNK        -0.5000 
    120 CA        -2.4080  -15.1095  -53.3217 C.3       22 UNK         0.1400 
    121 C         -3.6684  -14.2723  -52.9473 C.2       22 UNK         0.5000 
    122 N         -4.8874  -14.7861  -53.0789 N.am      22 UNK        -0.7600 
    123 O         -3.5392  -13.1226  -52.5377 O.2       22 UNK        -0.5000 
    124 C124       -1.4834  -15.2892  -52.0900 C.3       23 UNK        -0.0398 
    125 S125        0.0418  -16.2304  -52.4477 S.3       23 UNK        -0.2404 
    126 C126        0.1497  -17.2566  -50.9481 C.3       23 UNK        -0.0205 
    127 H127        5.1274  -10.6427  -47.6425 H         1 UNK         0.0600 
    128 H128        5.8011  -11.1786  -46.0997 H         1 UNK         0.0600 
    129 H129        6.4124  -11.8545  -47.6129 H         1 UNK         0.0600 
    130 H130        5.6451  -13.9123  -47.9907 H         1 UNK         0.3000 
    131 H131        3.6316  -15.1826  -46.5160 H         1 UNK         0.0600 
    132 H132        3.9497  -17.0778  -48.0991 H         1 UNK         0.0800 
    133 H133        5.4449  -16.4613  -47.4673 H         1 UNK         0.0800 
    134 H134        5.7144  -17.6412  -51.4621 H         1 UNK         0.0800 
    135 H135        5.8179  -18.2943  -49.8456 H         1 UNK         0.0800 
    136 H136        2.7034  -16.4195  -50.6787 H         1 UNK         0.1150 
    137 H137        0.3711  -19.9731  -51.1632 H         1 UNK         0.1150 
    138 H138        4.6252  -20.2566  -50.7575 H         1 UNK         0.1150 
    139 H139        1.5040  -22.0895  -51.6242 H         1 UNK         0.0800 
    140 H140        3.2378  -22.1100  -51.7886 H         1 UNK         0.0800 
    141 H141        0.2940  -23.1411  -49.8546 H         1 UNK         0.0800 
    142 H142        0.4797  -21.7931  -48.7537 H         1 UNK         0.0800 
    143 H143        1.2742  -24.6740  -48.0793 H         1 UNK         0.0600 
    144 H144        1.2995  -22.2224  -46.4719 H         1 UNK         0.3000 
    145 H145        2.2054  -23.9090  -43.4684 H         1 UNK         0.0600 
    146 H146        4.1344  -22.3538  -43.5810 H         1 UNK         0.0600 
    147 H147        4.3702  -23.6869  -44.7003 H         1 UNK         0.0600 
    148 H148        3.8763  -22.1117  -45.3094 H         1 UNK         0.0600 
    149 H149        1.9247  -21.1404  -44.1114 H         1 UNK         0.3000 
    150 H150       -1.5868  -20.8789  -43.6991 H         1 UNK         0.0600 
    151 H151       -0.7096  -21.0546  -41.3313 H         1 UNK         0.0600 
    152 H152       -1.1070  -19.4223  -41.8303 H         1 UNK         0.0600 
    153 H153        0.5803  -19.9371  -41.7658 H         1 UNK         0.0600 
    154 H154        0.0541  -18.7443  -43.9332 H         1 UNK         0.3000 
    155 H155        1.2353  -18.4443  -46.9411 H         1 UNK         0.0600 
    156 H156       -1.8120  -18.2422  -47.1293 H         1 UNK         0.0600 
    157 H157       -0.7057  -18.8709  -48.3402 H         1 UNK         0.0600 
    158 H158       -0.7242  -17.1485  -47.9784 H         1 UNK         0.0600 
    159 H159       -0.5596  -16.6171  -45.5893 H         1 UNK         0.3000 
    160 H160        1.7036  -15.6690  -43.0258 H         1 UNK         0.0600 
    161 H161        1.0539  -13.4052  -43.9585 H         1 UNK         0.0600 
    162 H162        0.7986  -14.1595  -45.5310 H         1 UNK         0.0600 
    163 H163        2.3943  -14.1649  -44.7937 H         1 UNK         0.0600 
    164 H164       -1.0263  -15.1194  -44.0020 H         1 UNK         0.3000 
    165 H165       -2.5703  -17.2413  -41.6390 H         1 UNK         0.0600 
    166 H166       -3.7026  -15.2017  -40.7840 H         1 UNK         0.0600 
    167 H167       -2.0785  -15.3162  -40.1257 H         1 UNK         0.0600 
    168 H168       -2.4145  -14.1841  -41.4303 H         1 UNK         0.0600 
    169 H169       -3.5300  -15.1568  -43.3861 H         1 UNK         0.3000 
    170 H170       -3.6278  -17.0318  -46.3613 H         1 UNK         0.0600 
    171 H171       -5.6554  -17.9244  -45.1884 H         1 UNK         0.0600 
    172 H172       -6.0200  -16.3130  -44.5880 H         1 UNK         0.0600 
    173 H173       -6.0620  -16.6416  -46.3206 H         1 UNK         0.0600 
    174 H174       -4.7615  -14.5162  -45.7028 H         1 UNK         0.3000 
    175 H175       -3.6309  -12.6118  -46.7196 H         1 UNK         0.0600 
    176 H176       -2.2150  -12.5845  -43.9745 H         1 UNK         0.0600 
    177 H177       -3.1234  -11.2418  -44.6606 H         1 UNK         0.0600 
    178 H178       -3.9556  -12.7101  -44.2029 H         1 UNK         0.0600 
    179 H179       -0.8228  -13.0900  -46.7001 H         1 UNK         0.3000 
    180 H180       -0.0254   -9.9758  -48.2339 H         1 UNK         0.0600 
    181 H181        1.0999  -11.0493  -45.5970 H         1 UNK         0.0600 
    182 H182        0.4595   -9.4304  -45.8504 H         1 UNK         0.0600 
    183 H183        1.9138   -9.9349  -46.6960 H         1 UNK         0.0600 
    184 H184        1.6403  -12.2050  -47.7591 H         1 UNK         0.3000 
    185 H185        0.7098  -14.3631  -50.1684 H         1 UNK         0.0600 
    186 H186        0.9346  -12.7640  -52.0569 H         1 UNK         0.0600 
    187 H187        2.3840  -12.0773  -51.3318 H         1 UNK         0.0600 
    188 H188        2.3791  -13.7469  -51.9040 H         1 UNK         0.0600 
    189 H189        3.3378  -13.3029  -49.4353 H         1 UNK         0.3000 
    190 H190       -1.0346  -22.5250  -46.4117 H         1 UNK         0.3000 
    191 H191       -3.4231  -23.7414  -47.2995 H         1 UNK         0.0600 
    192 H192       -2.9629  -22.4081  -44.5899 H         1 UNK         0.0600 
    193 H193       -4.4808  -22.5689  -45.4504 H         1 UNK         0.0600 
    194 H194       -3.2238  -21.5157  -46.0898 H         1 UNK         0.0600 
    195 H195       -1.3598  -24.4965  -44.4676 H         1 UNK         0.3000 
    196 H196       -2.9244  -26.6752  -43.4788 H         1 UNK         0.0600 
    197 H197        0.0495  -26.0084  -43.1393 H         1 UNK         0.0600 
    198 H198       -0.8490  -27.1705  -42.1682 H         1 UNK         0.0600 
    199 H199       -1.2617  -25.4641  -42.0945 H         1 UNK         0.0600 
    200 H200       -0.4521  -26.4583  -46.0078 H         1 UNK         0.3000 
    201 H201        0.0407  -29.2956  -46.1972 H         1 UNK         0.0600 
    202 H202        0.7193  -27.0404  -48.1519 H         1 UNK         0.0600 
    203 H203        1.3245  -28.6865  -48.2227 H         1 UNK         0.0600 
    204 H204        1.7589  -27.6555  -46.8697 H         1 UNK         0.0600 
    205 H205       -1.7245  -26.9766  -48.3586 H         1 UNK         0.3000 
    206 H206       -3.7245  -28.9367  -49.0735 H         1 UNK         0.0600 
    207 H207       -3.0240  -29.1866  -51.5018 H         1 UNK         0.0600 
    208 H208       -1.5043  -28.3862  -51.1241 H         1 UNK         0.0600 
    209 H209       -1.8923  -29.9489  -50.4088 H         1 UNK         0.0600 
    210 H210       -2.4394  -25.6722  -49.3424 H         1 UNK         0.3000 
    211 H211       -4.0001  -24.8675  -51.5871 H         1 UNK         0.0600 
    212 H212       -2.7293  -23.1141  -49.4225 H         1 UNK         0.0600 
    213 H213       -3.2009  -22.6151  -51.0294 H         1 UNK         0.0600 
    214 H214       -1.8801  -23.7516  -50.8327 H         1 UNK         0.0600 
    215 H215       -5.8091  -23.5529  -51.7465 H         1 UNK         0.3000 
    216 H216       -7.8823  -23.7671  -49.7198 H         1 UNK         0.0600 
    217 H217       -9.2249  -22.5810  -51.4622 H         1 UNK         0.0600 
    218 H218       -8.4058  -23.9838  -52.1297 H         1 UNK         0.0600 
    219 H219       -7.7826  -22.3652  -52.4470 H         1 UNK         0.0600 
    220 H220       -6.4239  -22.6786  -48.1330 H         1 UNK         0.3000 
    221 H221       -5.8983  -21.0329  -46.7305 H         1 UNK         0.0600 
    222 H222       -7.9702  -19.2766  -48.1724 H         1 UNK         0.0600 
    223 H223       -8.2786  -20.3248  -46.7972 H         1 UNK         0.0600 
    224 H224       -7.2261  -18.9392  -46.6152 H         1 UNK         0.0600 
    225 H225       -6.2384  -18.1989  -48.5544 H         1 UNK         0.3000 
    226 H226       -3.3964  -17.9255  -49.0657 H         1 UNK         0.0600 
    227 H227       -4.0916  -15.7352  -50.0409 H         1 UNK         0.0600 
    228 H228       -5.7823  -16.1954  -49.9106 H         1 UNK         0.0600 
    229 H229       -4.8073  -15.9721  -48.4580 H         1 UNK         0.0600 
    230 H230       -6.1254  -19.1329  -50.8980 H         1 UNK         0.3000 
    231 H231       -6.4989  -19.7927  -52.9757 H         1 UNK         0.0600 
    232 H232       -4.9794  -21.5545  -52.1798 H         1 UNK         0.0600 
    233 H233       -3.5682  -20.6848  -52.7606 H         1 UNK         0.0600 
    234 H234       -4.7547  -21.3276  -53.9019 H         1 UNK         0.0600 
    235 H235       -3.5156  -19.6071  -54.5223 H         1 UNK         0.3000 
    236 H236       -4.3134  -17.7345  -56.4862 H         1 UNK         0.0600 
    237 H237       -1.9604  -18.0209  -57.2885 H         1 UNK         0.0600 
    238 H238       -1.5367  -18.8334  -55.7866 H         1 UNK         0.0600 
    239 H239       -2.6920  -19.5690  -56.8996 H         1 UNK         0.0600 
    240 H240       -2.7931  -17.1910  -53.3651 H         1 UNK         0.3000 
    241 H241       -1.8544  -14.4988  -54.0374 H         1 UNK         0.0600 
    242 H242       -5.6854  -14.2196  -52.8403 H         1 UNK         0.3800 
    243 H243       -5.0324  -15.7246  -53.4348 H         1 UNK         0.3800 
    244 H244       -1.1874  -14.3135  -51.7024 H         1 UNK         0.0800 
    245 H245       -2.0267  -15.7785  -51.2816 H         1 UNK         0.0800 
    246 H246        0.1392  -16.6131  -50.0691 H         1 UNK         0.0800 
    247 H247       -0.7352  -17.8894  -50.8784 H         1 UNK         0.0800 
@<TRIPOS>BOND
     1    1    2 1    
     2    1  127 1    
     3    1  128 1    
     4    1  129 1    
     5    2    3 2    
     6    2    4 am   BACKBONE|DICT|INTERRES
     7    4    5 1    
     8    4  130 1    
     9    5    6 1    
    10    5   65 1    
    11    5  131 1    
    12    6    7 1    
    13    6  132 1    
    14    6  133 1    
    15    7    8 1    
    16    8    9 1    
    17    8  134 1    
    18    8  135 1    
    19    9   10 ar   
    20    9   14 ar   
    21   10   11 ar   
    22   10  136 1    
    23   11   12 ar   
    24   11  126 1    
    25   12   13 ar   
    26   12  137 1    
    27   13   14 ar   
    28   13   15 1    
    29   14  138 1    
    30   15   16 1    
    31   15  139 1    
    32   15  140 1    
    33   16   17 1    
    34   17   18 1    
    35   17  141 1    
    36   17  142 1    
    37   18   19 1    
    38   18   67 1    
    39   18  143 1    
    40   19   20 am   BACKBONE|DICT|INTERRES
    41   19  144 1    
    42   20   21 2    
    43   20   22 1    
    44   22   23 1    
    45   22   24 1    
    46   22  145 1    
    47   23  146 1    
    48   23  147 1    
    49   23  148 1    
    50   24   25 am   BACKBONE|DICT|INTERRES
    51   24  149 1    
    52   25   26 2    
    53   25   27 1    
    54   27   28 1    
    55   27   29 1    
    56   27  150 1    
    57   28  151 1    
    58   28  152 1    
    59   28  153 1    
    60   29   30 am   BACKBONE|DICT|INTERRES
    61   29  154 1    
    62   30   31 2    
    63   30   32 1    
    64   32   33 1    
    65   32   34 1    
    66   32  155 1    
    67   33  156 1    
    68   33  157 1    
    69   33  158 1    
    70   34   35 am   BACKBONE|DICT|INTERRES
    71   34  159 1    
    72   35   36 2    
    73   35   37 1    
    74   37   38 1    
    75   37   39 1    
    76   37  160 1    
    77   38  161 1    
    78   38  162 1    
    79   38  163 1    
    80   39   40 am   BACKBONE|DICT|INTERRES
    81   39  164 1    
    82   40   41 2    
    83   40   42 1    
    84   42   43 1    
    85   42   44 1    
    86   42  165 1    
    87   43  166 1    
    88   43  167 1    
    89   43  168 1    
    90   44   45 am   BACKBONE|DICT|INTERRES
    91   44  169 1    
    92   45   46 2    
    93   45   47 1    
    94   47   48 1    
    95   47   49 1    
    96   47  170 1    
    97   48  171 1    
    98   48  172 1    
    99   48  173 1    
   100   49   50 am   BACKBONE|DICT|INTERRES
   101   49  174 1    
   102   50   51 2    
   103   50   52 1    
   104   52   53 1    
   105   52   54 1    
   106   52  175 1    
   107   53  176 1    
   108   53  177 1    
   109   53  178 1    
   110   54   55 am   BACKBONE|DICT|INTERRES
   111   54  179 1    
   112   55   56 2    
   113   55   57 1    
   114   57   58 1    
   115   57   59 1    
   116   57  180 1    
   117   58  181 1    
   118   58  182 1    
   119   58  183 1    
   120   59   60 am   BACKBONE|DICT|INTERRES
   121   59  184 1    
   122   60   61 2    
   123   60   62 1    
   124   62   63 1    
   125   62   64 1    
   126   62  185 1    
   127   63  186 1    
   128   63  187 1    
   129   63  188 1    
   130   64   65 am   BACKBONE|DICT|INTERRES
   131   64  189 1    
   132   65   66 2    
   133   67   68 2    
   134   67   69 am   BACKBONE|DICT|INTERRES
   135   69   70 1    
   136   69  190 1    
   137   70   71 1    
   138   70   72 1    
   139   70  191 1    
   140   71  192 1    
   141   71  193 1    
   142   71  194 1    
   143   72   73 2    
   144   72   74 am   BACKBONE|DICT|INTERRES
   145   74   75 1    
   146   74  195 1    
   147   75   76 1    
   148   75   77 1    
   149   75  196 1    
   150   76  197 1    
   151   76  198 1    
   152   76  199 1    
   153   77   78 2    
   154   77   79 am   BACKBONE|DICT|INTERRES
   155   79   80 1    
   156   79  200 1    
   157   80   81 1    
   158   80   82 1    
   159   80  201 1    
   160   81  202 1    
   161   81  203 1    
   162   81  204 1    
   163   82   83 2    
   164   82   84 am   BACKBONE|DICT|INTERRES
   165   84   85 1    
   166   84  205 1    
   167   85   86 1    
   168   85   87 1    
   169   85  206 1    
   170   86  207 1    
   171   86  208 1    
   172   86  209 1    
   173   87   88 2    
   174   87   89 am   BACKBONE|DICT|INTERRES
   175   89   90 1    
   176   89  210 1    
   177   90   91 1    
   178   90   92 1    
   179   90  211 1    
   180   91  212 1    
   181   91  213 1    
   182   91  214 1    
   183   92   93 2    
   184   92   94 am   BACKBONE|DICT|INTERRES
   185   94   95 1    
   186   94  215 1    
   187   95   96 1    
   188   95   97 1    
   189   95  216 1    
   190   96  217 1    
   191   96  218 1    
   192   96  219 1    
   193   97   98 2    
   194   97   99 am   BACKBONE|DICT|INTERRES
   195   99  100 1    
   196   99  220 1    
   197  100  101 1    
   198  100  102 1    
   199  100  221 1    
   200  101  222 1    
   201  101  223 1    
   202  101  224 1    
   203  102  103 2    
   204  102  104 am   BACKBONE|DICT|INTERRES
   205  104  105 1    
   206  104  225 1    
   207  105  106 1    
   208  105  107 1    
   209  105  226 1    
   210  106  227 1    
   211  106  228 1    
   212  106  229 1    
   213  107  108 2    
   214  107  109 am   BACKBONE|DICT|INTERRES
   215  109  110 1    
   216  109  230 1    
   217  110  111 1    
   218  110  112 1    
   219  110  231 1    
   220  111  232 1    
   221  111  233 1    
   222  111  234 1    
   223  112  113 2    
   224  112  114 am   BACKBONE|DICT|INTERRES
   225  114  115 1    
   226  114  235 1    
   227  115  116 1    
   228  115  117 1    
   229  115  236 1    
   230  116  237 1    
   231  116  238 1    
   232  116  239 1    
   233  117  118 2    
   234  117  119 am   BACKBONE|DICT|INTERRES
   235  119  120 1    
   236  119  240 1    
   237  120  121 1    
   238  120  124 1    
   239  120  241 1    
   240  121  122 am   BACKBONE|DICT|INTERRES
   241  121  123 2    
   242  122  242 1    
   243  122  243 1    
   244  124  125 1    
   245  124  244 1    
   246  124  245 1    
   247  125  126 1    
   248  126  246 1    
   249  126  247 1    
@<TRIPOS>SUBSTRUCTURE
     1 UNK         1 GROUP             0       ****    0 ROOT    
