@<TRIPOS>MOLECULE
3R540
247   249    1
SMALL
USER_CHARGES


@<TRIPOS>ATOM
      1 CA          3.4719   -9.9521  -47.6929 C.3       0 UNK        -0.1800 
      2 C           2.1280  -10.4068  -47.1445 C.2       0 UNK         0.5000 
      3 O           1.9429  -10.4423  -45.9286 O.2       0 UNK        -0.5000 
      4 N           1.1802  -10.7355  -48.0318 N.am      1 UNK        -0.5000 
      5 CA         -0.1608  -11.2494  -47.7106 C.3       1 UNK         0.1400 
      6 C6         -0.9403  -11.6528  -48.9850 C.3       23 UNK        -0.0398 
      7 S7         -0.1089  -12.9713  -49.9363 S.3       23 UNK        -0.2404 
      8 C8         -1.2479  -14.3592  -49.6498 C.3       23 UNK        -0.0205 
      9 C9         -0.8826  -15.5714  -50.4912 C.ar      23 UNK        -0.0193 
     10 C10        -1.2910  -15.6456  -51.8243 C.ar      23 UNK        -0.1150 
     11 C11        -1.0086  -16.7774  -52.5986 C.ar      23 UNK        -0.0193 
     12 C12        -0.2955  -17.8347  -52.0229 C.ar      23 UNK        -0.1150 
     13 C13         0.1283  -17.7695  -50.6912 C.ar      23 UNK        -0.0193 
     14 C14        -0.1605  -16.6290  -49.9359 C.ar      23 UNK        -0.1150 
     15 C15         0.9188  -18.9142  -50.0684 C.3       23 UNK        -0.0205 
     16 S16         0.0285  -20.5061  -50.0839 S.3       23 UNK        -0.2404 
     17 C17        -1.5316  -20.1071  -49.2274 C.3       23 UNK        -0.0398 
     18 CA         -2.0710  -21.3263  -48.4412 C.3       11 UNK         0.1400 
     19 N          -1.3333  -21.5688  -47.1934 N.am      11 UNK        -0.5000 
     20 C          -1.5015  -22.6465  -46.4141 C.2       10 UNK         0.5000 
     21 O          -2.2624  -23.5699  -46.6924 O.2       10 UNK        -0.5000 
     22 CA         -0.7453  -22.6895  -45.0750 C.3       10 UNK         0.1400 
     23 CB          0.7233  -23.0916  -45.2755 C.3       10 UNK        -0.1800 
     24 N          -0.8319  -21.4273  -44.3415 N.am      10 UNK        -0.5000 
     25 C          -1.9718  -20.9039  -43.8664 C.2       9 UNK         0.5000 
     26 O          -3.0654  -21.4601  -43.9558 O.2       9 UNK        -0.5000 
     27 CA         -1.8903  -19.4988  -43.2399 C.3       9 UNK         0.1400 
     28 CB         -1.3873  -19.5644  -41.7907 C.3       9 UNK        -0.1800 
     29 N          -1.0447  -18.5939  -44.0181 N.am      9 UNK        -0.5000 
     30 C          -1.3000  -18.2250  -45.2814 C.2       8 UNK         0.5000 
     31 O          -2.3175  -18.5407  -45.8979 O.2       8 UNK        -0.5000 
     32 CA         -0.2020  -17.4281  -46.0016 C.3       8 UNK         0.1400 
     33 CB         -0.3123  -15.9236  -45.7095 C.3       8 UNK        -0.1800 
     34 N           1.1390  -17.9123  -45.6692 N.am      8 UNK        -0.5000 
     35 C           1.6163  -19.1064  -46.0498 C.2       7 UNK         0.5000 
     36 O           0.9810  -19.9016  -46.7393 O.2       7 UNK        -0.5000 
     37 CA          3.0164  -19.4938  -45.5417 C.3       7 UNK         0.1400 
     38 CB          4.1048  -18.8244  -46.3938 C.3       7 UNK        -0.1800 
     39 N           3.2154  -19.1478  -44.1340 N.am      7 UNK        -0.5000 
     40 C           2.5444  -19.7034  -43.1142 C.2       6 UNK         0.5000 
     41 O           1.7333  -20.6174  -43.2508 O.2       6 UNK        -0.5000 
     42 CA          2.7760  -19.1000  -41.7143 C.3       6 UNK         0.1400 
     43 CB          3.9248  -19.8256  -40.9986 C.3       6 UNK        -0.1800 
     44 N           3.0512  -17.6596  -41.7387 N.am      6 UNK        -0.5000 
     45 C           2.2193  -16.7332  -42.2321 C.2       5 UNK         0.5000 
     46 O           1.1039  -16.9933  -42.6960 O.2       5 UNK        -0.5000 
     47 CA          2.7465  -15.2918  -42.2721 C.3       5 UNK         0.1400 
     48 CB          3.9623  -15.1808  -43.2167 C.3       5 UNK        -0.1800 
     49 N           1.6690  -14.4298  -42.7428 N.am      5 UNK        -0.5000 
     50 C           1.6355  -13.0964  -42.6881 C.2       4 UNK         0.5000 
     51 O           2.5288  -12.4148  -42.1789 O.2       4 UNK        -0.5000 
     52 CA          0.4084  -12.4399  -43.3527 C.3       4 UNK         0.1400 
     53 CB         -0.9144  -12.8185  -42.6546 C.3       4 UNK        -0.1800 
     54 N           0.5494  -10.9898  -43.5015 N.am      4 UNK        -0.5000 
     55 C           0.5171  -10.0354  -42.5593 C.2       3 UNK         0.5000 
     56 O           0.2650  -10.2306  -41.3695 O.2       3 UNK        -0.5000 
     57 CA          0.8047   -8.6027  -43.0438 C.3       3 UNK         0.1400 
     58 CB          2.3157   -8.3222  -43.0341 C.3       3 UNK        -0.1800 
     59 N           0.2838   -8.3805  -44.3936 N.am      3 UNK        -0.5000 
     60 C          -0.9635   -7.9732  -44.6663 C.2       2 UNK         0.5000 
     61 O          -1.7828   -7.6514  -43.8048 O.2       2 UNK        -0.5000 
     62 CA         -1.3711   -7.9244  -46.1525 C.3       2 UNK         0.1400 
     63 CB         -1.0361   -6.5532  -46.7588 C.3       2 UNK        -0.1800 
     64 N          -0.7355   -8.9716  -46.9548 N.am      2 UNK        -0.5000 
     65 C          -1.0112  -10.2807  -46.8572 C.2       1 UNK         0.5000 
     66 O          -1.8843  -10.7389  -46.1202 O.2       1 UNK        -0.5000 
     67 C          -3.5940  -21.2220  -48.2133 C.2       11 UNK         0.5000 
     68 O          -4.3590  -21.7600  -49.0117 O.2       11 UNK        -0.5000 
     69 N          -4.0184  -20.5849  -47.1143 N.am      12 UNK        -0.5000 
     70 CA         -5.4238  -20.5125  -46.7162 C.3       12 UNK         0.1400 
     71 CB         -5.5881  -19.4750  -45.5948 C.3       12 UNK        -0.1800 
     72 C          -6.0019  -21.8784  -46.2925 C.2       12 UNK         0.5000 
     73 O          -7.1219  -22.2082  -46.6849 O.2       12 UNK        -0.5000 
     74 N          -5.2429  -22.6362  -45.4901 N.am      13 UNK        -0.5000 
     75 CA         -5.6833  -23.8962  -44.8931 C.3       13 UNK         0.1400 
     76 CB         -4.8818  -24.1519  -43.6067 C.3       13 UNK        -0.1800 
     77 C          -5.5734  -25.1052  -45.8388 C.2       13 UNK         0.5000 
     78 O          -6.5295  -25.8742  -45.9487 O.2       13 UNK        -0.5000 
     79 N          -4.4019  -25.2830  -46.4607 N.am      14 UNK        -0.5000 
     80 CA         -4.0196  -26.4948  -47.1896 C.3       14 UNK         0.1400 
     81 CB         -2.5922  -26.8831  -46.7706 C.3       14 UNK        -0.1800 
     82 C          -4.1090  -26.3365  -48.7172 C.2       14 UNK         0.5000 
     83 O          -4.0534  -27.3456  -49.4227 O.2       14 UNK        -0.5000 
     84 N          -4.2536  -25.0956  -49.2061 N.am      15 UNK        -0.5000 
     85 CA         -4.4272  -24.7255  -50.6129 C.3       15 UNK         0.1400 
     86 CB         -5.8395  -25.1262  -51.0948 C.3       15 UNK        -0.1800 
     87 C          -3.2837  -25.2484  -51.5057 C.2       15 UNK         0.5000 
     88 O          -2.1293  -24.8769  -51.2876 O.2       15 UNK        -0.5000 
     89 N          -3.6141  -26.0992  -52.4867 N.am      16 UNK        -0.5000 
     90 CA         -2.6999  -26.6814  -53.4722 C.3       16 UNK         0.1400 
     91 CB         -3.5138  -27.5265  -54.4631 C.3       16 UNK        -0.1800 
     92 C          -1.5486  -27.5124  -52.8732 C.2       16 UNK         0.5000 
     93 O          -0.5072  -27.6433  -53.5167 O.2       16 UNK        -0.5000 
     94 N          -1.7372  -28.0411  -51.6554 N.am      17 UNK        -0.5000 
     95 CA         -0.7001  -28.7523  -50.9070 C.3       17 UNK         0.1400 
     96 CB         -1.3540  -29.5773  -49.7901 C.3       17 UNK        -0.1800 
     97 C           0.3845  -27.8125  -50.3413 C.2       17 UNK         0.5000 
     98 O           1.5063  -28.2671  -50.1134 O.2       17 UNK        -0.5000 
     99 N           0.0478  -26.5300  -50.1408 N.am      18 UNK        -0.5000 
    100 CA         0.9935  -25.4787  -49.7724 C.3       18 UNK         0.1400 
    101 CB         0.3064  -24.4562  -48.8571 C.3       18 UNK        -0.1800 
    102 C          1.5598  -24.8126  -51.0355 C.2       18 UNK         0.5000 
    103 O          2.7787  -24.7912  -51.2108 O.2       18 UNK        -0.5000 
    104 N          0.6682  -24.3236  -51.9075 N.am      19 UNK        -0.5000 
    105 CA         0.9965  -23.7564  -53.2145 C.3       19 UNK         0.1400 
    106 CB         1.7273  -22.4032  -53.0899 C.3       19 UNK        -0.1800 
    107 C         -0.2785  -23.6166  -54.0525 C.2       19 UNK         0.5000 
    108 O         -0.3734  -24.2145  -55.1244 O.2       19 UNK        -0.5000 
    109 N         -1.2430  -22.8465  -53.5383 N.am      20 UNK        -0.5000 
    110 CA        -2.5412  -22.5757  -54.1451 C.3       20 UNK         0.1400 
    111 CB        -2.3835  -21.6193  -55.3435 C.3       20 UNK        -0.1800 
    112 C         -3.4523  -21.9492  -53.0826 C.2       20 UNK         0.5000 
    113 O         -2.9511  -21.3795  -52.1117 O.2       20 UNK        -0.5000 
    114 N         -4.7720  -22.0381  -53.2992 N.am      21 UNK        -0.5000 
    115 CA        -5.7846  -21.3653  -52.4757 C.3       21 UNK         0.1400 
    116 CB        -7.1760  -21.9167  -52.8261 C.3       21 UNK        -0.1800 
    117 C         -5.7687  -19.8340  -52.6524 C.2       21 UNK         0.5000 
    118 O         -6.1030  -19.1077  -51.7165 O.2       21 UNK        -0.5000 
    119 N         -5.3747  -19.3829  -53.8522 N.am      22 UNK        -0.5000 
    120 CA        -5.2293  -17.9741  -54.2521 C.3       22 UNK         0.1400 
    121 C         -6.5701  -17.1903  -54.4147 C.2       22 UNK         0.5000 
    122 N         -7.7167  -17.8548  -54.4950 N.am      22 UNK        -0.7600 
    123 O         -6.5777  -15.9654  -54.4995 O.2       22 UNK        -0.5000 
    124 C124       -4.1738  -17.2238  -53.3880 C.3       23 UNK        -0.0398 
    125 S125       -3.0927  -16.1460  -54.3890 S.3       23 UNK        -0.2404 
    126 C126       -1.4473  -16.8684  -54.0593 C.3       23 UNK        -0.0205 
    127 H127        3.4879   -9.9574  -48.7830 H         1 UNK         0.0600 
    128 H128        3.6920   -8.9402  -47.3531 H         1 UNK         0.0600 
    129 H129        4.2630  -10.6121  -47.3371 H         1 UNK         0.0600 
    130 H130        1.3971  -10.6929  -49.0177 H         1 UNK         0.3000 
    131 H131       -0.0191  -12.1476  -47.1055 H         1 UNK         0.0600 
    132 H132       -1.9495  -11.9811  -48.7288 H         1 UNK         0.0800 
    133 H133       -1.0664  -10.7903  -49.6419 H         1 UNK         0.0800 
    134 H134       -1.2455  -14.6155  -48.5891 H         1 UNK         0.0800 
    135 H135       -2.2669  -14.0523  -49.8912 H         1 UNK         0.0800 
    136 H136       -1.8356  -14.8172  -52.2544 H         1 UNK         0.1150 
    137 H137       -0.0673  -18.7141  -52.6091 H         1 UNK         0.1150 
    138 H138        0.1810  -16.5561  -48.9153 H         1 UNK         0.1150 
    139 H139        1.8539  -19.0340  -50.6164 H         1 UNK         0.0800 
    140 H140        1.1979  -18.6752  -49.0428 H         1 UNK         0.0800 
    141 H141       -1.3905  -19.2531  -48.5639 H         1 UNK         0.0800 
    142 H142       -2.2382  -19.7864  -49.9956 H         1 UNK         0.0800 
    143 H143       -1.9375  -22.2087  -49.0696 H         1 UNK         0.0600 
    144 H144       -0.6336  -20.8776  -46.9346 H         1 UNK         0.3000 
    145 H145       -1.2166  -23.4572  -44.4577 H         1 UNK         0.0600 
    146 H146        1.2470  -23.1589  -44.3220 H         1 UNK         0.0600 
    147 H147        0.7967  -24.0688  -45.7533 H         1 UNK         0.0600 
    148 H148        1.2594  -22.3800  -45.9022 H         1 UNK         0.0600 
    149 H149        0.0417  -20.9371  -44.1760 H         1 UNK         0.3000 
    150 H150       -2.8990  -19.0807  -43.2289 H         1 UNK         0.0600 
    151 H151       -2.0536  -20.1713  -41.1765 H         1 UNK         0.0600 
    152 H152       -1.3429  -18.5717  -41.3422 H         1 UNK         0.0600 
    153 H153       -0.3934  -20.0056  -41.7266 H         1 UNK         0.0600 
    154 H154       -0.1986  -18.2524  -43.5739 H         1 UNK         0.3000 
    155 H155       -0.3557  -17.5784  -47.0695 H         1 UNK         0.0600 
    156 H156       -1.2818  -15.5383  -46.0276 H         1 UNK         0.0600 
    157 H157       -0.2119  -15.7093  -44.6464 H         1 UNK         0.0600 
    158 H158        0.4523  -15.3586  -46.2432 H         1 UNK         0.0600 
    159 H159        1.6904  -17.3410  -45.0471 H         1 UNK         0.3000 
    160 H160        3.1202  -20.5762  -45.6434 H         1 UNK         0.0600 
    161 H161        4.0740  -17.7373  -46.3099 H         1 UNK         0.0600 
    162 H162        3.9831  -19.0759  -47.4484 H         1 UNK         0.0600 
    163 H163        5.0991  -19.1563  -46.0944 H         1 UNK         0.0600 
    164 H164        3.8721  -18.4092  -43.9318 H         1 UNK         0.3000 
    165 H165        1.8632  -19.2523  -41.1353 H         1 UNK         0.0600 
    166 H166        4.8750  -19.6842  -41.5151 H         1 UNK         0.0600 
    167 H167        4.0412  -19.4677  -39.9755 H         1 UNK         0.0600 
    168 H168        3.7359  -20.8987  -40.9463 H         1 UNK         0.0600 
    169 H169        3.9481  -17.3692  -41.3766 H         1 UNK         0.3000 
    170 H170        3.0281  -14.9978  -41.2591 H         1 UNK         0.0600 
    171 H171        4.7852  -15.8152  -42.8862 H         1 UNK         0.0600 
    172 H172        3.7068  -15.4757  -44.2353 H         1 UNK         0.0600 
    173 H173        4.3480  -14.1621  -43.2544 H         1 UNK         0.0600 
    174 H174        0.8795  -14.9470  -43.1087 H         1 UNK         0.3000 
    175 H175        0.3649  -12.8258  -44.3725 H         1 UNK         0.0600 
    176 H176       -1.7604  -12.3046  -43.1115 H         1 UNK         0.0600 
    177 H177       -1.1086  -13.8886  -42.7329 H         1 UNK         0.0600 
    178 H178       -0.9025  -12.5701  -41.5932 H         1 UNK         0.0600 
    179 H179        0.8734  -10.7022  -44.4210 H         1 UNK         0.3000 
    180 H180        0.3293   -7.9084  -42.3475 H         1 UNK         0.0600 
    181 H181        2.5279   -7.2959  -43.3341 H         1 UNK         0.0600 
    182 H182        2.7308   -8.4624  -42.0353 H         1 UNK         0.0600 
    183 H183        2.8551   -8.9879  -43.7091 H         1 UNK         0.0600 
    184 H184        0.8779   -8.6740  -45.1580 H         1 UNK         0.3000 
    185 H185       -2.4530   -8.0646  -46.2042 H         1 UNK         0.0600 
    186 H186       -1.3871   -6.4805  -47.7884 H         1 UNK         0.0600 
    187 H187       -1.5147   -5.7504  -46.1962 H         1 UNK         0.0600 
    188 H188        0.0377   -6.3618  -46.7549 H         1 UNK         0.0600 
    189 H189       -0.0051   -8.6814  -47.5885 H         1 UNK         0.3000 
    190 H190       -3.3440  -20.1130  -46.5195 H         1 UNK         0.3000 
    191 H191       -5.9980  -20.1642  -47.5775 H         1 UNK         0.0600 
    192 H192       -6.6338  -19.3814  -45.2997 H         1 UNK         0.0600 
    193 H193       -5.2513  -18.4898  -45.9181 H         1 UNK         0.0600 
    194 H194       -5.0190  -19.7459  -44.7056 H         1 UNK         0.0600 
    195 H195       -4.3497  -22.2705  -45.1721 H         1 UNK         0.3000 
    196 H196       -6.7330  -23.7958  -44.6082 H         1 UNK         0.0600 
    197 H197       -5.1942  -25.0805  -43.1272 H         1 UNK         0.0600 
    198 H198       -5.0292  -23.3478  -42.8855 H         1 UNK         0.0600 
    199 H199       -3.8119  -24.2276  -43.8061 H         1 UNK         0.0600 
    200 H200       -3.6712  -24.5772  -46.3712 H         1 UNK         0.3000 
    201 H201       -4.6805  -27.3182  -46.9113 H         1 UNK         0.0600 
    202 H202       -2.4924  -26.9147  -45.6856 H         1 UNK         0.0600 
    203 H203       -1.8526  -26.1809  -47.1545 H         1 UNK         0.0600 
    204 H204       -2.3310  -27.8722  -47.1436 H         1 UNK         0.0600 
    205 H205       -4.2452  -24.3265  -48.5500 H         1 UNK         0.3000 
    206 H206       -4.3600  -23.6412  -50.6684 H         1 UNK         0.0600 
    207 H207       -6.6047  -24.6125  -50.5124 H         1 UNK         0.0600 
    208 H208       -5.9956  -24.8529  -52.1383 H         1 UNK         0.0600 
    209 H209       -6.0203  -26.1976  -51.0017 H         1 UNK         0.0600 
    210 H210       -4.5817  -26.3774  -52.5628 H         1 UNK         0.3000 
    211 H211       -2.2475  -25.8579  -54.0246 H         1 UNK         0.0600 
    212 H212       -4.0211  -28.3530  -53.9638 H         1 UNK         0.0600 
    213 H213       -2.8706  -27.9534  -55.2339 H         1 UNK         0.0600 
    214 H214       -4.2682  -26.9244  -54.9699 H         1 UNK         0.0600 
    215 H215       -2.6166  -27.8804  -51.1790 H         1 UNK         0.3000 
    216 H216       -0.2031  -29.4487  -51.5859 H         1 UNK         0.0600 
    217 H217       -0.6056  -30.1280  -49.2189 H         1 UNK         0.0600 
    218 H218       -2.0543  -30.3066  -50.1975 H         1 UNK         0.0600 
    219 H219       -1.8997  -28.9444  -49.0933 H         1 UNK         0.0600 
    220 H220       -0.8796  -26.2205  -50.4078 H         1 UNK         0.3000 
    221 H221        1.8291  -25.9068  -49.2143 H         1 UNK         0.0600 
    222 H222       -0.5868  -24.0359  -49.3158 H         1 UNK         0.0600 
    223 H223        0.0101  -24.9180  -47.9166 H         1 UNK         0.0600 
    224 H224        0.9739  -23.6272  -48.6178 H         1 UNK         0.0600 
    225 H225       -0.3239  -24.4234  -51.7024 H         1 UNK         0.3000 
    226 H226        1.6536  -24.4580  -53.7328 H         1 UNK         0.0600 
    227 H227        2.6919  -22.5084  -52.5944 H         1 UNK         0.0600 
    228 H228        1.9192  -21.9741  -54.0740 H         1 UNK         0.0600 
    229 H229        1.1425  -21.6769  -52.5270 H         1 UNK         0.0600 
    230 H230       -1.1153  -22.4023  -52.6361 H         1 UNK         0.3000 
    231 H231       -2.9839  -23.5172  -54.4757 H         1 UNK         0.0600 
    232 H232       -3.3487  -21.3926  -55.7973 H         1 UNK         0.0600 
    233 H233       -1.7591  -22.0535  -56.1242 H         1 UNK         0.0600 
    234 H234       -1.9313  -20.6733  -55.0424 H         1 UNK         0.0600 
    235 H235       -5.1084  -22.5275  -54.1161 H         1 UNK         0.3000 
    236 H236       -5.5816  -21.5826  -51.4254 H         1 UNK         0.0600 
    237 H237       -7.4280  -21.7426  -53.8729 H         1 UNK         0.0600 
    238 H238       -7.2426  -22.9872  -52.6413 H         1 UNK         0.0600 
    239 H239       -7.9472  -21.4394  -52.2199 H         1 UNK         0.0600 
    240 H240       -5.1434  -20.0624  -54.5610 H         1 UNK         0.3000 
    241 H241       -4.8401  -18.0414  -55.2685 H         1 UNK         0.0600 
    242 H242       -8.5783  -17.3442  -54.6099 H         1 UNK         0.3800 
    243 H243       -7.7336  -18.8601  -54.4379 H         1 UNK         0.3800 
    244 H244       -3.5422  -17.9391  -52.8592 H         1 UNK         0.0800 
    245 H245       -4.6466  -16.6304  -52.6037 H         1 UNK         0.0800 
    246 H246       -1.4533  -17.9078  -54.3921 H         1 UNK         0.0800 
    247 H247       -0.7096  -16.3509  -54.6734 H         1 UNK         0.0800 
@<TRIPOS>BOND
     1    1    2 1    
     2    1  127 1    
     3    1  128 1    
     4    1  129 1    
     5    2    3 2    
     6    2    4 am   BACKBONE|DICT|INTERRES
     7    4    5 1    
     8    4  130 1    
     9    5    6 1    
    10    5   65 1    
    11    5  131 1    
    12    6    7 1    
    13    6  132 1    
    14    6  133 1    
    15    7    8 1    
    16    8    9 1    
    17    8  134 1    
    18    8  135 1    
    19    9   10 ar   
    20    9   14 ar   
    21   10   11 ar   
    22   10  136 1    
    23   11   12 ar   
    24   11  126 1    
    25   12   13 ar   
    26   12  137 1    
    27   13   14 ar   
    28   13   15 1    
    29   14  138 1    
    30   15   16 1    
    31   15  139 1    
    32   15  140 1    
    33   16   17 1    
    34   17   18 1    
    35   17  141 1    
    36   17  142 1    
    37   18   19 1    
    38   18   67 1    
    39   18  143 1    
    40   19   20 am   BACKBONE|DICT|INTERRES
    41   19  144 1    
    42   20   21 2    
    43   20   22 1    
    44   22   23 1    
    45   22   24 1    
    46   22  145 1    
    47   23  146 1    
    48   23  147 1    
    49   23  148 1    
    50   24   25 am   BACKBONE|DICT|INTERRES
    51   24  149 1    
    52   25   26 2    
    53   25   27 1    
    54   27   28 1    
    55   27   29 1    
    56   27  150 1    
    57   28  151 1    
    58   28  152 1    
    59   28  153 1    
    60   29   30 am   BACKBONE|DICT|INTERRES
    61   29  154 1    
    62   30   31 2    
    63   30   32 1    
    64   32   33 1    
    65   32   34 1    
    66   32  155 1    
    67   33  156 1    
    68   33  157 1    
    69   33  158 1    
    70   34   35 am   BACKBONE|DICT|INTERRES
    71   34  159 1    
    72   35   36 2    
    73   35   37 1    
    74   37   38 1    
    75   37   39 1    
    76   37  160 1    
    77   38  161 1    
    78   38  162 1    
    79   38  163 1    
    80   39   40 am   BACKBONE|DICT|INTERRES
    81   39  164 1    
    82   40   41 2    
    83   40   42 1    
    84   42   43 1    
    85   42   44 1    
    86   42  165 1    
    87   43  166 1    
    88   43  167 1    
    89   43  168 1    
    90   44   45 am   BACKBONE|DICT|INTERRES
    91   44  169 1    
    92   45   46 2    
    93   45   47 1    
    94   47   48 1    
    95   47   49 1    
    96   47  170 1    
    97   48  171 1    
    98   48  172 1    
    99   48  173 1    
   100   49   50 am   BACKBONE|DICT|INTERRES
   101   49  174 1    
   102   50   51 2    
   103   50   52 1    
   104   52   53 1    
   105   52   54 1    
   106   52  175 1    
   107   53  176 1    
   108   53  177 1    
   109   53  178 1    
   110   54   55 am   BACKBONE|DICT|INTERRES
   111   54  179 1    
   112   55   56 2    
   113   55   57 1    
   114   57   58 1    
   115   57   59 1    
   116   57  180 1    
   117   58  181 1    
   118   58  182 1    
   119   58  183 1    
   120   59   60 am   BACKBONE|DICT|INTERRES
   121   59  184 1    
   122   60   61 2    
   123   60   62 1    
   124   62   63 1    
   125   62   64 1    
   126   62  185 1    
   127   63  186 1    
   128   63  187 1    
   129   63  188 1    
   130   64   65 am   BACKBONE|DICT|INTERRES
   131   64  189 1    
   132   65   66 2    
   133   67   68 2    
   134   67   69 am   BACKBONE|DICT|INTERRES
   135   69   70 1    
   136   69  190 1    
   137   70   71 1    
   138   70   72 1    
   139   70  191 1    
   140   71  192 1    
   141   71  193 1    
   142   71  194 1    
   143   72   73 2    
   144   72   74 am   BACKBONE|DICT|INTERRES
   145   74   75 1    
   146   74  195 1    
   147   75   76 1    
   148   75   77 1    
   149   75  196 1    
   150   76  197 1    
   151   76  198 1    
   152   76  199 1    
   153   77   78 2    
   154   77   79 am   BACKBONE|DICT|INTERRES
   155   79   80 1    
   156   79  200 1    
   157   80   81 1    
   158   80   82 1    
   159   80  201 1    
   160   81  202 1    
   161   81  203 1    
   162   81  204 1    
   163   82   83 2    
   164   82   84 am   BACKBONE|DICT|INTERRES
   165   84   85 1    
   166   84  205 1    
   167   85   86 1    
   168   85   87 1    
   169   85  206 1    
   170   86  207 1    
   171   86  208 1    
   172   86  209 1    
   173   87   88 2    
   174   87   89 am   BACKBONE|DICT|INTERRES
   175   89   90 1    
   176   89  210 1    
   177   90   91 1    
   178   90   92 1    
   179   90  211 1    
   180   91  212 1    
   181   91  213 1    
   182   91  214 1    
   183   92   93 2    
   184   92   94 am   BACKBONE|DICT|INTERRES
   185   94   95 1    
   186   94  215 1    
   187   95   96 1    
   188   95   97 1    
   189   95  216 1    
   190   96  217 1    
   191   96  218 1    
   192   96  219 1    
   193   97   98 2    
   194   97   99 am   BACKBONE|DICT|INTERRES
   195   99  100 1    
   196   99  220 1    
   197  100  101 1    
   198  100  102 1    
   199  100  221 1    
   200  101  222 1    
   201  101  223 1    
   202  101  224 1    
   203  102  103 2    
   204  102  104 am   BACKBONE|DICT|INTERRES
   205  104  105 1    
   206  104  225 1    
   207  105  106 1    
   208  105  107 1    
   209  105  226 1    
   210  106  227 1    
   211  106  228 1    
   212  106  229 1    
   213  107  108 2    
   214  107  109 am   BACKBONE|DICT|INTERRES
   215  109  110 1    
   216  109  230 1    
   217  110  111 1    
   218  110  112 1    
   219  110  231 1    
   220  111  232 1    
   221  111  233 1    
   222  111  234 1    
   223  112  113 2    
   224  112  114 am   BACKBONE|DICT|INTERRES
   225  114  115 1    
   226  114  235 1    
   227  115  116 1    
   228  115  117 1    
   229  115  236 1    
   230  116  237 1    
   231  116  238 1    
   232  116  239 1    
   233  117  118 2    
   234  117  119 am   BACKBONE|DICT|INTERRES
   235  119  120 1    
   236  119  240 1    
   237  120  121 1    
   238  120  124 1    
   239  120  241 1    
   240  121  122 am   BACKBONE|DICT|INTERRES
   241  121  123 2    
   242  122  242 1    
   243  122  243 1    
   244  124  125 1    
   245  124  244 1    
   246  124  245 1    
   247  125  126 1    
   248  126  246 1    
   249  126  247 1    
@<TRIPOS>SUBSTRUCTURE
     1 UNK         1 GROUP             0       ****    0 ROOT    
