@<TRIPOS>MOLECULE
3R540
247   249    1
SMALL
USER_CHARGES


@<TRIPOS>ATOM
      1 CA          3.4788  -15.9552  -47.1364 C.3       0 UNK        -0.1800 
      2 C           3.4500  -14.6149  -46.4166 C.2       0 UNK         0.5000 
      3 O           4.1711  -14.4248  -45.4385 O.2       0 UNK        -0.5000 
      4 N           2.6352  -13.6772  -46.9161 N.am      1 UNK        -0.5000 
      5 CA          2.3821  -12.3418  -46.3492 C.3       1 UNK         0.1400 
      6 C6          1.3206  -11.5645  -47.1670 C.3       23 UNK        -0.0398 
      7 S7         -0.2586  -12.4676  -47.2780 S.3       23 UNK        -0.2404 
      8 C8         -0.2257  -13.1053  -48.9879 C.3       23 UNK        -0.0205 
      9 C9         -0.9833  -14.4215  -49.1139 C.ar      23 UNK        -0.0193 
     10 C10        -2.3082  -14.5166  -48.6765 C.ar      23 UNK        -0.1150 
     11 C11        -3.0067  -15.7232  -48.7545 C.ar      23 UNK        -0.0193 
     12 C12        -2.3573  -16.8482  -49.2761 C.ar      23 UNK        -0.1150 
     13 C13        -1.0549  -16.7576  -49.7742 C.ar      23 UNK        -0.0193 
     14 C14        -0.3683  -15.5431  -49.6810 C.ar      23 UNK        -0.1150 
     15 C15        -0.4177  -17.9678  -50.4474 C.3       23 UNK        -0.0205 
     16 S16         1.0899  -18.5737  -49.6204 S.3       23 UNK        -0.2404 
     17 C17         0.5528  -18.7802  -47.8921 C.3       23 UNK        -0.0398 
     18 CA          0.0395  -20.1986  -47.5372 C.3       11 UNK         0.1400 
     19 N           0.2108  -20.4718  -46.1065 N.am      11 UNK        -0.5000 
     20 C          -0.0457  -21.6291  -45.4831 C.2       10 UNK         0.5000 
     21 O          -0.4111  -22.6495  -46.0623 O.2       10 UNK        -0.5000 
     22 CA          0.0686  -21.6289  -43.9458 C.3       10 UNK         0.1400 
     23 CB          1.5240  -21.8211  -43.4947 C.3       10 UNK        -0.1800 
     24 N          -0.4828  -20.4103  -43.3484 N.am      10 UNK        -0.5000 
     25 C          -1.7814  -20.0779  -43.3913 C.2       9 UNK         0.5000 
     26 O          -2.6521  -20.8057  -43.8687 O.2       9 UNK        -0.5000 
     27 CA         -2.1656  -18.6804  -42.8679 C.3       9 UNK         0.1400 
     28 CB         -2.3210  -18.6842  -41.3402 C.3       9 UNK        -0.1800 
     29 N          -1.2083  -17.6471  -43.2676 N.am      9 UNK        -0.5000 
     30 C          -0.9822  -17.2800  -44.5371 C.2       8 UNK         0.5000 
     31 O          -1.6061  -17.7337  -45.4943 O.2       8 UNK        -0.5000 
     32 CA          0.1659  -16.2841  -44.7870 C.3       8 UNK         0.1400 
     33 CB         -0.3158  -14.8453  -44.5678 C.3       8 UNK        -0.1800 
     34 N           1.3404  -16.5518  -43.9526 N.am      8 UNK        -0.5000 
     35 C           2.0594  -17.6829  -43.9960 C.2       7 UNK         0.5000 
     36 O           1.8470  -18.5887  -44.7976 O.2       7 UNK        -0.5000 
     37 CA          3.1544  -17.8719  -42.9334 C.3       7 UNK         0.1400 
     38 CB          4.4675  -17.1938  -43.3444 C.3       7 UNK        -0.1800 
     39 N           2.7254  -17.3810  -41.6267 N.am      7 UNK        -0.5000 
     40 C           1.7910  -17.9764  -40.8726 C.2       6 UNK         0.5000 
     41 O           1.2473  -19.0396  -41.1729 O.2       6 UNK        -0.5000 
     42 CA          1.3643  -17.2306  -39.5946 C.3       6 UNK         0.1400 
     43 CB          2.3096  -17.5654  -38.4314 C.3       6 UNK        -0.1800 
     44 N           1.3270  -15.7788  -39.7867 N.am      6 UNK        -0.5000 
     45 C           0.4478  -15.1434  -40.5753 C.2       5 UNK         0.5000 
     46 O          -0.4686  -15.7142  -41.1653 O.2       5 UNK        -0.5000 
     47 CA          0.6611  -13.6292  -40.7771 C.3       5 UNK         0.1400 
     48 CB         -0.0793  -12.8306  -39.6945 C.3       5 UNK        -0.1800 
     49 N           2.0785  -13.2518  -40.7782 N.am      5 UNK        -0.5000 
     50 C           2.9585  -13.6320  -41.7138 C.2       4 UNK         0.5000 
     51 O           2.6491  -14.2864  -42.7101 O.2       4 UNK        -0.5000 
     52 CA          4.4312  -13.3060  -41.4339 C.3       4 UNK         0.1400 
     53 CB          4.9684  -14.2642  -40.3472 C.3       4 UNK        -0.1800 
     54 N           5.2297  -13.4293  -42.6550 N.am      4 UNK        -0.5000 
     55 C           6.5067  -13.0364  -42.7667 C.2       3 UNK         0.5000 
     56 O           7.1187  -12.4443  -41.8763 O.2       3 UNK        -0.5000 
     57 CA          7.2313  -13.3481  -44.0844 C.3       3 UNK         0.1400 
     58 CB          7.3863  -14.8625  -44.3020 C.3       3 UNK        -0.1800 
     59 N           6.5335  -12.7528  -45.2188 N.am      3 UNK        -0.5000 
     60 C           6.8217  -11.5522  -45.7411 C.2       2 UNK         0.5000 
     61 O           7.7259  -10.8261  -45.3252 O.2       2 UNK        -0.5000 
     62 CA          5.9764  -11.0752  -46.9400 C.3       2 UNK         0.1400 
     63 CB          6.7264  -11.3242  -48.2578 C.3       2 UNK        -0.1800 
     64 N           4.6653  -11.7177  -47.0166 N.am      2 UNK        -0.5000 
     65 C           3.6482  -11.4758  -46.1790 C.2       1 UNK         0.5000 
     66 O           3.6837  -10.6217  -45.2923 O.2       1 UNK        -0.5000 
     67 C          -1.4228  -20.4061  -47.9924 C.2       11 UNK         0.5000 
     68 O          -1.6577  -21.0240  -49.0308 O.2       11 UNK        -0.5000 
     69 N          -2.3768  -19.9176  -47.1867 N.am      12 UNK        -0.5000 
     70 CA         -3.8150  -20.0916  -47.3855 C.3       12 UNK         0.1400 
     71 CB         -4.5780  -19.2118  -46.3845 C.3       12 UNK        -0.1800 
     72 C          -4.2622  -21.5590  -47.2587 C.2       12 UNK         0.5000 
     73 O          -5.0927  -22.0102  -48.0473 O.2       12 UNK        -0.5000 
     74 N          -3.7018  -22.2764  -46.2744 N.am      13 UNK        -0.5000 
     75 CA         -3.9584  -23.6975  -46.0358 C.3       13 UNK         0.1400 
     76 CB         -3.3997  -24.0933  -44.6608 C.3       13 UNK        -0.1800 
     77 C          -3.3853  -24.6061  -47.1401 C.2       13 UNK         0.5000 
     78 O          -4.0012  -25.6203  -47.4718 O.2       13 UNK        -0.5000 
     79 N          -2.2337  -24.2220  -47.7060 N.am      14 UNK        -0.5000 
     80 CA         -1.5235  -24.9078  -48.7871 C.3       14 UNK         0.1400 
     81 CB         -0.0503  -24.4608  -48.7702 C.3       14 UNK        -0.1800 
     82 C          -2.1860  -24.7124  -50.1698 C.2       14 UNK         0.5000 
     83 O          -1.5263  -24.2954  -51.1243 O.2       14 UNK        -0.5000 
     84 N          -3.4817  -25.0308  -50.2613 N.am      15 UNK        -0.5000 
     85 CA         -4.2444  -25.0752  -51.5052 C.3       15 UNK         0.1400 
     86 CB         -5.7439  -25.1102  -51.1714 C.3       15 UNK        -0.1800 
     87 C          -3.8468  -26.2984  -52.3500 C.2       15 UNK         0.5000 
     88 O          -3.5540  -27.3650  -51.8033 O.2       15 UNK        -0.5000 
     89 N          -3.8953  -26.1376  -53.6737 N.am      16 UNK        -0.5000 
     90 CA         -3.5919  -27.1588  -54.6733 C.3       16 UNK         0.1400 
     91 CB         -3.0070  -26.4636  -55.9169 C.3       16 UNK        -0.1800 
     92 C          -4.8478  -27.9945  -54.9902 C.2       16 UNK         0.5000 
     93 O          -5.2784  -28.0454  -56.1425 O.2       16 UNK        -0.5000 
     94 N          -5.4226  -28.6106  -53.9458 N.am      17 UNK        -0.5000 
     95 CA         -6.6628  -29.3960  -53.9475 C.3       17 UNK         0.1400 
     96 CB         -6.4992  -30.6867  -54.7781 C.3       17 UNK        -0.1800 
     97 C          -7.8759  -28.5440  -54.3763 C.2       17 UNK         0.5000 
     98 O          -8.4881  -28.8044  -55.4137 O.2       17 UNK        -0.5000 
     99 N          -8.1731  -27.5215  -53.5592 N.am      18 UNK        -0.5000 
    100 CA        -9.2272  -26.5140  -53.7464 C.3       18 UNK         0.1400 
    101 CB       -10.6307  -27.1573  -53.7394 C.3       18 UNK        -0.1800 
    102 C         -8.9747  -25.6050  -54.9692 C.2       18 UNK         0.5000 
    103 O         -9.9038  -25.2643  -55.7037 O.2       18 UNK        -0.5000 
    104 N         -7.7093  -25.2162  -55.1454 N.am      19 UNK        -0.5000 
    105 CA        -7.2125  -24.2843  -56.1508 C.3       19 UNK         0.1400 
    106 CB        -6.9209  -25.0369  -57.4612 C.3       19 UNK        -0.1800 
    107 C         -5.9504  -23.6118  -55.5885 C.2       19 UNK         0.5000 
    108 O         -5.4612  -24.0243  -54.5328 O.2       19 UNK        -0.5000 
    109 N         -5.4354  -22.6008  -56.2993 N.am      20 UNK        -0.5000 
    110 CA        -4.2844  -21.7747  -55.9157 C.3       20 UNK         0.1400 
    111 CB        -2.9817  -22.6101  -55.9061 C.3       20 UNK        -0.1800 
    112 C         -4.5654  -21.0044  -54.6058 C.2       20 UNK         0.5000 
    113 O         -5.5871  -20.3184  -54.5369 O.2       20 UNK        -0.5000 
    114 N         -3.6780  -21.1294  -53.6073 N.am      21 UNK        -0.5000 
    115 CA        -3.7232  -20.4659  -52.3004 C.3       21 UNK         0.1400 
    116 CB        -4.9150  -20.9806  -51.4602 C.3       21 UNK        -0.1800 
    117 C         -3.6529  -18.9291  -52.4419 C.2       21 UNK         0.5000 
    118 O         -2.7241  -18.4334  -53.0829 O.2       21 UNK        -0.5000 
    119 N         -4.5962  -18.2082  -51.8258 N.am      22 UNK        -0.5000 
    120 CA        -4.6782  -16.7405  -51.8178 C.3       22 UNK         0.1400 
    121 C         -4.9892  -16.1433  -53.2178 C.2       22 UNK         0.5000 
    122 N         -4.3051  -15.0784  -53.6144 N.am      22 UNK        -0.7600 
    123 O         -5.8805  -16.6055  -53.9259 O.2       22 UNK        -0.5000 
    124 C124       -5.7015  -16.2244  -50.7706 C.3       23 UNK        -0.0398 
    125 S125       -5.5213  -16.9765  -49.1133 S.3       23 UNK        -0.2404 
    126 C126       -4.4486  -15.7748  -48.2515 C.3       23 UNK        -0.0205 
    127 H127        3.4365  -16.7722  -46.4181 H         1 UNK         0.0600 
    128 H128        4.4022  -16.0532  -47.7067 H         1 UNK         0.0600 
    129 H129        2.6373  -16.0650  -47.8212 H         1 UNK         0.0600 
    130 H130        2.0674  -13.9100  -47.7165 H         1 UNK         0.3000 
    131 H131        1.9891  -12.4974  -45.3429 H         1 UNK         0.0600 
    132 H132        1.1092  -10.6029  -46.6954 H         1 UNK         0.0800 
    133 H133        1.6876  -11.3344  -48.1688 H         1 UNK         0.0800 
    134 H134        0.8061  -13.2340  -49.3167 H         1 UNK         0.0800 
    135 H135       -0.6730  -12.3667  -49.6544 H         1 UNK         0.0800 
    136 H136       -2.7922  -13.6452  -48.2580 H         1 UNK         0.1150 
    137 H137       -2.8794  -17.7917  -49.3340 H         1 UNK         0.1150 
    138 H138        0.6441  -15.4764  -50.0539 H         1 UNK         0.1150 
    139 H139       -1.1313  -18.7890  -50.5205 H         1 UNK         0.0800 
    140 H140       -0.1680  -17.7022  -51.4754 H         1 UNK         0.0800 
    141 H141       -0.1658  -18.0097  -47.6170 H         1 UNK         0.0800 
    142 H142        1.4429  -18.5598  -47.3042 H         1 UNK         0.0800 
    143 H143        0.6547  -20.9307  -48.0642 H         1 UNK         0.0600 
    144 H144        0.5809  -19.7063  -45.5481 H         1 UNK         0.3000 
    145 H145       -0.5113  -22.4748  -43.5710 H         1 UNK         0.0600 
    146 H146        1.5982  -21.8549  -42.4075 H         1 UNK         0.0600 
    147 H147        1.9281  -22.7584  -43.8787 H         1 UNK         0.0600 
    148 H148        2.1702  -21.0184  -43.8481 H         1 UNK         0.0600 
    149 H149        0.1711  -19.7769  -42.9035 H         1 UNK         0.3000 
    150 H150       -3.1328  -18.4207  -43.3033 H         1 UNK         0.0600 
    151 H151       -3.0675  -19.4151  -41.0272 H         1 UNK         0.0600 
    152 H152       -2.6457  -17.7096  -40.9751 H         1 UNK         0.0600 
    153 H153       -1.3872  -18.9345  -40.8378 H         1 UNK         0.0600 
    154 H154       -0.7047  -17.1724  -42.5254 H         1 UNK         0.3000 
    155 H155        0.4748  -16.3797  -45.8297 H         1 UNK         0.0600 
    156 H156       -0.7126  -14.6952  -43.5651 H         1 UNK         0.0600 
    157 H157       -1.1106  -14.5953  -45.2715 H         1 UNK         0.0600 
    158 H158        0.4926  -14.1323  -44.7172 H         1 UNK         0.0600 
    159 H159        1.6357  -15.8111  -43.3234 H         1 UNK         0.3000 
    160 H160        3.3482  -18.9433  -42.8478 H         1 UNK         0.0600 
    161 H161        4.3589  -16.1135  -43.4078 H         1 UNK         0.0600 
    162 H162        4.8017  -17.5469  -44.3207 H         1 UNK         0.0600 
    163 H163        5.2631  -17.4073  -42.6306 H         1 UNK         0.0600 
    164 H164        3.0894  -16.4878  -41.3344 H         1 UNK         0.3000 
    165 H165        0.3600  -17.5684  -39.3296 H         1 UNK         0.0600 
    166 H166        1.9758  -17.0972  -37.5052 H         1 UNK         0.0600 
    167 H167        2.3452  -18.6414  -38.2558 H         1 UNK         0.0600 
    168 H168        3.3288  -17.2309  -38.6291 H         1 UNK         0.0600 
    169 H169        2.0385  -15.2365  -39.3205 H         1 UNK         0.3000 
    170 H170        0.2390  -13.3601  -41.7474 H         1 UNK         0.0600 
    171 H171       -1.1420  -13.0770  -39.6869 H         1 UNK         0.0600 
    172 H172        0.3133  -13.0392  -38.6986 H         1 UNK         0.0600 
    173 H173        0.0027  -11.7579  -39.8706 H         1 UNK         0.0600 
    174 H174        2.4026  -12.7168  -39.9851 H         1 UNK         0.3000 
    175 H175        4.4886  -12.2750  -41.0792 H         1 UNK         0.0600 
    176 H176        4.9866  -15.2968  -40.6976 H         1 UNK         0.0600 
    177 H177        5.9810  -14.0020  -40.0420 H         1 UNK         0.0600 
    178 H178        4.3554  -14.2331  -39.4459 H         1 UNK         0.0600 
    179 H179        4.7536  -13.8628  -43.4424 H         1 UNK         0.3000 
    180 H180        8.2390  -12.9329  -44.0117 H         1 UNK         0.0600 
    181 H181        6.4276  -15.3573  -44.4480 H         1 UNK         0.0600 
    182 H182        7.8713  -15.3329  -43.4458 H         1 UNK         0.0600 
    183 H183        8.0009  -15.0696  -45.1780 H         1 UNK         0.0600 
    184 H184        5.7265  -13.2648  -45.5618 H         1 UNK         0.3000 
    185 H185        5.8269   -9.9990  -46.8304 H         1 UNK         0.0600 
    186 H186        7.7005  -10.8333  -48.2520 H         1 UNK         0.0600 
    187 H187        6.8961  -12.3880  -48.4293 H         1 UNK         0.0600 
    188 H188        6.1709  -10.9301  -49.1090 H         1 UNK         0.0600 
    189 H189        4.5529  -12.4424  -47.7103 H         1 UNK         0.3000 
    190 H190       -2.0958  -19.3516  -46.3903 H         1 UNK         0.3000 
    191 H191       -4.0537  -19.7479  -48.3929 H         1 UNK         0.0600 
    192 H192       -4.4508  -19.5562  -45.3586 H         1 UNK         0.0600 
    193 H193       -5.6466  -19.2141  -46.6016 H         1 UNK         0.0600 
    194 H194       -4.2372  -18.1790  -46.4283 H         1 UNK         0.0600 
    195 H195       -3.0724  -21.8104  -45.6296 H         1 UNK         0.3000 
    196 H196       -5.0402  -23.8447  -46.0156 H         1 UNK         0.0600 
    197 H197       -3.6165  -25.1386  -44.4378 H         1 UNK         0.0600 
    198 H198       -3.8429  -23.4919  -43.8669 H         1 UNK         0.0600 
    199 H199       -2.3182  -23.9652  -44.6128 H         1 UNK         0.0600 
    200 H200       -1.7759  -23.3969  -47.3325 H         1 UNK         0.3000 
    201 H201       -1.5417  -25.9797  -48.5800 H         1 UNK         0.0600 
    202 H202        0.4158  -24.6763  -47.8087 H         1 UNK         0.0600 
    203 H203        0.0444  -23.3900  -48.9553 H         1 UNK         0.0600 
    204 H204        0.5295  -24.9817  -49.5331 H         1 UNK         0.0600 
    205 H205       -3.9382  -25.3835  -49.4264 H         1 UNK         0.3000 
    206 H206       -4.0327  -24.1689  -52.0765 H         1 UNK         0.0600 
    207 H207       -6.0105  -26.0052  -50.6078 H         1 UNK         0.0600 
    208 H208       -6.3475  -25.0978  -52.0794 H         1 UNK         0.0600 
    209 H209       -6.0346  -24.2426  -50.5784 H         1 UNK         0.0600 
    210 H210       -4.2712  -25.2618  -54.0341 H         1 UNK         0.3000 
    211 H211       -2.8329  -27.8405  -54.2840 H         1 UNK         0.0600 
    212 H212       -3.7174  -25.7655  -56.3613 H         1 UNK         0.0600 
    213 H213       -2.7366  -27.1917  -56.6825 H         1 UNK         0.0600 
    214 H214       -2.1042  -25.9060  -55.6672 H         1 UNK         0.0600 
    215 H215       -4.9774  -28.4898  -53.0432 H         1 UNK         0.3000 
    216 H216       -6.8419  -29.6978  -52.9143 H         1 UNK         0.0600 
    217 H217       -7.3905  -31.3106  -54.7037 H         1 UNK         0.0600 
    218 H218       -5.6572  -31.2798  -54.4215 H         1 UNK         0.0600 
    219 H219       -6.3368  -30.4778  -55.8358 H         1 UNK         0.0600 
    220 H220       -7.6039  -27.4018  -52.7337 H         1 UNK         0.3000 
    221 H221       -9.1724  -25.8587  -52.8758 H         1 UNK         0.0600 
    222 H222      -10.8024  -27.7742  -54.6217 H         1 UNK         0.0600 
    223 H223      -10.7734  -27.7832  -52.8586 H         1 UNK         0.0600 
    224 H224      -11.4085  -26.3931  -53.7223 H         1 UNK         0.0600 
    225 H225       -7.0082  -25.4926  -54.4714 H         1 UNK         0.3000 
    226 H226       -7.9596  -23.5080  -56.3281 H         1 UNK         0.0600 
    227 H227       -7.8113  -25.5449  -57.8320 H         1 UNK         0.0600 
    228 H228       -6.5888  -24.3549  -58.2443 H         1 UNK         0.0600 
    229 H229       -6.1418  -25.7874  -57.3273 H         1 UNK         0.0600 
    230 H230       -5.9150  -22.3098  -57.1394 H         1 UNK         0.3000 
    231 H231       -4.1792  -21.0169  -56.6934 H         1 UNK         0.0600 
    232 H232       -2.8456  -23.1270  -56.8561 H         1 UNK         0.0600 
    233 H233       -2.9742  -23.3648  -55.1193 H         1 UNK         0.0600 
    234 H234       -2.1080  -21.9731  -55.7637 H         1 UNK         0.0600 
    235 H235       -2.8610  -21.6986  -53.7744 H         1 UNK         0.3000 
    236 H236       -2.8114  -20.7587  -51.7771 H         1 UNK         0.0600 
    237 H237       -5.8777  -20.7368  -51.9098 H         1 UNK         0.0600 
    238 H238       -4.8707  -22.0624  -51.3443 H         1 UNK         0.0600 
    239 H239       -4.9011  -20.5590  -50.4556 H         1 UNK         0.0600 
    240 H240       -5.3381  -18.6909  -51.3419 H         1 UNK         0.3000 
    241 H241       -3.6938  -16.3732  -51.5286 H         1 UNK         0.0600 
    242 H242       -3.5738  -14.6772  -53.0478 H         1 UNK         0.3800 
    243 H243       -4.5113  -14.6717  -54.5138 H         1 UNK         0.3800 
    244 H244       -5.6335  -15.1391  -50.6785 H         1 UNK         0.0800 
    245 H245       -6.7189  -16.4328  -51.1067 H         1 UNK         0.0800 
    246 H246       -4.4292  -16.0176  -47.1894 H         1 UNK         0.0800 
    247 H247       -4.9094  -14.7886  -48.3266 H         1 UNK         0.0800 
@<TRIPOS>BOND
     1    1    2 1    
     2    1  127 1    
     3    1  128 1    
     4    1  129 1    
     5    2    3 2    
     6    2    4 am   BACKBONE|DICT|INTERRES
     7    4    5 1    
     8    4  130 1    
     9    5    6 1    
    10    5   65 1    
    11    5  131 1    
    12    6    7 1    
    13    6  132 1    
    14    6  133 1    
    15    7    8 1    
    16    8    9 1    
    17    8  134 1    
    18    8  135 1    
    19    9   10 ar   
    20    9   14 ar   
    21   10   11 ar   
    22   10  136 1    
    23   11   12 ar   
    24   11  126 1    
    25   12   13 ar   
    26   12  137 1    
    27   13   14 ar   
    28   13   15 1    
    29   14  138 1    
    30   15   16 1    
    31   15  139 1    
    32   15  140 1    
    33   16   17 1    
    34   17   18 1    
    35   17  141 1    
    36   17  142 1    
    37   18   19 1    
    38   18   67 1    
    39   18  143 1    
    40   19   20 am   BACKBONE|DICT|INTERRES
    41   19  144 1    
    42   20   21 2    
    43   20   22 1    
    44   22   23 1    
    45   22   24 1    
    46   22  145 1    
    47   23  146 1    
    48   23  147 1    
    49   23  148 1    
    50   24   25 am   BACKBONE|DICT|INTERRES
    51   24  149 1    
    52   25   26 2    
    53   25   27 1    
    54   27   28 1    
    55   27   29 1    
    56   27  150 1    
    57   28  151 1    
    58   28  152 1    
    59   28  153 1    
    60   29   30 am   BACKBONE|DICT|INTERRES
    61   29  154 1    
    62   30   31 2    
    63   30   32 1    
    64   32   33 1    
    65   32   34 1    
    66   32  155 1    
    67   33  156 1    
    68   33  157 1    
    69   33  158 1    
    70   34   35 am   BACKBONE|DICT|INTERRES
    71   34  159 1    
    72   35   36 2    
    73   35   37 1    
    74   37   38 1    
    75   37   39 1    
    76   37  160 1    
    77   38  161 1    
    78   38  162 1    
    79   38  163 1    
    80   39   40 am   BACKBONE|DICT|INTERRES
    81   39  164 1    
    82   40   41 2    
    83   40   42 1    
    84   42   43 1    
    85   42   44 1    
    86   42  165 1    
    87   43  166 1    
    88   43  167 1    
    89   43  168 1    
    90   44   45 am   BACKBONE|DICT|INTERRES
    91   44  169 1    
    92   45   46 2    
    93   45   47 1    
    94   47   48 1    
    95   47   49 1    
    96   47  170 1    
    97   48  171 1    
    98   48  172 1    
    99   48  173 1    
   100   49   50 am   BACKBONE|DICT|INTERRES
   101   49  174 1    
   102   50   51 2    
   103   50   52 1    
   104   52   53 1    
   105   52   54 1    
   106   52  175 1    
   107   53  176 1    
   108   53  177 1    
   109   53  178 1    
   110   54   55 am   BACKBONE|DICT|INTERRES
   111   54  179 1    
   112   55   56 2    
   113   55   57 1    
   114   57   58 1    
   115   57   59 1    
   116   57  180 1    
   117   58  181 1    
   118   58  182 1    
   119   58  183 1    
   120   59   60 am   BACKBONE|DICT|INTERRES
   121   59  184 1    
   122   60   61 2    
   123   60   62 1    
   124   62   63 1    
   125   62   64 1    
   126   62  185 1    
   127   63  186 1    
   128   63  187 1    
   129   63  188 1    
   130   64   65 am   BACKBONE|DICT|INTERRES
   131   64  189 1    
   132   65   66 2    
   133   67   68 2    
   134   67   69 am   BACKBONE|DICT|INTERRES
   135   69   70 1    
   136   69  190 1    
   137   70   71 1    
   138   70   72 1    
   139   70  191 1    
   140   71  192 1    
   141   71  193 1    
   142   71  194 1    
   143   72   73 2    
   144   72   74 am   BACKBONE|DICT|INTERRES
   145   74   75 1    
   146   74  195 1    
   147   75   76 1    
   148   75   77 1    
   149   75  196 1    
   150   76  197 1    
   151   76  198 1    
   152   76  199 1    
   153   77   78 2    
   154   77   79 am   BACKBONE|DICT|INTERRES
   155   79   80 1    
   156   79  200 1    
   157   80   81 1    
   158   80   82 1    
   159   80  201 1    
   160   81  202 1    
   161   81  203 1    
   162   81  204 1    
   163   82   83 2    
   164   82   84 am   BACKBONE|DICT|INTERRES
   165   84   85 1    
   166   84  205 1    
   167   85   86 1    
   168   85   87 1    
   169   85  206 1    
   170   86  207 1    
   171   86  208 1    
   172   86  209 1    
   173   87   88 2    
   174   87   89 am   BACKBONE|DICT|INTERRES
   175   89   90 1    
   176   89  210 1    
   177   90   91 1    
   178   90   92 1    
   179   90  211 1    
   180   91  212 1    
   181   91  213 1    
   182   91  214 1    
   183   92   93 2    
   184   92   94 am   BACKBONE|DICT|INTERRES
   185   94   95 1    
   186   94  215 1    
   187   95   96 1    
   188   95   97 1    
   189   95  216 1    
   190   96  217 1    
   191   96  218 1    
   192   96  219 1    
   193   97   98 2    
   194   97   99 am   BACKBONE|DICT|INTERRES
   195   99  100 1    
   196   99  220 1    
   197  100  101 1    
   198  100  102 1    
   199  100  221 1    
   200  101  222 1    
   201  101  223 1    
   202  101  224 1    
   203  102  103 2    
   204  102  104 am   BACKBONE|DICT|INTERRES
   205  104  105 1    
   206  104  225 1    
   207  105  106 1    
   208  105  107 1    
   209  105  226 1    
   210  106  227 1    
   211  106  228 1    
   212  106  229 1    
   213  107  108 2    
   214  107  109 am   BACKBONE|DICT|INTERRES
   215  109  110 1    
   216  109  230 1    
   217  110  111 1    
   218  110  112 1    
   219  110  231 1    
   220  111  232 1    
   221  111  233 1    
   222  111  234 1    
   223  112  113 2    
   224  112  114 am   BACKBONE|DICT|INTERRES
   225  114  115 1    
   226  114  235 1    
   227  115  116 1    
   228  115  117 1    
   229  115  236 1    
   230  116  237 1    
   231  116  238 1    
   232  116  239 1    
   233  117  118 2    
   234  117  119 am   BACKBONE|DICT|INTERRES
   235  119  120 1    
   236  119  240 1    
   237  120  121 1    
   238  120  124 1    
   239  120  241 1    
   240  121  122 am   BACKBONE|DICT|INTERRES
   241  121  123 2    
   242  122  242 1    
   243  122  243 1    
   244  124  125 1    
   245  124  244 1    
   246  124  245 1    
   247  125  126 1    
   248  126  246 1    
   249  126  247 1    
@<TRIPOS>SUBSTRUCTURE
     1 UNK         1 GROUP             0       ****    0 ROOT    
