@<TRIPOS>MOLECULE
3R540
247   249    1
SMALL
USER_CHARGES


@<TRIPOS>ATOM
      1 CA          0.9494  -14.2654  -49.8623 C.3       0 UNK        -0.1800 
      2 C           0.8026  -14.4208  -48.3559 C.2       0 UNK         0.5000 
      3 O           1.7698  -14.7630  -47.6749 O.2       0 UNK        -0.5000 
      4 N          -0.4035  -14.1744  -47.8282 N.am      1 UNK        -0.5000 
      5 CA         -0.7659  -14.2876  -46.4096 C.3       1 UNK         0.1400 
      6 C6         -2.2916  -14.5259  -46.2318 C.3       23 UNK        -0.0398 
      7 S7         -2.7602  -16.2824  -46.3975 S.3       23 UNK        -0.2404 
      8 C8         -3.2107  -16.4486  -48.1581 C.3       23 UNK        -0.0205 
      9 C9         -2.2057  -17.2087  -49.0269 C.ar      23 UNK        -0.0193 
     10 C10        -2.6411  -17.7053  -50.2591 C.ar      23 UNK        -0.1150 
     11 C11        -1.7590  -18.3633  -51.1197 C.ar      23 UNK        -0.0193 
     12 C12        -0.4224  -18.5203  -50.7486 C.ar      23 UNK        -0.1150 
     13 C13         0.0315  -18.0349  -49.5207 C.ar      23 UNK        -0.0193 
     14 C14        -0.8662  -17.3977  -48.6594 C.ar      23 UNK        -0.1150 
     15 C15         1.5035  -18.1530  -49.1531 C.3       23 UNK        -0.0205 
     16 S16         1.9833  -19.8548  -48.7310 S.3       23 UNK        -0.2404 
     17 C17         1.2181  -20.0493  -47.0890 C.3       23 UNK        -0.0398 
     18 CA          0.5198  -21.4186  -46.9226 C.3       11 UNK         0.1400 
     19 N           0.4137  -21.7896  -45.5114 N.am      11 UNK        -0.5000 
     20 C           0.0300  -22.9875  -45.0529 C.2       10 UNK         0.5000 
     21 O          -0.2518  -23.9412  -45.7761 O.2       10 UNK        -0.5000 
     22 CA         -0.1015  -23.1279  -43.5276 C.3       10 UNK         0.1400 
     23 CB          1.2643  -23.4067  -42.8828 C.3       10 UNK        -0.1800 
     24 N          -0.7010  -21.9387  -42.9226 N.am      10 UNK        -0.5000 
     25 C          -1.9831  -21.5810  -43.0803 C.2       9 UNK         0.5000 
     26 O          -2.8022  -22.2356  -43.7251 O.2       9 UNK        -0.5000 
     27 CA         -2.4103  -20.2461  -42.4434 C.3       9 UNK         0.1400 
     28 CB         -2.7308  -20.4330  -40.9529 C.3       9 UNK        -0.1800 
     29 N          -1.4095  -19.1880  -42.5976 N.am      9 UNK        -0.5000 
     30 C          -1.0262  -18.6817  -43.7775 C.2       8 UNK         0.5000 
     31 O          -1.4420  -19.0823  -44.8632 O.2       8 UNK        -0.5000 
     32 CA          0.0414  -17.5757  -43.7396 C.3       8 UNK         0.1400 
     33 CB         -0.5585  -16.2489  -43.2502 C.3       8 UNK        -0.1800 
     34 N           1.2119  -17.8878  -42.9186 N.am      8 UNK        -0.5000 
     35 C           1.9648  -18.9936  -42.9716 C.2       7 UNK         0.5000 
     36 O           1.7013  -19.9721  -43.6719 O.2       7 UNK        -0.5000 
     37 CA          3.2591  -18.9578  -42.1332 C.3       7 UNK         0.1400 
     38 CB          3.9886  -20.3128  -42.1113 C.3       7 UNK        -0.1800 
     39 N           4.1710  -17.9356  -42.6513 N.am      7 UNK        -0.5000 
     40 C           4.0600  -16.6198  -42.4312 C.2       6 UNK         0.5000 
     41 O           3.2065  -16.1221  -41.6918 O.2       6 UNK        -0.5000 
     42 CA          5.0039  -15.7170  -43.2399 C.3       6 UNK         0.1400 
     43 CB          4.3891  -15.4188  -44.6181 C.3       6 UNK        -0.1800 
     44 N           5.2485  -14.4532  -42.5492 N.am      6 UNK        -0.5000 
     45 C           6.1761  -14.2751  -41.6011 C.2       5 UNK         0.5000 
     46 O           6.9312  -15.1694  -41.2160 O.2       5 UNK        -0.5000 
     47 CA          6.3051  -12.8719  -40.9863 C.3       5 UNK         0.1400 
     48 CB          7.1674  -11.9631  -41.8783 C.3       5 UNK        -0.1800 
     49 N           5.0094  -12.2326  -40.7479 N.am      5 UNK        -0.5000 
     50 C           4.7179  -11.4998  -39.6625 C.2       4 UNK         0.5000 
     51 O           5.5107  -11.3072  -38.7391 O.2       4 UNK        -0.5000 
     52 CA          3.3186  -10.8515  -39.5805 C.3       4 UNK         0.1400 
     53 CB          3.3991   -9.3599  -39.9413 C.3       4 UNK        -0.1800 
     54 N           2.3238  -11.4866  -40.4428 N.am      4 UNK        -0.5000 
     55 C           1.8206  -12.7139  -40.2637 C.2       3 UNK         0.5000 
     56 O           2.0553  -13.4040  -39.2711 O.2       3 UNK        -0.5000 
     57 CA          0.9136  -13.2755  -41.3789 C.3       3 UNK         0.1400 
     58 CB         -0.5526  -13.2886  -40.9190 C.3       3 UNK        -0.1800 
     59 N           0.9836  -12.5981  -42.6817 N.am      3 UNK        -0.5000 
     60 C           2.0736  -12.3935  -43.4340 C.2       2 UNK         0.5000 
     61 O           3.2211  -12.6261  -43.0514 O.2       2 UNK        -0.5000 
     62 CA          1.8238  -11.8747  -44.8634 C.3       2 UNK         0.1400 
     63 CB          3.1298  -11.5440  -45.6074 C.3       2 UNK        -0.1800 
     64 N           1.0836  -12.8681  -45.6397 N.am      2 UNK        -0.5000 
     65 C          -0.2362  -13.0826  -45.5939 C.2       1 UNK         0.5000 
     66 O          -1.0019  -12.3847  -44.9263 O.2       1 UNK        -0.5000 
     67 C          -0.8487  -21.4772  -47.6351 C.2       11 UNK         0.5000 
     68 O          -0.9551  -22.0849  -48.7012 O.2       11 UNK        -0.5000 
     69 N          -1.8846  -20.9117  -46.9986 N.am      12 UNK        -0.5000 
     70 CA         -3.2707  -20.9664  -47.4608 C.3       12 UNK         0.1400 
     71 CB         -4.1490  -20.0803  -46.5674 C.3       12 UNK        -0.1800 
     72 C          -3.8261  -22.4005  -47.5098 C.2       12 UNK         0.5000 
     73 O          -4.5046  -22.7486  -48.4763 O.2       12 UNK        -0.5000 
     74 N          -3.5087  -23.2141  -46.4915 N.am      13 UNK        -0.5000 
     75 CA         -3.8733  -24.6299  -46.4219 C.3       13 UNK         0.1400 
     76 CB         -3.5652  -25.1851  -45.0237 C.3       13 UNK        -0.1800 
     77 C          -3.1873  -25.4720  -47.5123 C.2       13 UNK         0.5000 
     78 O          -3.8538  -26.2853  -48.1520 O.2       13 UNK        -0.5000 
     79 N          -1.8883  -25.2326  -47.7435 N.am      14 UNK        -0.5000 
     80 CA         -1.0962  -25.8652  -48.8026 C.3       14 UNK         0.1400 
     81 CB          0.3821  -25.4813  -48.6395 C.3       14 UNK        -0.1800 
     82 C          -1.5973  -25.5164  -50.2171 C.2       14 UNK         0.5000 
     83 O          -1.5836  -26.3769  -51.0975 O.2       14 UNK        -0.5000 
     84 N          -2.0750  -24.2776  -50.3940 N.am      15 UNK        -0.5000 
     85 CA         -2.7236  -23.7908  -51.6121 C.3       15 UNK         0.1400 
     86 CB         -2.5755  -22.2634  -51.6692 C.3       15 UNK        -0.1800 
     87 C          -4.2087  -24.1991  -51.7291 C.2       15 UNK         0.5000 
     88 O          -4.8590  -23.8039  -52.6986 O.2       15 UNK        -0.5000 
     89 N          -4.7307  -24.9420  -50.7403 N.am      16 UNK        -0.5000 
     90 CA         -6.1049  -25.4390  -50.6226 C.3       16 UNK         0.1400 
     91 CB         -6.3608  -26.5514  -51.6593 C.3       16 UNK        -0.1800 
     92 C          -7.1557  -24.3099  -50.6564 C.2       16 UNK         0.5000 
     93 O          -8.1580  -24.4157  -51.3634 O.2       16 UNK        -0.5000 
     94 N          -6.8807  -23.2370  -49.8997 N.am      17 UNK        -0.5000 
     95 CA         -7.6373  -21.9831  -49.8272 C.3       17 UNK         0.1400 
     96 CB         -9.0619  -22.2114  -49.2786 C.3       17 UNK        -0.1800 
     97 C          -7.6044  -21.2045  -51.1592 C.2       17 UNK         0.5000 
     98 O          -8.6167  -20.6375  -51.5738 O.2       17 UNK        -0.5000 
     99 N          -6.4204  -21.1934  -51.7909 N.am      18 UNK        -0.5000 
    100 CA        -6.0904  -20.5385  -53.0609 C.3       18 UNK         0.1400 
    101 CB        -6.2173  -19.0042  -52.9389 C.3       18 UNK        -0.1800 
    102 C         -6.8657  -21.1202  -54.2613 C.2       18 UNK         0.5000 
    103 O         -7.2964  -20.3755  -55.1446 O.2       18 UNK        -0.5000 
    104 N         -7.0146  -22.4505  -54.2880 N.am      19 UNK        -0.5000 
    105 CA        -7.6884  -23.1962  -55.3499 C.3       19 UNK         0.1400 
    106 CB        -8.2022  -24.5285  -54.7809 C.3       19 UNK        -0.1800 
    107 C         -6.7419  -23.3957  -56.5473 C.2       19 UNK         0.5000 
    108 O         -6.1711  -24.4746  -56.7132 O.2       19 UNK        -0.5000 
    109 N         -6.5417  -22.3206  -57.3225 N.am      20 UNK        -0.5000 
    110 CA        -5.6981  -22.1805  -58.5220 C.3       20 UNK         0.1400 
    111 CB        -6.1205  -23.1687  -59.6256 C.3       20 UNK        -0.1800 
    112 C         -4.1775  -22.2526  -58.2661 C.2       20 UNK         0.5000 
    113 O         -3.4151  -21.6156  -58.9948 O.2       20 UNK        -0.5000 
    114 N         -3.7592  -22.9718  -57.2165 N.am      21 UNK        -0.5000 
    115 CA        -2.3759  -23.1545  -56.7637 C.3       21 UNK         0.1400 
    116 CB        -2.3848  -24.1089  -55.5602 C.3       21 UNK        -0.1800 
    117 C         -1.6401  -21.8474  -56.4019 C.2       21 UNK         0.5000 
    118 O         -0.4089  -21.8237  -56.4079 O.2       21 UNK        -0.5000 
    119 N         -2.4048  -20.7878  -56.1114 N.am      22 UNK        -0.5000 
    120 CA        -1.9144  -19.4168  -55.9087 C.3       22 UNK         0.1400 
    121 C         -1.4521  -18.6956  -57.2121 C.2       22 UNK         0.5000 
    122 N         -1.7372  -19.2123  -58.4029 N.am      22 UNK        -0.7600 
    123 O         -0.8154  -17.6484  -57.1425 O.2       22 UNK        -0.5000 
    124 C124       -2.9543  -18.5722  -55.1195 C.3       23 UNK        -0.0398 
    125 S125       -2.2115  -17.6315  -53.7474 S.3       23 UNK        -0.2404 
    126 C126       -2.2521  -18.9025  -52.4494 C.3       23 UNK        -0.0205 
    127 H127        1.6826  -13.4920  -50.0905 H         1 UNK         0.0600 
    128 H128        0.0055  -13.9933  -50.3352 H         1 UNK         0.0600 
    129 H129        1.2901  -15.2020  -50.3034 H         1 UNK         0.0600 
    130 H130       -1.1471  -13.8733  -48.4411 H         1 UNK         0.3000 
    131 H131       -0.2473  -15.1566  -45.9998 H         1 UNK         0.0600 
    132 H132       -2.8762  -13.9025  -46.9094 H         1 UNK         0.0800 
    133 H133       -2.6211  -14.2500  -45.2289 H         1 UNK         0.0800 
    134 H134       -4.1696  -16.9677  -48.1971 H         1 UNK         0.0800 
    135 H135       -3.3806  -15.4650  -48.5963 H         1 UNK         0.0800 
    136 H136       -3.6709  -17.5685  -50.5583 H         1 UNK         0.1150 
    137 H137        0.2684  -19.0146  -51.4172 H         1 UNK         0.1150 
    138 H138       -0.5023  -17.0234  -47.7150 H         1 UNK         0.1150 
    139 H139        2.1069  -17.8191  -49.9983 H         1 UNK         0.0800 
    140 H140        1.7547  -17.4904  -48.3234 H         1 UNK         0.0800 
    141 H141        0.5315  -19.2289  -46.8753 H         1 UNK         0.0800 
    142 H142        2.0269  -19.9528  -46.3635 H         1 UNK         0.0800 
    143 H143        1.1541  -22.1784  -47.3846 H         1 UNK         0.0600 
    144 H144        0.6661  -21.0742  -44.8346 H         1 UNK         0.3000 
    145 H145       -0.7528  -23.9803  -43.3230 H         1 UNK         0.0600 
    146 H146        1.1746  -23.5306  -41.8035 H         1 UNK         0.0600 
    147 H147        1.7003  -24.3239  -43.2805 H         1 UNK         0.0600 
    148 H148        1.9733  -22.6007  -43.0716 H         1 UNK         0.0600 
    149 H149       -0.0784  -21.3120  -42.4341 H         1 UNK         0.3000 
    150 H150       -3.3214  -19.9185  -42.9486 H         1 UNK         0.0600 
    151 H151       -3.4873  -21.2059  -40.8107 H         1 UNK         0.0600 
    152 H152       -3.1211  -19.5139  -40.5154 H         1 UNK         0.0600 
    153 H153       -1.8485  -20.7283  -40.3838 H         1 UNK         0.0600 
    154 H154       -0.9989  -18.8164  -41.7538 H         1 UNK         0.3000 
    155 H155        0.3916  -17.4334  -44.7640 H         1 UNK         0.0600 
    156 H156       -0.7732  -16.2748  -42.1813 H         1 UNK         0.0600 
    157 H157        0.1251  -15.4210  -43.4351 H         1 UNK         0.0600 
    158 H158       -1.4934  -16.0201  -43.7600 H         1 UNK         0.0600 
    159 H159        1.5632  -17.1342  -42.3373 H         1 UNK         0.3000 
    160 H160        2.9844  -18.7095  -41.1058 H         1 UNK         0.0600 
    161 H161        4.2820  -20.6326  -43.1120 H         1 UNK         0.0600 
    162 H162        3.3513  -21.0907  -41.6897 H         1 UNK         0.0600 
    163 H163        4.8882  -20.2656  -41.4974 H         1 UNK         0.0600 
    164 H164        4.8708  -18.2608  -43.3029 H         1 UNK         0.3000 
    165 H165        5.9533  -16.2361  -43.3890 H         1 UNK         0.0600 
    166 H166        5.0241  -14.7493  -45.1984 H         1 UNK         0.0600 
    167 H167        4.2660  -16.3335  -45.1992 H         1 UNK         0.0600 
    168 H168        3.4055  -14.9559  -44.5318 H         1 UNK         0.0600 
    169 H169        4.6062  -13.6985  -42.7787 H         1 UNK         0.3000 
    170 H170        6.8281  -13.0061  -40.0370 H         1 UNK         0.0600 
    171 H171        6.6840  -11.7672  -42.8363 H         1 UNK         0.0600 
    172 H172        7.3567  -11.0037  -41.3965 H         1 UNK         0.0600 
    173 H173        8.1361  -12.4202  -42.0843 H         1 UNK         0.0600 
    174 H174        4.2984  -12.3556  -41.4625 H         1 UNK         0.3000 
    175 H175        2.9777  -10.9360  -38.5466 H         1 UNK         0.0600 
    176 H176        2.4323   -8.8710  -39.8197 H         1 UNK         0.0600 
    177 H177        3.7240   -9.2130  -40.9722 H         1 UNK         0.0600 
    178 H178        4.1081   -8.8390  -39.2964 H         1 UNK         0.0600 
    179 H179        2.0788  -10.9960  -41.2898 H         1 UNK         0.3000 
    180 H180        1.2275  -14.3075  -41.5407 H         1 UNK         0.0600 
    181 H181       -0.9264  -12.2782  -40.7486 H         1 UNK         0.0600 
    182 H182       -0.6674  -13.8436  -39.9869 H         1 UNK         0.0600 
    183 H183       -1.1977  -13.7630  -41.6585 H         1 UNK         0.0600 
    184 H184        0.0917  -12.3752  -43.1089 H         1 UNK         0.3000 
    185 H185        1.2357  -10.9577  -44.7889 H         1 UNK         0.0600 
    186 H186        2.9256  -11.1380  -46.5983 H         1 UNK         0.0600 
    187 H187        3.7120  -10.7983  -45.0645 H         1 UNK         0.0600 
    188 H188        3.7587  -12.4266  -45.7317 H         1 UNK         0.0600 
    189 H189        1.6336  -13.4935  -46.2224 H         1 UNK         0.3000 
    190 H190       -1.7133  -20.3899  -46.1412 H         1 UNK         0.3000 
    191 H191       -3.2975  -20.5618  -48.4749 H         1 UNK         0.0600 
    192 H192       -3.8068  -19.0468  -46.5856 H         1 UNK         0.0600 
    193 H193       -5.1857  -20.0865  -46.9060 H         1 UNK         0.0600 
    194 H194       -4.1363  -20.4159  -45.5298 H         1 UNK         0.0600 
    195 H195       -2.9894  -22.8389  -45.7052 H         1 UNK         0.3000 
    196 H196       -4.9515  -24.7021  -46.5803 H         1 UNK         0.0600 
    197 H197       -3.8457  -26.2365  -44.9505 H         1 UNK         0.0600 
    198 H198       -4.1207  -24.6469  -44.2557 H         1 UNK         0.0600 
    199 H199       -2.5049  -25.1109  -44.7833 H         1 UNK         0.0600 
    200 H200       -1.3942  -24.5820  -47.1373 H         1 UNK         0.3000 
    201 H201       -1.1819  -26.9467  -48.6797 H         1 UNK         0.0600 
    202 H202        0.7676  -25.8018  -47.6715 H         1 UNK         0.0600 
    203 H203        0.5293  -24.4037  -48.7174 H         1 UNK         0.0600 
    204 H204        0.9963  -25.9538  -49.4070 H         1 UNK         0.0600 
    205 H205       -1.9835  -23.6109  -49.6337 H         1 UNK         0.3000 
    206 H206       -2.2037  -24.2125  -52.4741 H         1 UNK         0.0600 
    207 H207       -3.1193  -21.7740  -50.8603 H         1 UNK         0.0600 
    208 H208       -1.5289  -21.9675  -51.5921 H         1 UNK         0.0600 
    209 H209       -2.9536  -21.8714  -52.6135 H         1 UNK         0.0600 
    210 H210       -4.1245  -25.1906  -49.9682 H         1 UNK         0.3000 
    211 H211       -6.1857  -25.8908  -49.6332 H         1 UNK         0.0600 
    212 H212       -6.2579  -26.1852  -52.6798 H         1 UNK         0.0600 
    213 H213       -7.3642  -26.9657  -51.5557 H         1 UNK         0.0600 
    214 H214       -5.6568  -27.3735  -51.5302 H         1 UNK         0.0600 
    215 H215       -6.0058  -23.2346  -49.3761 H         1 UNK         0.3000 
    216 H216       -7.1099  -21.3593  -49.1040 H         1 UNK         0.0600 
    217 H217       -9.5589  -21.2609  -49.0817 H         1 UNK         0.0600 
    218 H218       -9.0387  -22.7651  -48.3401 H         1 UNK         0.0600 
    219 H219       -9.6868  -22.7642  -49.9802 H         1 UNK         0.0600 
    220 H220       -5.6801  -21.7464  -51.3838 H         1 UNK         0.3000 
    221 H221       -5.0420  -20.7668  -53.2520 H         1 UNK         0.0600 
    222 H222       -7.2526  -18.6926  -52.7994 H         1 UNK         0.0600 
    223 H223       -5.8511  -18.5042  -53.8357 H         1 UNK         0.0600 
    224 H224       -5.6390  -18.6242  -52.0970 H         1 UNK         0.0600 
    225 H225       -6.5554  -23.0024  -53.5702 H         1 UNK         0.3000 
    226 H226       -8.5561  -22.6309  -55.6964 H         1 UNK         0.0600 
    227 H227       -8.9250  -24.3616  -53.9824 H         1 UNK         0.0600 
    228 H228       -8.7003  -25.1176  -55.5519 H         1 UNK         0.0600 
    229 H229       -7.3904  -25.1328  -54.3776 H         1 UNK         0.0600 
    230 H230       -6.9953  -21.4649  -57.0216 H         1 UNK         0.3000 
    231 H231       -5.8935  -21.1744  -58.8962 H         1 UNK         0.0600 
    232 H232       -5.9214  -24.2037  -59.3467 H         1 UNK         0.0600 
    233 H233       -5.5760  -22.9730  -60.5503 H         1 UNK         0.0600 
    234 H234       -7.1833  -23.0791  -59.8500 H         1 UNK         0.0600 
    235 H235       -4.4675  -23.5103  -56.7284 H         1 UNK         0.3000 
    236 H236       -1.8208  -23.6254  -57.5772 H         1 UNK         0.0600 
    237 H237       -2.8039  -25.0790  -55.8278 H         1 UNK         0.0600 
    238 H238       -1.3756  -24.2828  -55.1845 H         1 UNK         0.0600 
    239 H239       -2.9783  -23.7038  -54.7405 H         1 UNK         0.0600 
    240 H240       -3.4046  -20.9073  -56.1602 H         1 UNK         0.3000 
    241 H241       -1.0132  -19.5101  -55.2995 H         1 UNK         0.0600 
    242 H242       -2.2657  -20.0737  -58.4965 H         1 UNK         0.3800 
    243 H243       -1.4253  -18.7334  -59.2328 H         1 UNK         0.3800 
    244 H244       -3.4875  -17.8747  -55.7684 H         1 UNK         0.0800 
    245 H245       -3.7328  -19.2083  -54.6999 H         1 UNK         0.0800 
    246 H246       -3.2668  -19.2820  -52.3316 H         1 UNK         0.0800 
    247 H247       -1.6366  -19.7466  -52.7627 H         1 UNK         0.0800 
@<TRIPOS>BOND
     1    1    2 1    
     2    1  127 1    
     3    1  128 1    
     4    1  129 1    
     5    2    3 2    
     6    2    4 am   BACKBONE|DICT|INTERRES
     7    4    5 1    
     8    4  130 1    
     9    5    6 1    
    10    5   65 1    
    11    5  131 1    
    12    6    7 1    
    13    6  132 1    
    14    6  133 1    
    15    7    8 1    
    16    8    9 1    
    17    8  134 1    
    18    8  135 1    
    19    9   10 ar   
    20    9   14 ar   
    21   10   11 ar   
    22   10  136 1    
    23   11   12 ar   
    24   11  126 1    
    25   12   13 ar   
    26   12  137 1    
    27   13   14 ar   
    28   13   15 1    
    29   14  138 1    
    30   15   16 1    
    31   15  139 1    
    32   15  140 1    
    33   16   17 1    
    34   17   18 1    
    35   17  141 1    
    36   17  142 1    
    37   18   19 1    
    38   18   67 1    
    39   18  143 1    
    40   19   20 am   BACKBONE|DICT|INTERRES
    41   19  144 1    
    42   20   21 2    
    43   20   22 1    
    44   22   23 1    
    45   22   24 1    
    46   22  145 1    
    47   23  146 1    
    48   23  147 1    
    49   23  148 1    
    50   24   25 am   BACKBONE|DICT|INTERRES
    51   24  149 1    
    52   25   26 2    
    53   25   27 1    
    54   27   28 1    
    55   27   29 1    
    56   27  150 1    
    57   28  151 1    
    58   28  152 1    
    59   28  153 1    
    60   29   30 am   BACKBONE|DICT|INTERRES
    61   29  154 1    
    62   30   31 2    
    63   30   32 1    
    64   32   33 1    
    65   32   34 1    
    66   32  155 1    
    67   33  156 1    
    68   33  157 1    
    69   33  158 1    
    70   34   35 am   BACKBONE|DICT|INTERRES
    71   34  159 1    
    72   35   36 2    
    73   35   37 1    
    74   37   38 1    
    75   37   39 1    
    76   37  160 1    
    77   38  161 1    
    78   38  162 1    
    79   38  163 1    
    80   39   40 am   BACKBONE|DICT|INTERRES
    81   39  164 1    
    82   40   41 2    
    83   40   42 1    
    84   42   43 1    
    85   42   44 1    
    86   42  165 1    
    87   43  166 1    
    88   43  167 1    
    89   43  168 1    
    90   44   45 am   BACKBONE|DICT|INTERRES
    91   44  169 1    
    92   45   46 2    
    93   45   47 1    
    94   47   48 1    
    95   47   49 1    
    96   47  170 1    
    97   48  171 1    
    98   48  172 1    
    99   48  173 1    
   100   49   50 am   BACKBONE|DICT|INTERRES
   101   49  174 1    
   102   50   51 2    
   103   50   52 1    
   104   52   53 1    
   105   52   54 1    
   106   52  175 1    
   107   53  176 1    
   108   53  177 1    
   109   53  178 1    
   110   54   55 am   BACKBONE|DICT|INTERRES
   111   54  179 1    
   112   55   56 2    
   113   55   57 1    
   114   57   58 1    
   115   57   59 1    
   116   57  180 1    
   117   58  181 1    
   118   58  182 1    
   119   58  183 1    
   120   59   60 am   BACKBONE|DICT|INTERRES
   121   59  184 1    
   122   60   61 2    
   123   60   62 1    
   124   62   63 1    
   125   62   64 1    
   126   62  185 1    
   127   63  186 1    
   128   63  187 1    
   129   63  188 1    
   130   64   65 am   BACKBONE|DICT|INTERRES
   131   64  189 1    
   132   65   66 2    
   133   67   68 2    
   134   67   69 am   BACKBONE|DICT|INTERRES
   135   69   70 1    
   136   69  190 1    
   137   70   71 1    
   138   70   72 1    
   139   70  191 1    
   140   71  192 1    
   141   71  193 1    
   142   71  194 1    
   143   72   73 2    
   144   72   74 am   BACKBONE|DICT|INTERRES
   145   74   75 1    
   146   74  195 1    
   147   75   76 1    
   148   75   77 1    
   149   75  196 1    
   150   76  197 1    
   151   76  198 1    
   152   76  199 1    
   153   77   78 2    
   154   77   79 am   BACKBONE|DICT|INTERRES
   155   79   80 1    
   156   79  200 1    
   157   80   81 1    
   158   80   82 1    
   159   80  201 1    
   160   81  202 1    
   161   81  203 1    
   162   81  204 1    
   163   82   83 2    
   164   82   84 am   BACKBONE|DICT|INTERRES
   165   84   85 1    
   166   84  205 1    
   167   85   86 1    
   168   85   87 1    
   169   85  206 1    
   170   86  207 1    
   171   86  208 1    
   172   86  209 1    
   173   87   88 2    
   174   87   89 am   BACKBONE|DICT|INTERRES
   175   89   90 1    
   176   89  210 1    
   177   90   91 1    
   178   90   92 1    
   179   90  211 1    
   180   91  212 1    
   181   91  213 1    
   182   91  214 1    
   183   92   93 2    
   184   92   94 am   BACKBONE|DICT|INTERRES
   185   94   95 1    
   186   94  215 1    
   187   95   96 1    
   188   95   97 1    
   189   95  216 1    
   190   96  217 1    
   191   96  218 1    
   192   96  219 1    
   193   97   98 2    
   194   97   99 am   BACKBONE|DICT|INTERRES
   195   99  100 1    
   196   99  220 1    
   197  100  101 1    
   198  100  102 1    
   199  100  221 1    
   200  101  222 1    
   201  101  223 1    
   202  101  224 1    
   203  102  103 2    
   204  102  104 am   BACKBONE|DICT|INTERRES
   205  104  105 1    
   206  104  225 1    
   207  105  106 1    
   208  105  107 1    
   209  105  226 1    
   210  106  227 1    
   211  106  228 1    
   212  106  229 1    
   213  107  108 2    
   214  107  109 am   BACKBONE|DICT|INTERRES
   215  109  110 1    
   216  109  230 1    
   217  110  111 1    
   218  110  112 1    
   219  110  231 1    
   220  111  232 1    
   221  111  233 1    
   222  111  234 1    
   223  112  113 2    
   224  112  114 am   BACKBONE|DICT|INTERRES
   225  114  115 1    
   226  114  235 1    
   227  115  116 1    
   228  115  117 1    
   229  115  236 1    
   230  116  237 1    
   231  116  238 1    
   232  116  239 1    
   233  117  118 2    
   234  117  119 am   BACKBONE|DICT|INTERRES
   235  119  120 1    
   236  119  240 1    
   237  120  121 1    
   238  120  124 1    
   239  120  241 1    
   240  121  122 am   BACKBONE|DICT|INTERRES
   241  121  123 2    
   242  122  242 1    
   243  122  243 1    
   244  124  125 1    
   245  124  244 1    
   246  124  245 1    
   247  125  126 1    
   248  126  246 1    
   249  126  247 1    
@<TRIPOS>SUBSTRUCTURE
     1 UNK         1 GROUP             0       ****    0 ROOT    
