@<TRIPOS>MOLECULE
3R540
247   249    1
SMALL
USER_CHARGES


@<TRIPOS>ATOM
      1 CA         -0.6563  -12.5164  -51.8964 C.3       0 UNK        -0.1800 
      2 C           0.5918  -12.6367  -51.0343 C.2       0 UNK         0.5000 
      3 O           1.1553  -11.6217  -50.6258 O.2       0 UNK        -0.5000 
      4 N           1.0177  -13.8707  -50.7425 N.am      1 UNK        -0.5000 
      5 CA          2.2334  -14.1982  -49.9820 C.3       1 UNK         0.1400 
      6 C6          2.8796  -15.5119  -50.4849 C.3       23 UNK        -0.0398 
      7 S7          3.3635  -15.4084  -52.2436 S.3       23 UNK        -0.2404 
      8 C8          4.4599  -16.8521  -52.3979 C.3       23 UNK        -0.0205 
      9 C9          3.7214  -18.1462  -52.0984 C.ar      23 UNK        -0.0193 
     10 C10         2.8351  -18.6826  -53.0348 C.ar      23 UNK        -0.1150 
     11 C11         2.1268  -19.8542  -52.7537 C.ar      23 UNK        -0.0193 
     12 C12         2.3214  -20.4968  -51.5257 C.ar      23 UNK        -0.1150 
     13 C13         3.1965  -19.9600  -50.5765 C.ar      23 UNK        -0.0193 
     14 C14         3.9037  -18.7929  -50.8744 C.ar      23 UNK        -0.1150 
     15 C15         3.3775  -20.6284  -49.2233 C.3       23 UNK        -0.0205 
     16 S16         2.7089  -19.6147  -47.8630 S.3       23 UNK        -0.2404 
     17 C17         0.9064  -19.7368  -48.1345 C.3       23 UNK        -0.0398 
     18 CA          0.3232  -21.0389  -47.5419 C.3       11 UNK         0.1400 
     19 N           0.4795  -21.1422  -46.0911 N.am      11 UNK        -0.5000 
     20 C           0.3882  -22.2963  -45.4183 C.2       10 UNK         0.5000 
     21 O           0.1512  -23.3799  -45.9545 O.2       10 UNK        -0.5000 
     22 CA          0.5523  -22.2253  -43.8908 C.3       10 UNK         0.1400 
     23 CB          2.0296  -22.0526  -43.5067 C.3       10 UNK        -0.1800 
     24 N          -0.2450  -21.1581  -43.2857 N.am      10 UNK        -0.5000 
     25 C          -1.5845  -21.1055  -43.3151 C.2       9 UNK         0.5000 
     26 O          -2.2923  -21.9609  -43.8483 O.2       9 UNK        -0.5000 
     27 CA         -2.2449  -19.8725  -42.6722 C.3       9 UNK         0.1400 
     28 CB         -2.2586  -19.9949  -41.1412 C.3       9 UNK        -0.1800 
     29 N          -1.6034  -18.6157  -43.0582 N.am      9 UNK        -0.5000 
     30 C          -1.5375  -18.1510  -44.3145 C.2       8 UNK         0.5000 
     31 O          -2.0244  -18.7238  -45.2863 O.2       8 UNK        -0.5000 
     32 CA         -0.7439  -16.8541  -44.5340 C.3       8 UNK         0.1400 
     33 CB         -1.5408  -15.6394  -44.0347 C.3       8 UNK        -0.1800 
     34 N           0.5630  -16.8879  -43.8822 N.am      8 UNK        -0.5000 
     35 C           1.5185  -17.7992  -44.1129 C.2       7 UNK         0.5000 
     36 O           1.4159  -18.7102  -44.9312 O.2       7 UNK        -0.5000 
     37 CA          2.7732  -17.7149  -43.2302 C.3       7 UNK         0.1400 
     38 CB          3.7182  -16.6042  -43.7163 C.3       7 UNK        -0.1800 
     39 N           2.4299  -17.5002  -41.8243 N.am      7 UNK        -0.5000 
     40 C           1.7871  -18.3925  -41.0561 C.2       6 UNK         0.5000 
     41 O           1.4488  -19.5125  -41.4390 O.2       6 UNK        -0.5000 
     42 CA          1.4258  -17.9352  -39.6318 C.3       6 UNK         0.1400 
     43 CB          2.6312  -18.0802  -38.6909 C.3       6 UNK        -0.1800 
     44 N           0.9436  -16.5536  -39.5973 N.am      6 UNK        -0.5000 
     45 C          -0.2152  -16.1466  -40.1341 C.2       5 UNK         0.5000 
     46 O          -1.0152  -16.9009  -40.6883 O.2       5 UNK        -0.5000 
     47 CA         -0.5031  -14.6336  -40.0835 C.3       5 UNK         0.1400 
     48 CB         -1.1257  -14.2458  -38.7341 C.3       5 UNK        -0.1800 
     49 N           0.6808  -13.8024  -40.3331 N.am      5 UNK        -0.5000 
     50 C           1.3847  -13.8200  -41.4716 C.2       4 UNK         0.5000 
     51 O           1.1357  -14.5758  -42.4141 O.2       4 UNK        -0.5000 
     52 CA          2.5809  -12.8662  -41.5757 C.3       4 UNK         0.1400 
     53 CB          3.7982  -13.4218  -40.8162 C.3       4 UNK        -0.1800 
     54 N           2.9008  -12.7334  -42.9904 N.am      4 UNK        -0.5000 
     55 C           3.5108  -11.7067  -43.5869 C.2       3 UNK         0.5000 
     56 O           3.9568  -10.7300  -42.9833 O.2       3 UNK        -0.5000 
     57 CA          3.6417  -11.7827  -45.1221 C.3       3 UNK         0.1400 
     58 CB          5.0443  -12.2711  -45.5156 C.3       3 UNK        -0.1800 
     59 N           2.6478  -12.6546  -45.7575 N.am      3 UNK        -0.5000 
     60 C           1.3387  -12.3939  -45.8639 C.2       2 UNK         0.5000 
     61 O           0.8173  -11.3646  -45.4313 O.2       2 UNK        -0.5000 
     62 CA          0.4858  -13.4547  -46.5967 C.3       2 UNK         0.1400 
     63 CB         -1.0186  -13.1255  -46.5686 C.3       2 UNK        -0.1800 
     64 N           0.8851  -13.6192  -47.9947 N.am      2 UNK        -0.5000 
     65 C           1.9919  -14.2195  -48.4525 C.2       1 UNK         0.5000 
     66 O           2.8127  -14.7594  -47.7079 O.2       1 UNK        -0.5000 
     67 C          -1.1321  -21.2749  -47.9865 C.2       11 UNK         0.5000 
     68 O          -1.3272  -21.8888  -49.0317 O.2       11 UNK        -0.5000 
     69 N          -2.1265  -20.8575  -47.1869 N.am      12 UNK        -0.5000 
     70 CA         -3.5414  -21.1638  -47.4195 C.3       12 UNK         0.1400 
     71 CB         -4.4344  -20.3700  -46.4560 C.3       12 UNK        -0.1800 
     72 C          -3.8448  -22.6683  -47.3155 C.2       12 UNK         0.5000 
     73 O          -4.6039  -23.1858  -48.1357 O.2       12 UNK        -0.5000 
     74 N          -3.2255  -23.3504  -46.3414 N.am      13 UNK        -0.5000 
     75 CA         -3.2993  -24.8029  -46.1820 C.3       13 UNK         0.1400 
     76 CB         -2.6785  -25.2174  -44.8398 C.3       13 UNK        -0.1800 
     77 C          -2.6423  -25.5480  -47.3582 C.2       13 UNK         0.5000 
     78 O          -3.2526  -26.4669  -47.9063 O.2       13 UNK        -0.5000 
     79 N          -1.4450  -25.1000  -47.7674 N.am      14 UNK        -0.5000 
     80 CA         -0.7194  -25.6031  -48.9405 C.3       14 UNK         0.1400 
     81 CB          0.6689  -24.9490  -49.0042 C.3       14 UNK        -0.1800 
     82 C          -1.4822  -25.3845  -50.2634 C.2       14 UNK         0.5000 
     83 O          -1.4212  -26.2325  -51.1535 O.2       14 UNK        -0.5000 
     84 N          -2.2272  -24.2754  -50.3404 N.am      15 UNK        -0.5000 
     85 CA         -3.1284  -23.9036  -51.4293 C.3       15 UNK         0.1400 
     86 CB         -3.3849  -22.3911  -51.3493 C.3       15 UNK        -0.1800 
     87 C          -4.4681  -24.6666  -51.4330 C.2       15 UNK         0.5000 
     88 O          -5.3329  -24.3165  -52.2362 O.2       15 UNK        -0.5000 
     89 N          -4.6364  -25.6575  -50.5436 N.am      16 UNK        -0.5000 
     90 CA         -5.8206  -26.5029  -50.3670 C.3       16 UNK         0.1400 
     91 CB         -6.0832  -27.3602  -51.6234 C.3       16 UNK        -0.1800 
     92 C          -7.0461  -25.6866  -49.9145 C.2       16 UNK         0.5000 
     93 O          -8.0948  -25.7237  -50.5594 O.2       16 UNK        -0.5000 
     94 N          -6.8617  -24.9458  -48.8126 N.am      17 UNK        -0.5000 
     95 CA         -7.8037  -23.9998  -48.2056 C.3       17 UNK         0.1400 
     96 CB         -9.1024  -24.6983  -47.7490 C.3       17 UNK        -0.1800 
     97 C          -8.0406  -22.7776  -49.1138 C.2       17 UNK         0.5000 
     98 O          -9.1837  -22.3728  -49.3331 O.2       17 UNK        -0.5000 
     99 N          -6.9297  -22.2215  -49.6204 N.am      18 UNK        -0.5000 
    100 CA        -6.8428  -21.0479  -50.4964 C.3       18 UNK         0.1400 
    101 CB        -7.2565  -19.7724  -49.7331 C.3       18 UNK        -0.1800 
    102 C         -7.5815  -21.2194  -51.8421 C.2       18 UNK         0.5000 
    103 O         -8.1533  -20.2565  -52.3572 O.2       18 UNK        -0.5000 
    104 N         -7.5530  -22.4401  -52.3958 N.am      19 UNK        -0.5000 
    105 CA        -8.0671  -22.7455  -53.7304 C.3       19 UNK         0.1400 
    106 CB        -8.3424  -24.2521  -53.8522 C.3       19 UNK        -0.1800 
    107 C         -7.0903  -22.2674  -54.8192 C.2       19 UNK         0.5000 
    108 O         -7.5285  -21.7028  -55.8227 O.2       19 UNK        -0.5000 
    109 N         -5.7850  -22.4681  -54.5864 N.am      20 UNK        -0.5000 
    110 CA        -4.7109  -21.8827  -55.3890 C.3       20 UNK         0.1400 
    111 CB        -3.4123  -22.6746  -55.1723 C.3       20 UNK        -0.1800 
    112 C         -4.5142  -20.3982  -55.0275 C.2       20 UNK         0.5000 
    113 O         -4.7161  -20.0099  -53.8733 O.2       20 UNK        -0.5000 
    114 N         -4.1002  -19.5955  -56.0147 N.am      21 UNK        -0.5000 
    115 CA        -3.9295  -18.1424  -55.9207 C.3       21 UNK         0.1400 
    116 CB        -4.0495  -17.5448  -57.3349 C.3       21 UNK        -0.1800 
    117 C         -2.6239  -17.7238  -55.2064 C.2       21 UNK         0.5000 
    118 O         -1.8448  -16.9375  -55.7485 O.2       21 UNK        -0.5000 
    119 N         -2.4061  -18.2578  -54.0007 N.am      22 UNK        -0.5000 
    120 CA        -1.2552  -17.9507  -53.1336 C.3       22 UNK         0.1400 
    121 C         -1.4122  -16.6419  -52.3025 C.2       22 UNK         0.5000 
    122 N         -2.5759  -16.0031  -52.2777 N.am      22 UNK        -0.7600 
    123 O         -0.4598  -16.1910  -51.6716 O.2       22 UNK        -0.5000 
    124 C124       -0.9021  -19.1420  -52.2101 C.3       23 UNK        -0.0398 
    125 S125       -0.5327  -20.6886  -53.1151 S.3       23 UNK        -0.2404 
    126 C126        1.1427  -20.4035  -53.7789 C.3       23 UNK        -0.0205 
    127 H127       -1.4952  -12.1622  -51.2974 H         1 UNK         0.0600 
    128 H128       -0.9308  -13.4718  -52.3430 H         1 UNK         0.0600 
    129 H129       -0.4876  -11.8048  -52.7047 H         1 UNK         0.0600 
    130 H130        0.5011  -14.6750  -51.0955 H         1 UNK         0.3000 
    131 H131        2.9651  -13.4042  -50.1459 H         1 UNK         0.0600 
    132 H132        3.7735  -15.7504  -49.9058 H         1 UNK         0.0800 
    133 H133        2.1916  -16.3498  -50.3558 H         1 UNK         0.0800 
    134 H134        5.3172  -16.7305  -51.7339 H         1 UNK         0.0800 
    135 H135        4.8605  -16.8880  -53.4119 H         1 UNK         0.0800 
    136 H136        2.6862  -18.1729  -53.9765 H         1 UNK         0.1150 
    137 H137        1.7693  -21.3991  -51.3018 H         1 UNK         0.1150 
    138 H138        4.5778  -18.3760  -50.1392 H         1 UNK         0.1150 
    139 H139        2.9169  -21.6170  -49.2093 H         1 UNK         0.0800 
    140 H140        4.4424  -20.7880  -49.0486 H         1 UNK         0.0800 
    141 H141        0.7068  -19.6692  -49.2050 H         1 UNK         0.0800 
    142 H142        0.4301  -18.8668  -47.6790 H         1 UNK         0.0800 
    143 H143        0.8967  -21.8599  -47.9750 H         1 UNK         0.0600 
    144 H144        0.7156  -20.2841  -45.5955 H         1 UNK         0.3000 
    145 H145        0.2045  -23.1742  -43.4774 H         1 UNK         0.0600 
    146 H146        2.1625  -22.0960  -42.4257 H         1 UNK         0.0600 
    147 H147        2.6419  -22.8431  -43.9424 H         1 UNK         0.0600 
    148 H148        2.4278  -21.0986  -43.8538 H         1 UNK         0.0600 
    149 H149        0.2675  -20.4236  -42.8078 H         1 UNK         0.3000 
    150 H150       -3.2799  -19.8349  -43.0180 H         1 UNK         0.0600 
    151 H151       -2.7390  -20.9223  -40.8267 H         1 UNK         0.0600 
    152 H152       -2.8101  -19.1720  -40.6860 H         1 UNK         0.0600 
    153 H153       -1.2498  -19.9888  -40.7270 H         1 UNK         0.0600 
    154 H154       -1.1960  -18.0642  -42.3092 H         1 UNK         0.3000 
    155 H155       -0.5719  -16.7373  -45.6059 H         1 UNK         0.0600 
    156 H156       -1.8271  -15.7431  -42.9884 H         1 UNK         0.0600 
    157 H157       -2.4557  -15.5099  -44.6136 H         1 UNK         0.0600 
    158 H158       -0.9619  -14.7220  -44.1231 H         1 UNK         0.0600 
    159 H159        0.7474  -16.1503  -43.2055 H         1 UNK         0.3000 
    160 H160        3.3013  -18.6677  -43.3079 H         1 UNK         0.0600 
    161 H161        3.2546  -15.6200  -43.6621 H         1 UNK         0.0600 
    162 H162        4.0079  -16.7697  -44.7549 H         1 UNK         0.0600 
    163 H163        4.6329  -16.5768  -43.1241 H         1 UNK         0.0600 
    164 H164        2.6255  -16.5879  -41.4426 H         1 UNK         0.3000 
    165 H165        0.6274  -18.5847  -39.2661 H         1 UNK         0.0600 
    166 H166        2.3616  -17.8311  -37.6644 H         1 UNK         0.0600 
    167 H167        3.0022  -19.1061  -38.6885 H         1 UNK         0.0600 
    168 H168        3.4572  -17.4329  -38.9880 H         1 UNK         0.0600 
    169 H169        1.5419  -15.8675  -39.1619 H         1 UNK         0.3000 
    170 H170       -1.2312  -14.4144  -40.8674 H         1 UNK         0.0600 
    171 H171       -2.0191  -14.8383  -38.5319 H         1 UNK         0.0600 
    172 H172       -0.4316  -14.4056  -37.9081 H         1 UNK         0.0600 
    173 H173       -1.4243  -13.1974  -38.7243 H         1 UNK         0.0600 
    174 H174        0.9473  -13.1630  -39.5982 H         1 UNK         0.3000 
    175 H175        2.2928  -11.8945  -41.1697 H         1 UNK         0.0600 
    176 H176        4.1042  -14.3945  -41.2036 H         1 UNK         0.0600 
    177 H177        4.6522  -12.7490  -40.8949 H         1 UNK         0.0600 
    178 H178        3.5792  -13.5426  -39.7547 H         1 UNK         0.0600 
    179 H179        2.5070  -13.4684  -43.5637 H         1 UNK         0.3000 
    180 H180        3.5078  -10.7721  -45.5134 H         1 UNK         0.0600 
    181 H181        5.2280  -13.2879  -45.1654 H         1 UNK         0.0600 
    182 H182        5.8167  -11.6309  -45.0873 H         1 UNK         0.0600 
    183 H183        5.1769  -12.2598  -46.5977 H         1 UNK         0.0600 
    184 H184        2.9930  -13.5011  -46.2003 H         1 UNK         0.3000 
    185 H185        0.6348  -14.4033  -46.0767 H         1 UNK         0.0600 
    186 H186       -1.3687  -12.9410  -45.5527 H         1 UNK         0.0600 
    187 H187       -1.2453  -12.2337  -47.1543 H         1 UNK         0.0600 
    188 H188       -1.6087  -13.9495  -46.9702 H         1 UNK         0.0600 
    189 H189        0.2932  -13.1722  -48.6795 H         1 UNK         0.3000 
    190 H190       -1.9132  -20.3006  -46.3634 H         1 UNK         0.3000 
    191 H191       -3.7878  -20.8453  -48.4338 H         1 UNK         0.0600 
    192 H192       -4.1969  -20.5874  -45.4143 H         1 UNK         0.0600 
    193 H193       -5.4874  -20.6095  -46.6108 H         1 UNK         0.0600 
    194 H194       -4.3220  -19.2970  -46.6102 H         1 UNK         0.0600 
    195 H195       -2.6563  -22.8445  -45.6704 H         1 UNK         0.3000 
    196 H196       -4.3549  -25.0819  -46.1618 H         1 UNK         0.0600 
    197 H197       -2.7502  -26.2958  -44.6936 H         1 UNK         0.0600 
    198 H198       -3.1935  -24.7407  -44.0055 H         1 UNK         0.0600 
    199 H199       -1.6247  -24.9473  -44.7771 H         1 UNK         0.0600 
    200 H200       -0.9936  -24.3628  -47.2333 H         1 UNK         0.3000 
    201 H201       -0.5850  -26.6785  -48.8083 H         1 UNK         0.0600 
    202 H202        1.2250  -25.1066  -48.0799 H         1 UNK         0.0600 
    203 H203        0.5990  -23.8753  -49.1760 H         1 UNK         0.0600 
    204 H204        1.2606  -25.3712  -49.8173 H         1 UNK         0.0600 
    205 H205       -2.1389  -23.5922  -49.5947 H         1 UNK         0.3000 
    206 H206       -2.6315  -24.1211  -52.3762 H         1 UNK         0.0600 
    207 H207       -2.4560  -21.8325  -51.4241 H         1 UNK         0.0600 
    208 H208       -4.0376  -22.0416  -52.1481 H         1 UNK         0.0600 
    209 H209       -3.8505  -22.1195  -50.4057 H         1 UNK         0.0600 
    210 H210       -3.8839  -25.8349  -49.8893 H         1 UNK         0.3000 
    211 H211       -5.5883  -27.1874  -49.5498 H         1 UNK         0.0600 
    212 H212       -6.3633  -26.7526  -52.4840 H         1 UNK         0.0600 
    213 H213       -6.8947  -28.0672  -51.4478 H         1 UNK         0.0600 
    214 H214       -5.2009  -27.9394  -51.8956 H         1 UNK         0.0600 
    215 H215       -5.9280  -24.9172  -48.4214 H         1 UNK         0.3000 
    216 H216       -7.3121  -23.6183  -47.3094 H         1 UNK         0.0600 
    217 H217       -9.7259  -24.0154  -47.1710 H         1 UNK         0.0600 
    218 H218       -8.8859  -25.5566  -47.1132 H         1 UNK         0.0600 
    219 H219       -9.7000  -25.0461  -48.5918 H         1 UNK         0.0600 
    220 H220       -6.0450  -22.6353  -49.3412 H         1 UNK         0.3000 
    221 H221       -5.7916  -20.9316  -50.7554 H         1 UNK         0.0600 
    222 H222       -8.3177  -19.7760  -49.4831 H         1 UNK         0.0600 
    223 H223       -6.6929  -19.6679  -48.8060 H         1 UNK         0.0600 
    224 H224       -7.0638  -18.8797  -50.3293 H         1 UNK         0.0600 
    225 H225       -7.0265  -23.1780  -51.9419 H         1 UNK         0.3000 
    226 H226       -9.0146  -22.2208  -53.8704 H         1 UNK         0.0600 
    227 H227       -9.0411  -24.5878  -53.0856 H         1 UNK         0.0600 
    228 H228       -8.7823  -24.4892  -54.8215 H         1 UNK         0.0600 
    229 H229       -7.4317  -24.8427  -53.7539 H         1 UNK         0.0600 
    230 H230       -5.5186  -22.9496  -53.7346 H         1 UNK         0.3000 
    231 H231       -4.9843  -21.9584  -56.4436 H         1 UNK         0.0600 
    232 H232       -3.5643  -23.7416  -55.3355 H         1 UNK         0.0600 
    233 H233       -3.0149  -22.5401  -54.1680 H         1 UNK         0.0600 
    234 H234       -2.6389  -22.3456  -55.8672 H         1 UNK         0.0600 
    235 H235       -3.9087  -20.0010  -56.9194 H         1 UNK         0.3000 
    236 H236       -4.7524  -17.7382  -55.3274 H         1 UNK         0.0600 
    237 H237       -3.9906  -16.4559  -57.3080 H         1 UNK         0.0600 
    238 H238       -3.2551  -17.9018  -57.9916 H         1 UNK         0.0600 
    239 H239       -5.0048  -17.8028  -57.7925 H         1 UNK         0.0600 
    240 H240       -3.0948  -18.9098  -53.6386 H         1 UNK         0.3000 
    241 H241       -0.3890  -17.7789  -53.7751 H         1 UNK         0.0600 
    242 H242       -2.6706  -15.1621  -51.7326 H         1 UNK         0.3800 
    243 H243       -3.3670  -16.3607  -52.7875 H         1 UNK         0.3800 
    244 H244       -0.0594  -18.8955  -51.5634 H         1 UNK         0.0800 
    245 H245       -1.7349  -19.3479  -51.5357 H         1 UNK         0.0800 
    246 H246        1.0602  -19.7300  -54.6333 H         1 UNK         0.0800 
    247 H247        1.5300  -21.3453  -54.1690 H         1 UNK         0.0800 
@<TRIPOS>BOND
     1    1    2 1    
     2    1  127 1    
     3    1  128 1    
     4    1  129 1    
     5    2    3 2    
     6    2    4 am   BACKBONE|DICT|INTERRES
     7    4    5 1    
     8    4  130 1    
     9    5    6 1    
    10    5   65 1    
    11    5  131 1    
    12    6    7 1    
    13    6  132 1    
    14    6  133 1    
    15    7    8 1    
    16    8    9 1    
    17    8  134 1    
    18    8  135 1    
    19    9   10 ar   
    20    9   14 ar   
    21   10   11 ar   
    22   10  136 1    
    23   11   12 ar   
    24   11  126 1    
    25   12   13 ar   
    26   12  137 1    
    27   13   14 ar   
    28   13   15 1    
    29   14  138 1    
    30   15   16 1    
    31   15  139 1    
    32   15  140 1    
    33   16   17 1    
    34   17   18 1    
    35   17  141 1    
    36   17  142 1    
    37   18   19 1    
    38   18   67 1    
    39   18  143 1    
    40   19   20 am   BACKBONE|DICT|INTERRES
    41   19  144 1    
    42   20   21 2    
    43   20   22 1    
    44   22   23 1    
    45   22   24 1    
    46   22  145 1    
    47   23  146 1    
    48   23  147 1    
    49   23  148 1    
    50   24   25 am   BACKBONE|DICT|INTERRES
    51   24  149 1    
    52   25   26 2    
    53   25   27 1    
    54   27   28 1    
    55   27   29 1    
    56   27  150 1    
    57   28  151 1    
    58   28  152 1    
    59   28  153 1    
    60   29   30 am   BACKBONE|DICT|INTERRES
    61   29  154 1    
    62   30   31 2    
    63   30   32 1    
    64   32   33 1    
    65   32   34 1    
    66   32  155 1    
    67   33  156 1    
    68   33  157 1    
    69   33  158 1    
    70   34   35 am   BACKBONE|DICT|INTERRES
    71   34  159 1    
    72   35   36 2    
    73   35   37 1    
    74   37   38 1    
    75   37   39 1    
    76   37  160 1    
    77   38  161 1    
    78   38  162 1    
    79   38  163 1    
    80   39   40 am   BACKBONE|DICT|INTERRES
    81   39  164 1    
    82   40   41 2    
    83   40   42 1    
    84   42   43 1    
    85   42   44 1    
    86   42  165 1    
    87   43  166 1    
    88   43  167 1    
    89   43  168 1    
    90   44   45 am   BACKBONE|DICT|INTERRES
    91   44  169 1    
    92   45   46 2    
    93   45   47 1    
    94   47   48 1    
    95   47   49 1    
    96   47  170 1    
    97   48  171 1    
    98   48  172 1    
    99   48  173 1    
   100   49   50 am   BACKBONE|DICT|INTERRES
   101   49  174 1    
   102   50   51 2    
   103   50   52 1    
   104   52   53 1    
   105   52   54 1    
   106   52  175 1    
   107   53  176 1    
   108   53  177 1    
   109   53  178 1    
   110   54   55 am   BACKBONE|DICT|INTERRES
   111   54  179 1    
   112   55   56 2    
   113   55   57 1    
   114   57   58 1    
   115   57   59 1    
   116   57  180 1    
   117   58  181 1    
   118   58  182 1    
   119   58  183 1    
   120   59   60 am   BACKBONE|DICT|INTERRES
   121   59  184 1    
   122   60   61 2    
   123   60   62 1    
   124   62   63 1    
   125   62   64 1    
   126   62  185 1    
   127   63  186 1    
   128   63  187 1    
   129   63  188 1    
   130   64   65 am   BACKBONE|DICT|INTERRES
   131   64  189 1    
   132   65   66 2    
   133   67   68 2    
   134   67   69 am   BACKBONE|DICT|INTERRES
   135   69   70 1    
   136   69  190 1    
   137   70   71 1    
   138   70   72 1    
   139   70  191 1    
   140   71  192 1    
   141   71  193 1    
   142   71  194 1    
   143   72   73 2    
   144   72   74 am   BACKBONE|DICT|INTERRES
   145   74   75 1    
   146   74  195 1    
   147   75   76 1    
   148   75   77 1    
   149   75  196 1    
   150   76  197 1    
   151   76  198 1    
   152   76  199 1    
   153   77   78 2    
   154   77   79 am   BACKBONE|DICT|INTERRES
   155   79   80 1    
   156   79  200 1    
   157   80   81 1    
   158   80   82 1    
   159   80  201 1    
   160   81  202 1    
   161   81  203 1    
   162   81  204 1    
   163   82   83 2    
   164   82   84 am   BACKBONE|DICT|INTERRES
   165   84   85 1    
   166   84  205 1    
   167   85   86 1    
   168   85   87 1    
   169   85  206 1    
   170   86  207 1    
   171   86  208 1    
   172   86  209 1    
   173   87   88 2    
   174   87   89 am   BACKBONE|DICT|INTERRES
   175   89   90 1    
   176   89  210 1    
   177   90   91 1    
   178   90   92 1    
   179   90  211 1    
   180   91  212 1    
   181   91  213 1    
   182   91  214 1    
   183   92   93 2    
   184   92   94 am   BACKBONE|DICT|INTERRES
   185   94   95 1    
   186   94  215 1    
   187   95   96 1    
   188   95   97 1    
   189   95  216 1    
   190   96  217 1    
   191   96  218 1    
   192   96  219 1    
   193   97   98 2    
   194   97   99 am   BACKBONE|DICT|INTERRES
   195   99  100 1    
   196   99  220 1    
   197  100  101 1    
   198  100  102 1    
   199  100  221 1    
   200  101  222 1    
   201  101  223 1    
   202  101  224 1    
   203  102  103 2    
   204  102  104 am   BACKBONE|DICT|INTERRES
   205  104  105 1    
   206  104  225 1    
   207  105  106 1    
   208  105  107 1    
   209  105  226 1    
   210  106  227 1    
   211  106  228 1    
   212  106  229 1    
   213  107  108 2    
   214  107  109 am   BACKBONE|DICT|INTERRES
   215  109  110 1    
   216  109  230 1    
   217  110  111 1    
   218  110  112 1    
   219  110  231 1    
   220  111  232 1    
   221  111  233 1    
   222  111  234 1    
   223  112  113 2    
   224  112  114 am   BACKBONE|DICT|INTERRES
   225  114  115 1    
   226  114  235 1    
   227  115  116 1    
   228  115  117 1    
   229  115  236 1    
   230  116  237 1    
   231  116  238 1    
   232  116  239 1    
   233  117  118 2    
   234  117  119 am   BACKBONE|DICT|INTERRES
   235  119  120 1    
   236  119  240 1    
   237  120  121 1    
   238  120  124 1    
   239  120  241 1    
   240  121  122 am   BACKBONE|DICT|INTERRES
   241  121  123 2    
   242  122  242 1    
   243  122  243 1    
   244  124  125 1    
   245  124  244 1    
   246  124  245 1    
   247  125  126 1    
   248  126  246 1    
   249  126  247 1    
@<TRIPOS>SUBSTRUCTURE
     1 UNK         1 GROUP             0       ****    0 ROOT    
