@<TRIPOS>MOLECULE
3R540
247   249    1
SMALL
USER_CHARGES


@<TRIPOS>ATOM
      1 CA         -4.0164  -19.4766  -43.1326 C.3       0 UNK        -0.1800 
      2 C          -4.0331  -19.2458  -44.6362 C.2       0 UNK         0.5000 
      3 O          -4.4284  -20.1338  -45.3890 O.2       0 UNK        -0.5000 
      4 N          -3.6141  -18.0564  -45.0776 N.am      1 UNK        -0.5000 
      5 CA         -3.5743  -17.6558  -46.4801 C.3       1 UNK         0.1400 
      6 C6         -2.3798  -18.2885  -47.2372 C.3       23 UNK        -0.0398 
      7 S7         -2.6488  -18.3015  -49.0423 S.3       23 UNK        -0.2404 
      8 C8         -1.5096  -16.9981  -49.6249 C.3       23 UNK        -0.0205 
      9 C9         -0.1715  -17.5639  -50.0820 C.ar      23 UNK        -0.0193 
     10 C10         0.3146  -17.3094  -51.3691 C.ar      23 UNK        -0.1150 
     11 C11         1.5132  -17.8889  -51.8029 C.ar      23 UNK        -0.0193 
     12 C12         2.2084  -18.7514  -50.9466 C.ar      23 UNK        -0.1150 
     13 C13         1.7397  -18.9997  -49.6531 C.ar      23 UNK        -0.0193 
     14 C14         0.5773  -18.3642  -49.2192 C.ar      23 UNK        -0.1150 
     15 C15         2.4775  -19.9542  -48.7242 C.3       23 UNK        -0.0205 
     16 S16         1.7234  -21.6154  -48.7064 S.3       23 UNK        -0.2404 
     17 C17         0.3910  -21.4333  -47.4650 C.3       23 UNK        -0.0398 
     18 CA          0.6909  -22.1180  -46.1080 C.3       11 UNK         0.1400 
     19 N           1.8679  -21.5445  -45.4464 N.am      11 UNK        -0.5000 
     20 C           3.0725  -22.1337  -45.4230 C.2       10 UNK         0.5000 
     21 O           3.2877  -23.2649  -45.8605 O.2       10 UNK        -0.5000 
     22 CA          4.2431  -21.3485  -44.8134 C.3       10 UNK         0.1400 
     23 CB          4.7092  -20.2150  -45.7418 C.3       10 UNK        -0.1800 
     24 N           3.8925  -20.8038  -43.5056 N.am      10 UNK        -0.5000 
     25 C           4.5935  -21.0115  -42.3824 C.2       9 UNK         0.5000 
     26 O           5.6397  -21.6600  -42.3322 O.2       9 UNK        -0.5000 
     27 CA          4.0314  -20.3995  -41.0863 C.3       9 UNK         0.1400 
     28 CB          4.5973  -18.9897  -40.8750 C.3       9 UNK        -0.1800 
     29 N           2.5709  -20.3387  -41.0793 N.am      9 UNK        -0.5000 
     30 C           1.7621  -21.4018  -41.0043 C.2       8 UNK         0.5000 
     31 O           2.1720  -22.5551  -40.8683 O.2       8 UNK        -0.5000 
     32 CA          0.2465  -21.1614  -41.1340 C.3       8 UNK         0.1400 
     33 CB         -0.4318  -21.0589  -39.7553 C.3       8 UNK        -0.1800 
     34 N          -0.1332  -20.0425  -42.0079 N.am      8 UNK        -0.5000 
     35 C           0.0350  -18.7281  -41.8203 C.2       7 UNK         0.5000 
     36 O           0.5922  -18.2343  -40.8384 O.2       7 UNK        -0.5000 
     37 CA         -0.4726  -17.8118  -42.9475 C.3       7 UNK         0.1400 
     38 CB         -1.5143  -16.8191  -42.4093 C.3       7 UNK        -0.1800 
     39 N           0.6170  -17.0677  -43.5738 N.am      7 UNK        -0.5000 
     40 C           1.6702  -17.6131  -44.2010 C.2       6 UNK         0.5000 
     41 O           1.8265  -18.8281  -44.3468 O.2       6 UNK        -0.5000 
     42 CA          2.7252  -16.6461  -44.7778 C.3       6 UNK         0.1400 
     43 CB          2.5074  -16.4807  -46.2870 C.3       6 UNK        -0.1800 
     44 N           2.7133  -15.3209  -44.1522 N.am      6 UNK        -0.5000 
     45 C           3.0991  -15.0745  -42.8915 C.2       5 UNK         0.5000 
     46 O           3.5770  -15.9329  -42.1520 O.2       5 UNK        -0.5000 
     47 CA          2.9220  -13.6433  -42.3447 C.3       5 UNK         0.1400 
     48 CB          4.2808  -12.9307  -42.2571 C.3       5 UNK        -0.1800 
     49 N           1.9989  -12.7960  -43.1021 N.am      5 UNK        -0.5000 
     50 C           0.6927  -13.0212  -43.2973 C.2       4 UNK         0.5000 
     51 O           0.1058  -14.0267  -42.8978 O.2       4 UNK        -0.5000 
     52 CA         -0.0895  -11.9556  -44.0936 C.3       4 UNK         0.1400 
     53 CB          0.6423  -10.5991  -44.2077 C.3       4 UNK        -0.1800 
     54 N          -0.4836  -12.4176  -45.4280 N.am      4 UNK        -0.5000 
     55 C           0.3047  -12.9404  -46.3805 C.2       3 UNK         0.5000 
     56 O           1.4983  -13.2037  -46.2213 O.2       3 UNK        -0.5000 
     57 CA         -0.3726  -13.2004  -47.7372 C.3       3 UNK         0.1400 
     58 CB          0.4475  -14.1030  -48.6795 C.3       3 UNK        -0.1800 
     59 N          -1.7223  -13.7338  -47.5430 N.am      3 UNK        -0.5000 
     60 C          -2.7625  -13.5185  -48.3556 C.2       2 UNK         0.5000 
     61 O          -2.6771  -12.8813  -49.4066 O.2       2 UNK        -0.5000 
     62 CA         -4.1193  -14.1185  -47.9193 C.3       2 UNK         0.1400 
     63 CB         -5.2286  -13.8882  -48.9621 C.3       2 UNK        -0.1800 
     64 N          -4.0446  -15.5537  -47.6393 N.am      2 UNK        -0.5000 
     65 C          -3.5402  -16.1193  -46.5372 C.2       1 UNK         0.5000 
     66 O          -3.0377  -15.4795  -45.6092 O.2       1 UNK        -0.5000 
     67 C          -0.5335  -21.9947  -45.1839 C.2       11 UNK         0.5000 
     68 O          -0.7527  -20.9324  -44.5984 O.2       11 UNK        -0.5000 
     69 N          -1.3307  -23.0648  -45.1105 N.am      12 UNK        -0.5000 
     70 CA         -2.6289  -23.1571  -44.4478 C.3       12 UNK         0.1400 
     71 CB         -2.4823  -23.0738  -42.9165 C.3       12 UNK        -0.1800 
     72 C          -3.2977  -24.4727  -44.8754 C.2       12 UNK         0.5000 
     73 O          -2.6531  -25.3005  -45.5277 O.2       12 UNK        -0.5000 
     74 N          -4.5730  -24.6449  -44.4999 N.am      13 UNK        -0.5000 
     75 CA         -5.4158  -25.8161  -44.7672 C.3       13 UNK         0.1400 
     76 CB         -4.9269  -27.0324  -43.9481 C.3       13 UNK        -0.1800 
     77 C          -5.5399  -26.0814  -46.2812 C.2       13 UNK         0.5000 
     78 O          -6.0890  -25.2387  -46.9900 O.2       13 UNK        -0.5000 
     79 N          -4.9972  -27.2058  -46.7662 N.am      14 UNK        -0.5000 
     80 CA         -4.9515  -27.5641  -48.1862 C.3       14 UNK         0.1400 
     81 CB         -4.4064  -28.9934  -48.3247 C.3       14 UNK        -0.1800 
     82 C          -4.1241  -26.5856  -49.0454 C.2       14 UNK         0.5000 
     83 O          -4.4193  -26.4245  -50.2301 O.2       14 UNK        -0.5000 
     84 N          -3.1253  -25.9298  -48.4365 N.am      15 UNK        -0.5000 
     85 CA         -2.2731  -24.9372  -49.0905 C.3       15 UNK         0.1400 
     86 CB         -0.8881  -24.9313  -48.4253 C.3       15 UNK        -0.1800 
     87 C          -2.8913  -23.5257  -49.1148 C.2       15 UNK         0.5000 
     88 O          -2.3162  -22.6449  -49.7502 O.2       15 UNK        -0.5000 
     89 N          -4.0570  -23.3164  -48.4786 N.am      16 UNK        -0.5000 
     90 CA         -4.7926  -22.0421  -48.5006 C.3       16 UNK         0.1400 
     91 CB         -5.9774  -22.1123  -47.5281 C.3       16 UNK        -0.1800 
     92 C          -5.2805  -21.6392  -49.9091 C.2       16 UNK         0.5000 
     93 O          -5.5147  -20.4570  -50.1605 O.2       16 UNK        -0.5000 
     94 N          -5.3643  -22.6205  -50.8217 N.am      17 UNK        -0.5000 
     95 CA         -5.6065  -22.4501  -52.2564 C.3       17 UNK         0.1400 
     96 CB         -5.7184  -23.8368  -52.9065 C.3       17 UNK        -0.1800 
     97 C          -4.5372  -21.6031  -52.9790 C.2       17 UNK         0.5000 
     98 O          -4.8077  -21.0968  -54.0700 O.2       17 UNK        -0.5000 
     99 N          -3.3657  -21.4102  -52.3512 N.am      18 UNK        -0.5000 
    100 CA        -2.3138  -20.4950  -52.7933 C.3       18 UNK         0.1400 
    101 CB        -1.1017  -20.6184  -51.8627 C.3       18 UNK        -0.1800 
    102 C         -2.7811  -19.0307  -52.9198 C.2       18 UNK         0.5000 
    103 O         -2.2384  -18.3037  -53.7477 O.2       18 UNK        -0.5000 
    104 N         -3.8302  -18.6401  -52.1781 N.am      19 UNK        -0.5000 
    105 CA        -4.5001  -17.3421  -52.2989 C.3       19 UNK         0.1400 
    106 CB        -5.5888  -17.2280  -51.2206 C.3       19 UNK        -0.1800 
    107 C         -5.1081  -17.0941  -53.6941 C.2       19 UNK         0.5000 
    108 O         -5.1912  -15.9408  -54.1179 O.2       19 UNK        -0.5000 
    109 N         -5.5034  -18.1738  -54.3822 N.am      20 UNK        -0.5000 
    110 CA        -5.9456  -18.1497  -55.7714 C.3       20 UNK         0.1400 
    111 CB        -7.0799  -19.1686  -55.9673 C.3       20 UNK        -0.1800 
    112 C         -4.7698  -18.4459  -56.7157 C.2       20 UNK         0.5000 
    113 O         -4.5601  -17.6971  -57.6710 O.2       20 UNK        -0.5000 
    114 N         -4.0212  -19.5253  -56.4379 N.am      21 UNK        -0.5000 
    115 CA        -2.9716  -20.0502  -57.3185 C.3       21 UNK         0.1400 
    116 CB        -2.5034  -21.4232  -56.8145 C.3       21 UNK        -0.1800 
    117 C         -1.7737  -19.1028  -57.5289 C.2       21 UNK         0.5000 
    118 O         -1.2018  -19.1010  -58.6201 O.2       21 UNK        -0.5000 
    119 N         -1.4316  -18.2997  -56.5130 N.am      22 UNK        -0.5000 
    120 CA        -0.4188  -17.2338  -56.6040 C.3       22 UNK         0.1400 
    121 C         -0.9352  -15.9267  -57.2808 C.2       22 UNK         0.5000 
    122 N         -2.1976  -15.8186  -57.6808 N.am      22 UNK        -0.7600 
    123 O         -0.1660  -14.9869  -57.4635 O.2       22 UNK        -0.5000 
    124 C124        0.2419  -16.9302  -55.2324 C.3       23 UNK        -0.0398 
    125 S125        1.1151  -18.3701  -54.5222 S.3       23 UNK        -0.2404 
    126 C126        2.0695  -17.5777  -53.1864 C.3       23 UNK        -0.0205 
    127 H127       -4.3090  -18.5754  -42.5943 H         1 UNK         0.0600 
    128 H128       -3.0195  -19.7716  -42.8076 H         1 UNK         0.0600 
    129 H129       -4.7117  -20.2707  -42.8602 H         1 UNK         0.0600 
    130 H130       -3.3398  -17.3228  -44.4364 H         1 UNK         0.3000 
    131 H131       -4.5100  -17.9836  -46.9398 H         1 UNK         0.0600 
    132 H132       -1.4456  -17.7912  -46.9734 H         1 UNK         0.0800 
    133 H133       -2.2532  -19.3302  -46.9392 H         1 UNK         0.0800 
    134 H134       -1.3512  -16.2672  -48.8353 H         1 UNK         0.0800 
    135 H135       -1.9912  -16.4636  -50.4441 H         1 UNK         0.0800 
    136 H136       -0.2442  -16.6737  -52.0410 H         1 UNK         0.1150 
    137 H137        3.1188  -19.2261  -51.2845 H         1 UNK         0.1150 
    138 H138        0.2290  -18.5200  -48.2146 H         1 UNK         0.1150 
    139 H139        3.5189  -20.0463  -49.0355 H         1 UNK         0.0800 
    140 H140        2.4966  -19.5549  -47.7113 H         1 UNK         0.0800 
    141 H141        0.1797  -20.3822  -47.2925 H         1 UNK         0.0800 
    142 H142       -0.5158  -21.8463  -47.9083 H         1 UNK         0.0800 
    143 H143        0.8507  -23.1819  -46.2951 H         1 UNK         0.0600 
    144 H144        1.7421  -20.6170  -45.0482 H         1 UNK         0.3000 
    145 H145        5.0715  -22.0539  -44.7201 H         1 UNK         0.0600 
    146 H146        3.9546  -19.4368  -45.8444 H         1 UNK         0.0600 
    147 H147        5.6167  -19.7470  -45.3605 H         1 UNK         0.0600 
    148 H148        4.9324  -20.5934  -46.7401 H         1 UNK         0.0600 
    149 H149        3.0489  -20.2435  -43.4642 H         1 UNK         0.3000 
    150 H150        4.3502  -21.0259  -40.2505 H         1 UNK         0.0600 
    151 H151        5.6837  -19.0149  -40.7827 H         1 UNK         0.0600 
    152 H152        4.2019  -18.5313  -39.9684 H         1 UNK         0.0600 
    153 H153        4.3560  -18.3398  -41.7154 H         1 UNK         0.0600 
    154 H154        2.1394  -19.4218  -41.1336 H         1 UNK         0.3000 
    155 H155       -0.1422  -22.0550  -41.6205 H         1 UNK         0.0600 
    156 H156       -1.5129  -20.9616  -39.8553 H         1 UNK         0.0600 
    157 H157       -0.0679  -20.2057  -39.1826 H         1 UNK         0.0600 
    158 H158       -0.2395  -21.9532  -39.1614 H         1 UNK         0.0600 
    159 H159       -0.4928  -20.3315  -42.9175 H         1 UNK         0.3000 
    160 H160       -0.9459  -18.4182  -43.7215 H         1 UNK         0.0600 
    161 H161       -1.0846  -16.1598  -41.6541 H         1 UNK         0.0600 
    162 H162       -2.3511  -17.3386  -41.9434 H         1 UNK         0.0600 
    163 H163       -1.9143  -16.1916  -43.2054 H         1 UNK         0.0600 
    164 H164        0.5875  -16.0607  -43.4629 H         1 UNK         0.3000 
    165 H165        3.7087  -17.0923  -44.6166 H         1 UNK         0.0600 
    166 H166        1.5060  -16.1073  -46.4969 H         1 UNK         0.0600 
    167 H167        3.2258  -15.7859  -46.7225 H         1 UNK         0.0600 
    168 H168        2.6179  -17.4312  -46.8066 H         1 UNK         0.0600 
    169 H169        2.3404  -14.5574  -44.7057 H         1 UNK         0.3000 
    170 H170        2.5210  -13.7383  -41.3337 H         1 UNK         0.0600 
    171 H171        4.9915  -13.5115  -41.6674 H         1 UNK         0.0600 
    172 H172        4.7191  -12.7809  -43.2447 H         1 UNK         0.0600 
    173 H173        4.1864  -11.9557  -41.7787 H         1 UNK         0.0600 
    174 H174        2.3963  -11.9624  -43.5099 H         1 UNK         0.3000 
    175 H175       -1.0129  -11.7843  -43.5384 H         1 UNK         0.0600 
    176 H176        1.5482  -10.6672  -44.8113 H         1 UNK         0.0600 
    177 H177       -0.0014   -9.8506  -44.6699 H         1 UNK         0.0600 
    178 H178        0.9205  -10.2153  -43.2251 H         1 UNK         0.0600 
    179 H179       -1.4568  -12.2770  -45.6582 H         1 UNK         0.3000 
    180 H180       -0.4502  -12.2188  -48.2093 H         1 UNK         0.0600 
    181 H181        0.5708  -15.1049  -48.2740 H         1 UNK         0.0600 
    182 H182        1.4440  -13.6935  -48.8484 H         1 UNK         0.0600 
    183 H183       -0.0300  -14.1938  -49.6552 H         1 UNK         0.0600 
    184 H184       -1.8826  -14.2735  -46.6967 H         1 UNK         0.3000 
    185 H185       -4.4147  -13.6024  -47.0035 H         1 UNK         0.0600 
    186 H186       -5.3727  -12.8241  -49.1536 H         1 UNK         0.0600 
    187 H187       -4.9907  -14.3646  -49.9140 H         1 UNK         0.0600 
    188 H188       -6.1839  -14.2849  -48.6178 H         1 UNK         0.0600 
    189 H189       -4.3913  -16.1584  -48.3696 H         1 UNK         0.3000 
    190 H190       -1.0938  -23.9151  -45.6076 H         1 UNK         0.3000 
    191 H191       -3.2584  -22.3409  -44.8005 H         1 UNK         0.0600 
    192 H192       -3.4221  -23.2907  -42.4079 H         1 UNK         0.0600 
    193 H193       -2.1921  -22.0719  -42.6079 H         1 UNK         0.0600 
    194 H194       -1.7379  -23.7787  -42.5451 H         1 UNK         0.0600 
    195 H195       -5.0294  -23.8952  -43.9997 H         1 UNK         0.3000 
    196 H196       -6.4193  -25.5663  -44.4196 H         1 UNK         0.0600 
    197 H197       -5.5794  -27.8941  -44.0949 H         1 UNK         0.0600 
    198 H198       -4.9332  -26.8069  -42.8816 H         1 UNK         0.0600 
    199 H199       -3.9122  -27.3323  -44.2117 H         1 UNK         0.0600 
    200 H200       -4.5377  -27.8348  -46.1238 H         1 UNK         0.3000 
    201 H201       -5.9745  -27.5494  -48.5679 H         1 UNK         0.0600 
    202 H202       -5.0316  -29.7083  -47.7895 H         1 UNK         0.0600 
    203 H203       -3.3909  -29.0760  -47.9353 H         1 UNK         0.0600 
    204 H204       -4.3833  -29.3032  -49.3704 H         1 UNK         0.0600 
    205 H205       -2.9722  -26.0710  -47.4434 H         1 UNK         0.3000 
    206 H206       -2.1274  -25.2309  -50.1322 H         1 UNK         0.0600 
    207 H207       -0.4323  -25.9209  -48.4572 H         1 UNK         0.0600 
    208 H208       -0.2101  -24.2478  -48.9381 H         1 UNK         0.0600 
    209 H209       -0.9394  -24.6214  -47.3846 H         1 UNK         0.0600 
    210 H210       -4.5061  -24.0873  -47.9992 H         1 UNK         0.3000 
    211 H211       -4.1128  -21.2609  -48.1527 H         1 UNK         0.0600 
    212 H212       -6.7353  -22.8196  -47.8658 H         1 UNK         0.0600 
    213 H213       -6.4577  -21.1376  -47.4337 H         1 UNK         0.0600 
    214 H214       -5.6548  -22.4109  -46.5305 H         1 UNK         0.0600 
    215 H215       -5.1556  -23.5601  -50.5160 H         1 UNK         0.3000 
    216 H216       -6.5611  -21.9337  -52.3738 H         1 UNK         0.0600 
    217 H217       -4.7971  -24.4097  -52.7913 H         1 UNK         0.0600 
    218 H218       -5.9233  -23.7539  -53.9748 H         1 UNK         0.0600 
    219 H219       -6.5300  -24.4157  -52.4652 H         1 UNK         0.0600 
    220 H220       -3.2075  -21.8589  -51.4554 H         1 UNK         0.3000 
    221 H221       -1.9981  -20.8178  -53.7831 H         1 UNK         0.0600 
    222 H222       -1.3338  -20.2963  -50.8477 H         1 UNK         0.0600 
    223 H223       -0.7408  -21.6455  -51.8131 H         1 UNK         0.0600 
    224 H224       -0.2756  -20.0076  -52.2231 H         1 UNK         0.0600 
    225 H225       -4.2270  -19.2919  -51.5109 H         1 UNK         0.3000 
    226 H226       -3.7547  -16.5647  -52.1222 H         1 UNK         0.0600 
    227 H227       -5.1719  -17.3230  -50.2193 H         1 UNK         0.0600 
    228 H228       -6.0917  -16.2616  -51.2723 H         1 UNK         0.0600 
    229 H229       -6.3499  -18.0004  -51.3380 H         1 UNK         0.0600 
    230 H230       -5.3577  -19.0894  -53.9743 H         1 UNK         0.3000 
    231 H231       -6.3403  -17.1629  -56.0230 H         1 UNK         0.0600 
    232 H232       -7.4322  -19.1645  -56.9995 H         1 UNK         0.0600 
    233 H233       -7.9333  -18.9316  -55.3319 H         1 UNK         0.0600 
    234 H234       -6.7629  -20.1854  -55.7334 H         1 UNK         0.0600 
    235 H235       -4.2603  -20.0900  -55.6281 H         1 UNK         0.3000 
    236 H236       -3.4328  -20.2027  -58.2966 H         1 UNK         0.0600 
    237 H237       -1.9182  -21.3411  -55.9014 H         1 UNK         0.0600 
    238 H238       -3.3457  -22.0877  -56.6204 H         1 UNK         0.0600 
    239 H239       -1.8699  -21.9093  -57.5573 H         1 UNK         0.0600 
    240 H240       -1.9205  -18.3647  -55.6240 H         1 UNK         0.3000 
    241 H241        0.3784  -17.5917  -57.2582 H         1 UNK         0.0600 
    242 H242       -2.8560  -16.5819  -57.5743 H         1 UNK         0.3800 
    243 H243       -2.5005  -14.9644  -58.1210 H         1 UNK         0.3800 
    244 H244        0.9726  -16.1273  -55.3433 H         1 UNK         0.0800 
    245 H245       -0.4982  -16.5682  -54.5184 H         1 UNK         0.0800 
    246 H246        3.1037  -17.9169  -53.2607 H         1 UNK         0.0800 
    247 H247        2.1026  -16.4963  -53.3237 H         1 UNK         0.0800 
@<TRIPOS>BOND
     1    1    2 1    
     2    1  127 1    
     3    1  128 1    
     4    1  129 1    
     5    2    3 2    
     6    2    4 am   BACKBONE|DICT|INTERRES
     7    4    5 1    
     8    4  130 1    
     9    5    6 1    
    10    5   65 1    
    11    5  131 1    
    12    6    7 1    
    13    6  132 1    
    14    6  133 1    
    15    7    8 1    
    16    8    9 1    
    17    8  134 1    
    18    8  135 1    
    19    9   10 ar   
    20    9   14 ar   
    21   10   11 ar   
    22   10  136 1    
    23   11   12 ar   
    24   11  126 1    
    25   12   13 ar   
    26   12  137 1    
    27   13   14 ar   
    28   13   15 1    
    29   14  138 1    
    30   15   16 1    
    31   15  139 1    
    32   15  140 1    
    33   16   17 1    
    34   17   18 1    
    35   17  141 1    
    36   17  142 1    
    37   18   19 1    
    38   18   67 1    
    39   18  143 1    
    40   19   20 am   BACKBONE|DICT|INTERRES
    41   19  144 1    
    42   20   21 2    
    43   20   22 1    
    44   22   23 1    
    45   22   24 1    
    46   22  145 1    
    47   23  146 1    
    48   23  147 1    
    49   23  148 1    
    50   24   25 am   BACKBONE|DICT|INTERRES
    51   24  149 1    
    52   25   26 2    
    53   25   27 1    
    54   27   28 1    
    55   27   29 1    
    56   27  150 1    
    57   28  151 1    
    58   28  152 1    
    59   28  153 1    
    60   29   30 am   BACKBONE|DICT|INTERRES
    61   29  154 1    
    62   30   31 2    
    63   30   32 1    
    64   32   33 1    
    65   32   34 1    
    66   32  155 1    
    67   33  156 1    
    68   33  157 1    
    69   33  158 1    
    70   34   35 am   BACKBONE|DICT|INTERRES
    71   34  159 1    
    72   35   36 2    
    73   35   37 1    
    74   37   38 1    
    75   37   39 1    
    76   37  160 1    
    77   38  161 1    
    78   38  162 1    
    79   38  163 1    
    80   39   40 am   BACKBONE|DICT|INTERRES
    81   39  164 1    
    82   40   41 2    
    83   40   42 1    
    84   42   43 1    
    85   42   44 1    
    86   42  165 1    
    87   43  166 1    
    88   43  167 1    
    89   43  168 1    
    90   44   45 am   BACKBONE|DICT|INTERRES
    91   44  169 1    
    92   45   46 2    
    93   45   47 1    
    94   47   48 1    
    95   47   49 1    
    96   47  170 1    
    97   48  171 1    
    98   48  172 1    
    99   48  173 1    
   100   49   50 am   BACKBONE|DICT|INTERRES
   101   49  174 1    
   102   50   51 2    
   103   50   52 1    
   104   52   53 1    
   105   52   54 1    
   106   52  175 1    
   107   53  176 1    
   108   53  177 1    
   109   53  178 1    
   110   54   55 am   BACKBONE|DICT|INTERRES
   111   54  179 1    
   112   55   56 2    
   113   55   57 1    
   114   57   58 1    
   115   57   59 1    
   116   57  180 1    
   117   58  181 1    
   118   58  182 1    
   119   58  183 1    
   120   59   60 am   BACKBONE|DICT|INTERRES
   121   59  184 1    
   122   60   61 2    
   123   60   62 1    
   124   62   63 1    
   125   62   64 1    
   126   62  185 1    
   127   63  186 1    
   128   63  187 1    
   129   63  188 1    
   130   64   65 am   BACKBONE|DICT|INTERRES
   131   64  189 1    
   132   65   66 2    
   133   67   68 2    
   134   67   69 am   BACKBONE|DICT|INTERRES
   135   69   70 1    
   136   69  190 1    
   137   70   71 1    
   138   70   72 1    
   139   70  191 1    
   140   71  192 1    
   141   71  193 1    
   142   71  194 1    
   143   72   73 2    
   144   72   74 am   BACKBONE|DICT|INTERRES
   145   74   75 1    
   146   74  195 1    
   147   75   76 1    
   148   75   77 1    
   149   75  196 1    
   150   76  197 1    
   151   76  198 1    
   152   76  199 1    
   153   77   78 2    
   154   77   79 am   BACKBONE|DICT|INTERRES
   155   79   80 1    
   156   79  200 1    
   157   80   81 1    
   158   80   82 1    
   159   80  201 1    
   160   81  202 1    
   161   81  203 1    
   162   81  204 1    
   163   82   83 2    
   164   82   84 am   BACKBONE|DICT|INTERRES
   165   84   85 1    
   166   84  205 1    
   167   85   86 1    
   168   85   87 1    
   169   85  206 1    
   170   86  207 1    
   171   86  208 1    
   172   86  209 1    
   173   87   88 2    
   174   87   89 am   BACKBONE|DICT|INTERRES
   175   89   90 1    
   176   89  210 1    
   177   90   91 1    
   178   90   92 1    
   179   90  211 1    
   180   91  212 1    
   181   91  213 1    
   182   91  214 1    
   183   92   93 2    
   184   92   94 am   BACKBONE|DICT|INTERRES
   185   94   95 1    
   186   94  215 1    
   187   95   96 1    
   188   95   97 1    
   189   95  216 1    
   190   96  217 1    
   191   96  218 1    
   192   96  219 1    
   193   97   98 2    
   194   97   99 am   BACKBONE|DICT|INTERRES
   195   99  100 1    
   196   99  220 1    
   197  100  101 1    
   198  100  102 1    
   199  100  221 1    
   200  101  222 1    
   201  101  223 1    
   202  101  224 1    
   203  102  103 2    
   204  102  104 am   BACKBONE|DICT|INTERRES
   205  104  105 1    
   206  104  225 1    
   207  105  106 1    
   208  105  107 1    
   209  105  226 1    
   210  106  227 1    
   211  106  228 1    
   212  106  229 1    
   213  107  108 2    
   214  107  109 am   BACKBONE|DICT|INTERRES
   215  109  110 1    
   216  109  230 1    
   217  110  111 1    
   218  110  112 1    
   219  110  231 1    
   220  111  232 1    
   221  111  233 1    
   222  111  234 1    
   223  112  113 2    
   224  112  114 am   BACKBONE|DICT|INTERRES
   225  114  115 1    
   226  114  235 1    
   227  115  116 1    
   228  115  117 1    
   229  115  236 1    
   230  116  237 1    
   231  116  238 1    
   232  116  239 1    
   233  117  118 2    
   234  117  119 am   BACKBONE|DICT|INTERRES
   235  119  120 1    
   236  119  240 1    
   237  120  121 1    
   238  120  124 1    
   239  120  241 1    
   240  121  122 am   BACKBONE|DICT|INTERRES
   241  121  123 2    
   242  122  242 1    
   243  122  243 1    
   244  124  125 1    
   245  124  244 1    
   246  124  245 1    
   247  125  126 1    
   248  126  246 1    
   249  126  247 1    
@<TRIPOS>SUBSTRUCTURE
     1 UNK         1 GROUP             0       ****    0 ROOT    
