@<TRIPOS>MOLECULE
3R540
247   249    1
SMALL
USER_CHARGES


@<TRIPOS>ATOM
      1 CA          7.2244  -15.1094  -48.7775 C.3       0 UNK        -0.1800 
      2 C           6.2421  -14.2918  -47.9514 C.2       0 UNK         0.5000 
      3 O           6.4145  -14.1708  -46.7381 O.2       0 UNK        -0.5000 
      4 N           5.2209  -13.7204  -48.6036 N.am      1 UNK        -0.5000 
      5 CA          4.1563  -12.9149  -47.9957 C.3       1 UNK         0.1400 
      6 C6          2.8734  -12.9386  -48.8701 C.3       23 UNK        -0.0398 
      7 S7          1.3545  -12.5001  -47.9536 S.3       23 UNK        -0.2404 
      8 C8          1.0265  -14.0085  -46.9842 C.3       23 UNK        -0.0205 
      9 C9          0.4703  -15.1385  -47.8347 C.ar      23 UNK        -0.0193 
     10 C10        -0.9077  -15.2373  -48.0461 C.ar      23 UNK        -0.1150 
     11 C11        -1.4330  -16.2609  -48.8391 C.ar      23 UNK        -0.0193 
     12 C12        -0.5635  -17.1720  -49.4443 C.ar      23 UNK        -0.1150 
     13 C13         0.8138  -17.1079  -49.2105 C.ar      23 UNK        -0.0193 
     14 C14         1.3241  -16.0932  -48.3958 C.ar      23 UNK        -0.1150 
     15 C15         1.7479  -18.1292  -49.8455 C.3       23 UNK        -0.0205 
     16 S16         1.9800  -19.6000  -48.7947 S.3       23 UNK        -0.2404 
     17 C17         0.2904  -20.2816  -48.7822 C.3       23 UNK        -0.0398 
     18 CA          0.2139  -21.7625  -48.3480 C.3       11 UNK         0.1400 
     19 N           0.6691  -21.9833  -46.9714 N.am      11 UNK        -0.5000 
     20 C           0.7566  -23.1821  -46.3751 C.2       10 UNK         0.5000 
     21 O           0.5325  -24.2513  -46.9421 O.2       10 UNK        -0.5000 
     22 CA          1.0875  -23.1867  -44.8740 C.3       10 UNK         0.1400 
     23 CB          2.5974  -23.0353  -44.6334 C.3       10 UNK        -0.1800 
     24 N           0.3555  -22.1425  -44.1574 N.am      10 UNK        -0.5000 
     25 C          -0.9670  -22.1667  -43.9371 C.2       9 UNK         0.5000 
     26 O          -1.7004  -23.0924  -44.2825 O.2       9 UNK        -0.5000 
     27 CA         -1.5801  -20.9352  -43.2457 C.3       9 UNK         0.1400 
     28 CB         -1.4591  -21.0542  -41.7194 C.3       9 UNK        -0.1800 
     29 N          -0.9725  -19.6787  -43.6836 N.am      9 UNK        -0.5000 
     30 C          -1.0683  -19.1860  -44.9266 C.2       8 UNK         0.5000 
     31 O          -1.7017  -19.7294  -45.8294 O.2       8 UNK        -0.5000 
     32 CA         -0.2742  -17.9011  -45.2178 C.3       8 UNK         0.1400 
     33 CB         -1.0737  -16.6654  -44.7818 C.3       8 UNK        -0.1800 
     34 N           1.0426  -17.8754  -44.5752 N.am      8 UNK        -0.5000 
     35 C           2.0229  -18.7661  -44.7864 C.2       7 UNK         0.5000 
     36 O           1.8742  -19.7790  -45.4685 O.2       7 UNK        -0.5000 
     37 CA          3.3768  -18.5245  -44.0848 C.3       7 UNK         0.1400 
     38 CB          4.5721  -18.8581  -45.0019 C.3       7 UNK        -0.1800 
     39 N           3.5154  -17.1889  -43.4894 N.am      7 UNK        -0.5000 
     40 C           3.5802  -16.0098  -44.1240 C.2       6 UNK         0.5000 
     41 O           3.5630  -15.8796  -45.3473 O.2       6 UNK        -0.5000 
     42 CA          3.6218  -14.7654  -43.2174 C.3       6 UNK         0.1400 
     43 CB          4.5815  -13.6940  -43.7616 C.3       6 UNK        -0.1800 
     44 N           2.2895  -14.1834  -43.0213 N.am      6 UNK        -0.5000 
     45 C           1.3002  -14.7542  -42.3139 C.2       5 UNK         0.5000 
     46 O           1.3846  -15.8872  -41.8386 O.2       5 UNK        -0.5000 
     47 CA          0.0113  -13.9470  -42.0549 C.3       5 UNK         0.1400 
     48 CB         -0.1630  -13.6911  -40.5485 C.3       5 UNK        -0.1800 
     49 N          -0.0045  -12.6559  -42.7410 N.am      5 UNK        -0.5000 
     50 C          -0.7348  -12.3697  -43.8256 C.2       4 UNK         0.5000 
     51 O          -1.5191  -13.1612  -44.3487 O.2       4 UNK        -0.5000 
     52 CA         -0.5662  -10.9639  -44.4434 C.3       4 UNK         0.1400 
     53 CB         -1.7763  -10.0818  -44.0986 C.3       4 UNK        -0.1800 
     54 N           0.6609  -10.2453  -44.0717 N.am      4 UNK        -0.5000 
     55 C           1.9061  -10.6756  -44.3043 C.2       3 UNK         0.5000 
     56 O           2.1679  -11.7986  -44.7424 O.2       3 UNK        -0.5000 
     57 CA          3.0534   -9.7175  -43.9577 C.3       3 UNK         0.1400 
     58 CB          3.3584   -9.7351  -42.4510 C.3       3 UNK        -0.1800 
     59 N           4.2177  -10.1786  -44.6971 N.am      3 UNK        -0.5000 
     60 C           5.1741   -9.4309  -45.2519 C.2       2 UNK         0.5000 
     61 O           5.2802   -8.2151  -45.0875 O.2       2 UNK        -0.5000 
     62 CA          6.1709  -10.1753  -46.1644 C.3       2 UNK         0.1400 
     63 CB          7.4575  -10.5102  -45.3950 C.3       2 UNK        -0.1800 
     64 N           5.6179  -11.4152  -46.7195 N.am      2 UNK        -0.5000 
     65 C           4.6541  -11.4913  -47.6471 C.2       1 UNK         0.5000 
     66 O           4.1888  -10.5035  -48.2180 O.2       1 UNK        -0.5000 
     67 C          -1.2206  -22.2856  -48.5549 C.2       11 UNK         0.5000 
     68 O          -1.4588  -23.0374  -49.5000 O.2       11 UNK        -0.5000 
     69 N          -2.1348  -21.9089  -47.6482 N.am      12 UNK        -0.5000 
     70 CA         -3.5294  -22.3437  -47.6473 C.3       12 UNK         0.1400 
     71 CB         -4.3078  -21.6144  -46.5434 C.3       12 UNK        -0.1800 
     72 C          -3.6770  -23.8668  -47.5092 C.2       12 UNK         0.5000 
     73 O          -4.4430  -24.4616  -48.2653 O.2       12 UNK        -0.5000 
     74 N          -2.9162  -24.4739  -46.5865 N.am      13 UNK        -0.5000 
     75 CA         -2.8685  -25.9209  -46.3744 C.3       13 UNK         0.1400 
     76 CB         -2.0283  -26.2396  -45.1288 C.3       13 UNK        -0.1800 
     77 C          -2.3420  -26.6875  -47.6005 C.2       13 UNK         0.5000 
     78 O          -2.9599  -27.6728  -48.0053 O.2       13 UNK        -0.5000 
     79 N          -1.2426  -26.2021  -48.1962 N.am      14 UNK        -0.5000 
     80 CA         -0.6390  -26.7597  -49.4101 C.3       14 UNK         0.1400 
     81 CB          0.6965  -26.0544  -49.6896 C.3       14 UNK        -0.1800 
     82 C          -1.5653  -26.6746  -50.6380 C.2       14 UNK         0.5000 
     83 O          -1.5960  -27.6042  -51.4449 O.2       14 UNK        -0.5000 
     84 N          -2.3280  -25.5790  -50.7338 N.am      15 UNK        -0.5000 
     85 CA         -3.3355  -25.3411  -51.7655 C.3       15 UNK         0.1400 
     86 CB         -3.4993  -23.8239  -51.9437 C.3       15 UNK        -0.1800 
     87 C          -4.6992  -25.9964  -51.4637 C.2       15 UNK         0.5000 
     88 O          -5.6380  -25.7901  -52.2346 O.2       15 UNK        -0.5000 
     89 N          -4.8263  -26.7165  -50.3378 N.am      16 UNK        -0.5000 
     90 CA         -6.0512  -27.3572  -49.8353 C.3       16 UNK         0.1400 
     91 CB         -6.4065  -28.5775  -50.7091 C.3       16 UNK        -0.1800 
     92 C          -7.2386  -26.3775  -49.6743 C.2       16 UNK         0.5000 
     93 O          -8.3956  -26.7724  -49.8280 O.2       16 UNK        -0.5000 
     94 N          -6.9113  -25.1071  -49.3978 N.am      17 UNK        -0.5000 
     95 CA         -7.7853  -23.9388  -49.2961 C.3       17 UNK         0.1400 
     96 CB         -8.6710  -24.0467  -48.0378 C.3       17 UNK        -0.1800 
     97 C          -8.5983  -23.6274  -50.5757 C.2       17 UNK         0.5000 
     98 O          -9.6490  -22.9911  -50.4674 O.2       17 UNK        -0.5000 
     99 N          -8.1327  -24.0685  -51.7582 N.am      18 UNK        -0.5000 
    100 CA        -8.9044  -23.9498  -53.0011 C.3       18 UNK         0.1400 
    101 CB        -9.9055  -25.1167  -53.0951 C.3       18 UNK        -0.1800 
    102 C         -8.0730  -23.8638  -54.2928 C.2       18 UNK         0.5000 
    103 O         -8.5419  -23.2395  -55.2459 O.2       18 UNK        -0.5000 
    104 N         -6.8995  -24.5098  -54.3507 N.am      19 UNK        -0.5000 
    105 CA        -6.1433  -24.6992  -55.5949 C.3       19 UNK         0.1400 
    106 CB        -5.0645  -25.7727  -55.3862 C.3       19 UNK        -0.1800 
    107 C         -5.5111  -23.4144  -56.1597 C.2       19 UNK         0.5000 
    108 O         -5.4340  -23.2686  -57.3808 O.2       19 UNK        -0.5000 
    109 N         -5.0689  -22.5147  -55.2755 N.am      20 UNK        -0.5000 
    110 CA        -4.4152  -21.2534  -55.6073 C.3       20 UNK         0.1400 
    111 CB        -2.9804  -21.5088  -56.1091 C.3       20 UNK        -0.1800 
    112 C         -4.3884  -20.3642  -54.3599 C.2       20 UNK         0.5000 
    113 O         -4.3819  -20.8861  -53.2414 O.2       20 UNK        -0.5000 
    114 N         -4.3383  -19.0428  -54.5787 N.am      21 UNK        -0.5000 
    115 CA        -4.2359  -17.9880  -53.5650 C.3       21 UNK         0.1400 
    116 CB        -2.8005  -17.9591  -52.9877 C.3       21 UNK        -0.1800 
    117 C         -5.3488  -18.1019  -52.4985 C.2       21 UNK         0.5000 
    118 O         -6.5285  -18.0511  -52.8513 O.2       21 UNK        -0.5000 
    119 N         -4.9544  -18.2733  -51.2339 N.am      22 UNK        -0.5000 
    120 CA        -5.8252  -18.5526  -50.0841 C.3       22 UNK         0.1400 
    121 C         -6.0347  -20.0723  -49.8067 C.2       22 UNK         0.5000 
    122 N         -5.5440  -20.9854  -50.6374 N.am      22 UNK        -0.7600 
    123 O         -6.6784  -20.4368  -48.8275 O.2       22 UNK        -0.5000 
    124 C124       -5.3700  -17.7614  -48.8265 C.3       23 UNK        -0.0398 
    125 S125       -3.5985  -17.9462  -48.4076 S.3       23 UNK        -0.2404 
    126 C126       -2.9350  -16.3749  -49.0532 C.3       23 UNK        -0.0205 
    127 H127        6.9519  -15.1266  -49.8330 H         1 UNK         0.0600 
    128 H128        7.2511  -16.1375  -48.4163 H         1 UNK         0.0600 
    129 H129        8.2268  -14.6901  -48.6911 H         1 UNK         0.0600 
    130 H130        5.1652  -13.8263  -49.6066 H         1 UNK         0.3000 
    131 H131        3.9080  -13.3930  -47.0476 H         1 UNK         0.0600 
    132 H132        2.7282  -13.9281  -49.3013 H         1 UNK         0.0800 
    133 H133        2.9710  -12.2693  -49.7264 H         1 UNK         0.0800 
    134 H134        1.9280  -14.3245  -46.4650 H         1 UNK         0.0800 
    135 H135        0.3118  -13.7611  -46.2014 H         1 UNK         0.0800 
    136 H136       -1.5692  -14.5139  -47.5900 H         1 UNK         0.1150 
    137 H137       -0.9674  -17.9496  -50.0762 H         1 UNK         0.1150 
    138 H138        2.3872  -16.0402  -48.2054 H         1 UNK         0.1150 
    139 H139        1.3675  -18.4332  -50.8219 H         1 UNK         0.0800 
    140 H140        2.7220  -17.6736  -50.0296 H         1 UNK         0.0800 
    141 H141       -0.1185  -20.1719  -49.7884 H         1 UNK         0.0800 
    142 H142       -0.3234  -19.6605  -48.1285 H         1 UNK         0.0800 
    143 H143        0.8685  -22.3425  -49.0018 H         1 UNK         0.0600 
    144 H144        0.9291  -21.1550  -46.4421 H         1 UNK         0.3000 
    145 H145        0.7809  -24.1532  -44.4683 H         1 UNK         0.0600 
    146 H146        2.8326  -23.0655  -43.5695 H         1 UNK         0.0600 
    147 H147        3.1473  -23.8472  -45.1108 H         1 UNK         0.0600 
    148 H148        2.9855  -22.1003  -45.0367 H         1 UNK         0.0600 
    149 H149        0.8739  -21.3112  -43.9150 H         1 UNK         0.3000 
    150 H150       -2.6411  -20.9043  -43.5024 H         1 UNK         0.0600 
    151 H151       -1.9215  -21.9755  -41.3626 H         1 UNK         0.0600 
    152 H152       -1.9598  -20.2256  -41.2183 H         1 UNK         0.0600 
    153 H153       -0.4174  -21.0630  -41.3960 H         1 UNK         0.0600 
    154 H154       -0.4222  -19.1729  -43.0054 H         1 UNK         0.3000 
    155 H155       -0.1150  -17.8458  -46.2966 H         1 UNK         0.0600 
    156 H156       -0.5332  -15.7463  -45.0046 H         1 UNK         0.0600 
    157 H157       -1.2863  -16.6773  -43.7124 H         1 UNK         0.0600 
    158 H158       -2.0278  -16.6150  -45.3084 H         1 UNK         0.0600 
    159 H159        1.2405  -17.0943  -43.9662 H         1 UNK         0.3000 
    160 H160        3.4040  -19.2251  -43.2493 H         1 UNK         0.0600 
    161 H161        4.5606  -18.2644  -45.9164 H         1 UNK         0.0600 
    162 H162        4.5551  -19.9072  -45.2994 H         1 UNK         0.0600 
    163 H163        5.5211  -18.6806  -44.4963 H         1 UNK         0.0600 
    164 H164        3.4638  -17.1670  -42.4794 H         1 UNK         0.3000 
    165 H165        4.0018  -15.0668  -42.2389 H         1 UNK         0.0600 
    166 H166        4.2749  -13.3410  -44.7445 H         1 UNK         0.0600 
    167 H167        4.6370  -12.8339  -43.0947 H         1 UNK         0.0600 
    168 H168        5.5913  -14.0932  -43.8639 H         1 UNK         0.0600 
    169 H169        2.1205  -13.2964  -43.4849 H         1 UNK         0.3000 
    170 H170       -0.8241  -14.5659  -42.3873 H         1 UNK         0.0600 
    171 H171       -0.1992  -14.6279  -39.9909 H         1 UNK         0.0600 
    172 H172        0.6578  -13.0984  -40.1428 H         1 UNK         0.0600 
    173 H173       -1.0930  -13.1597  -40.3452 H         1 UNK         0.0600 
    174 H174        0.6083  -11.9411  -42.3773 H         1 UNK         0.3000 
    175 H175       -0.5433  -11.1002  -45.5268 H         1 UNK         0.0600 
    176 H176       -1.8331   -9.8798  -43.0283 H         1 UNK         0.0600 
    177 H177       -1.7306   -9.1257  -44.6205 H         1 UNK         0.0600 
    178 H178       -2.7100  -10.5639  -44.3916 H         1 UNK         0.0600 
    179 H179        0.5314   -9.3230  -43.6811 H         1 UNK         0.3000 
    180 H180        2.7807   -8.7094  -44.2768 H         1 UNK         0.0600 
    181 H181        3.6019  -10.7387  -42.1003 H         1 UNK         0.0600 
    182 H182        2.5037   -9.3820  -41.8731 H         1 UNK         0.0600 
    183 H183        4.2010   -9.0854  -42.2135 H         1 UNK         0.0600 
    184 H184        4.1668  -11.1575  -44.9485 H         1 UNK         0.3000 
    185 H185        6.4254   -9.5102  -46.9921 H         1 UNK         0.0600 
    186 H186        8.1947  -10.9812  -46.0456 H         1 UNK         0.0600 
    187 H187        7.9144   -9.6083  -44.9855 H         1 UNK         0.0600 
    188 H188        7.2627  -11.1879  -44.5626 H         1 UNK         0.0600 
    189 H189        5.9958  -12.2902  -46.3667 H         1 UNK         0.3000 
    190 H190       -1.8705  -21.2470  -46.9219 H         1 UNK         0.3000 
    191 H191       -3.9581  -22.0577  -48.6084 H         1 UNK         0.0600 
    192 H192       -3.8998  -21.8241  -45.5546 H         1 UNK         0.0600 
    193 H193       -5.3560  -21.9164  -46.5415 H         1 UNK         0.0600 
    194 H194       -4.2837  -20.5351  -46.6947 H         1 UNK         0.0600 
    195 H195       -2.3389  -23.9069  -45.9729 H         1 UNK         0.3000 
    196 H196       -3.8896  -26.2599  -46.1876 H         1 UNK         0.0600 
    197 H197       -1.9806  -27.3149  -44.9531 H         1 UNK         0.0600 
    198 H198       -2.4590  -25.7840  -44.2371 H         1 UNK         0.0600 
    199 H199       -1.0052  -25.8763  -45.2286 H         1 UNK         0.0600 
    200 H200       -0.7742  -25.3973  -47.7873 H         1 UNK         0.3000 
    201 H201       -0.4336  -27.8158  -49.2241 H         1 UNK         0.0600 
    202 H202        1.3925  -26.1869  -48.8612 H         1 UNK         0.0600 
    203 H203        0.5606  -24.9832  -49.8432 H         1 UNK         0.0600 
    204 H204        1.1737  -26.4580  -50.5835 H         1 UNK         0.0600 
    205 H205       -2.1951  -24.8337  -50.0565 H         1 UNK         0.3000 
    206 H206       -2.9795  -25.7573  -52.7094 H         1 UNK         0.0600 
    207 H207       -2.5579  -23.3543  -52.2291 H         1 UNK         0.0600 
    208 H208       -4.2233  -23.5920  -52.7239 H         1 UNK         0.0600 
    209 H209       -3.8419  -23.3487  -51.0242 H         1 UNK         0.0600 
    210 H210       -4.0178  -26.7990  -49.7336 H         1 UNK         0.3000 
    211 H211       -5.8171  -27.7192  -48.8333 H         1 UNK         0.0600 
    212 H212       -6.7063  -28.2801  -51.7145 H         1 UNK         0.0600 
    213 H213       -7.2306  -29.1449  -50.2754 H         1 UNK         0.0600 
    214 H214       -5.5589  -29.2570  -50.7990 H         1 UNK         0.0600 
    215 H215       -5.9274  -24.9193  -49.2105 H         1 UNK         0.3000 
    216 H216       -7.1206  -23.0882  -49.1494 H         1 UNK         0.0600 
    217 H217       -8.0705  -24.2482  -47.1506 H         1 UNK         0.0600 
    218 H218       -9.4105  -24.8424  -48.1317 H         1 UNK         0.0600 
    219 H219       -9.2101  -23.1163  -47.8556 H         1 UNK         0.0600 
    220 H220       -7.2709  -24.6015  -51.7904 H         1 UNK         0.3000 
    221 H221       -9.4758  -23.0194  -52.9711 H         1 UNK         0.0600 
    222 H222       -9.3954  -26.0806  -53.0726 H         1 UNK         0.0600 
    223 H223      -10.6174  -25.0973  -52.2698 H         1 UNK         0.0600 
    224 H224      -10.4829  -25.0697  -54.0194 H         1 UNK         0.0600 
    225 H225       -6.5481  -25.0138  -53.5390 H         1 UNK         0.3000 
    226 H226       -6.8394  -25.0759  -56.3476 H         1 UNK         0.0600 
    227 H227       -5.4944  -26.7009  -55.0094 H         1 UNK         0.0600 
    228 H228       -4.5595  -26.0048  -56.3246 H         1 UNK         0.0600 
    229 H229       -4.3032  -25.4419  -54.6806 H         1 UNK         0.0600 
    230 H230       -5.1951  -22.6748  -54.2845 H         1 UNK         0.3000 
    231 H231       -4.9938  -20.7488  -56.3838 H         1 UNK         0.0600 
    232 H232       -2.4649  -20.5709  -56.3195 H         1 UNK         0.0600 
    233 H233       -2.9738  -22.0908  -57.0304 H         1 UNK         0.0600 
    234 H234       -2.3896  -22.0490  -55.3681 H         1 UNK         0.0600 
    235 H235       -4.3774  -18.7164  -55.5340 H         1 UNK         0.3000 
    236 H236       -4.4043  -17.0414  -54.0804 H         1 UNK         0.0600 
    237 H237       -2.0660  -17.8419  -53.7845 H         1 UNK         0.0600 
    238 H238       -2.6626  -17.1182  -52.3079 H         1 UNK         0.0600 
    239 H239       -2.5520  -18.8746  -52.4490 H         1 UNK         0.0600 
    240 H240       -3.9659  -18.3434  -51.0437 H         1 UNK         0.3000 
    241 H241       -6.8259  -18.1886  -50.3229 H         1 UNK         0.0600 
    242 H242       -5.0556  -20.7284  -51.4918 H         1 UNK         0.3800 
    243 H243       -5.6957  -21.9562  -50.4376 H         1 UNK         0.3800 
    244 H244       -5.5853  -16.7031  -48.9784 H         1 UNK         0.0800 
    245 H245       -5.9600  -18.0450  -47.9534 H         1 UNK         0.0800 
    246 H246       -3.4523  -15.5474  -48.5651 H         1 UNK         0.0800 
    247 H247       -3.1523  -16.2890  -50.1175 H         1 UNK         0.0800 
@<TRIPOS>BOND
     1    1    2 1    
     2    1  127 1    
     3    1  128 1    
     4    1  129 1    
     5    2    3 2    
     6    2    4 am   BACKBONE|DICT|INTERRES
     7    4    5 1    
     8    4  130 1    
     9    5    6 1    
    10    5   65 1    
    11    5  131 1    
    12    6    7 1    
    13    6  132 1    
    14    6  133 1    
    15    7    8 1    
    16    8    9 1    
    17    8  134 1    
    18    8  135 1    
    19    9   10 ar   
    20    9   14 ar   
    21   10   11 ar   
    22   10  136 1    
    23   11   12 ar   
    24   11  126 1    
    25   12   13 ar   
    26   12  137 1    
    27   13   14 ar   
    28   13   15 1    
    29   14  138 1    
    30   15   16 1    
    31   15  139 1    
    32   15  140 1    
    33   16   17 1    
    34   17   18 1    
    35   17  141 1    
    36   17  142 1    
    37   18   19 1    
    38   18   67 1    
    39   18  143 1    
    40   19   20 am   BACKBONE|DICT|INTERRES
    41   19  144 1    
    42   20   21 2    
    43   20   22 1    
    44   22   23 1    
    45   22   24 1    
    46   22  145 1    
    47   23  146 1    
    48   23  147 1    
    49   23  148 1    
    50   24   25 am   BACKBONE|DICT|INTERRES
    51   24  149 1    
    52   25   26 2    
    53   25   27 1    
    54   27   28 1    
    55   27   29 1    
    56   27  150 1    
    57   28  151 1    
    58   28  152 1    
    59   28  153 1    
    60   29   30 am   BACKBONE|DICT|INTERRES
    61   29  154 1    
    62   30   31 2    
    63   30   32 1    
    64   32   33 1    
    65   32   34 1    
    66   32  155 1    
    67   33  156 1    
    68   33  157 1    
    69   33  158 1    
    70   34   35 am   BACKBONE|DICT|INTERRES
    71   34  159 1    
    72   35   36 2    
    73   35   37 1    
    74   37   38 1    
    75   37   39 1    
    76   37  160 1    
    77   38  161 1    
    78   38  162 1    
    79   38  163 1    
    80   39   40 am   BACKBONE|DICT|INTERRES
    81   39  164 1    
    82   40   41 2    
    83   40   42 1    
    84   42   43 1    
    85   42   44 1    
    86   42  165 1    
    87   43  166 1    
    88   43  167 1    
    89   43  168 1    
    90   44   45 am   BACKBONE|DICT|INTERRES
    91   44  169 1    
    92   45   46 2    
    93   45   47 1    
    94   47   48 1    
    95   47   49 1    
    96   47  170 1    
    97   48  171 1    
    98   48  172 1    
    99   48  173 1    
   100   49   50 am   BACKBONE|DICT|INTERRES
   101   49  174 1    
   102   50   51 2    
   103   50   52 1    
   104   52   53 1    
   105   52   54 1    
   106   52  175 1    
   107   53  176 1    
   108   53  177 1    
   109   53  178 1    
   110   54   55 am   BACKBONE|DICT|INTERRES
   111   54  179 1    
   112   55   56 2    
   113   55   57 1    
   114   57   58 1    
   115   57   59 1    
   116   57  180 1    
   117   58  181 1    
   118   58  182 1    
   119   58  183 1    
   120   59   60 am   BACKBONE|DICT|INTERRES
   121   59  184 1    
   122   60   61 2    
   123   60   62 1    
   124   62   63 1    
   125   62   64 1    
   126   62  185 1    
   127   63  186 1    
   128   63  187 1    
   129   63  188 1    
   130   64   65 am   BACKBONE|DICT|INTERRES
   131   64  189 1    
   132   65   66 2    
   133   67   68 2    
   134   67   69 am   BACKBONE|DICT|INTERRES
   135   69   70 1    
   136   69  190 1    
   137   70   71 1    
   138   70   72 1    
   139   70  191 1    
   140   71  192 1    
   141   71  193 1    
   142   71  194 1    
   143   72   73 2    
   144   72   74 am   BACKBONE|DICT|INTERRES
   145   74   75 1    
   146   74  195 1    
   147   75   76 1    
   148   75   77 1    
   149   75  196 1    
   150   76  197 1    
   151   76  198 1    
   152   76  199 1    
   153   77   78 2    
   154   77   79 am   BACKBONE|DICT|INTERRES
   155   79   80 1    
   156   79  200 1    
   157   80   81 1    
   158   80   82 1    
   159   80  201 1    
   160   81  202 1    
   161   81  203 1    
   162   81  204 1    
   163   82   83 2    
   164   82   84 am   BACKBONE|DICT|INTERRES
   165   84   85 1    
   166   84  205 1    
   167   85   86 1    
   168   85   87 1    
   169   85  206 1    
   170   86  207 1    
   171   86  208 1    
   172   86  209 1    
   173   87   88 2    
   174   87   89 am   BACKBONE|DICT|INTERRES
   175   89   90 1    
   176   89  210 1    
   177   90   91 1    
   178   90   92 1    
   179   90  211 1    
   180   91  212 1    
   181   91  213 1    
   182   91  214 1    
   183   92   93 2    
   184   92   94 am   BACKBONE|DICT|INTERRES
   185   94   95 1    
   186   94  215 1    
   187   95   96 1    
   188   95   97 1    
   189   95  216 1    
   190   96  217 1    
   191   96  218 1    
   192   96  219 1    
   193   97   98 2    
   194   97   99 am   BACKBONE|DICT|INTERRES
   195   99  100 1    
   196   99  220 1    
   197  100  101 1    
   198  100  102 1    
   199  100  221 1    
   200  101  222 1    
   201  101  223 1    
   202  101  224 1    
   203  102  103 2    
   204  102  104 am   BACKBONE|DICT|INTERRES
   205  104  105 1    
   206  104  225 1    
   207  105  106 1    
   208  105  107 1    
   209  105  226 1    
   210  106  227 1    
   211  106  228 1    
   212  106  229 1    
   213  107  108 2    
   214  107  109 am   BACKBONE|DICT|INTERRES
   215  109  110 1    
   216  109  230 1    
   217  110  111 1    
   218  110  112 1    
   219  110  231 1    
   220  111  232 1    
   221  111  233 1    
   222  111  234 1    
   223  112  113 2    
   224  112  114 am   BACKBONE|DICT|INTERRES
   225  114  115 1    
   226  114  235 1    
   227  115  116 1    
   228  115  117 1    
   229  115  236 1    
   230  116  237 1    
   231  116  238 1    
   232  116  239 1    
   233  117  118 2    
   234  117  119 am   BACKBONE|DICT|INTERRES
   235  119  120 1    
   236  119  240 1    
   237  120  121 1    
   238  120  124 1    
   239  120  241 1    
   240  121  122 am   BACKBONE|DICT|INTERRES
   241  121  123 2    
   242  122  242 1    
   243  122  243 1    
   244  124  125 1    
   245  124  244 1    
   246  124  245 1    
   247  125  126 1    
   248  126  246 1    
   249  126  247 1    
@<TRIPOS>SUBSTRUCTURE
     1 UNK         1 GROUP             0       ****    0 ROOT    
