@<TRIPOS>MOLECULE
3R540
247   249    1
SMALL
USER_CHARGES


@<TRIPOS>ATOM
      1 CA          3.4157  -11.0119  -45.7612 C.3       0 UNK        -0.1800 
      2 C           4.5007  -12.0227  -46.1025 C.2       0 UNK         0.5000 
      3 O           5.6773  -11.6663  -46.1588 O.2       0 UNK        -0.5000 
      4 N           4.1094  -13.2847  -46.3204 N.am      1 UNK        -0.5000 
      5 CA          4.9973  -14.4013  -46.6920 C.3       1 UNK         0.1400 
      6 C6          4.2055  -15.5647  -47.3444 C.3       23 UNK        -0.0398 
      7 S7          3.2897  -14.9798  -48.8149 S.3       23 UNK        -0.2404 
      8 C8          3.8444  -16.0887  -50.1504 C.3       23 UNK        -0.0205 
      9 C9          2.8455  -17.2092  -50.4033 C.ar      23 UNK        -0.0193 
     10 C10         1.5474  -16.9010  -50.8234 C.ar      23 UNK        -0.1150 
     11 C11         0.6161  -17.9139  -51.0602 C.ar      23 UNK        -0.0193 
     12 C12         0.9947  -19.2477  -50.8864 C.ar      23 UNK        -0.1150 
     13 C13         2.2959  -19.5741  -50.4913 C.ar      23 UNK        -0.0193 
     14 C14         3.2172  -18.5484  -50.2488 C.ar      23 UNK        -0.1150 
     15 C15         2.6965  -21.0384  -50.3433 C.3       23 UNK        -0.0205 
     16 S16         3.3891  -21.4514  -48.7060 S.3       23 UNK        -0.2404 
     17 C17         2.1004  -20.8395  -47.5687 C.3       23 UNK        -0.0398 
     18 CA          1.1415  -21.9235  -47.0263 C.3       11 UNK         0.1400 
     19 N           0.3433  -21.3969  -45.9184 N.am      11 UNK        -0.5000 
     20 C          -0.4825  -22.1117  -45.1437 C.2       10 UNK         0.5000 
     21 O          -0.6297  -23.3300  -45.2394 O.2       10 UNK        -0.5000 
     22 CA         -1.3149  -21.3223  -44.1173 C.3       10 UNK         0.1400 
     23 CB         -0.4729  -20.9879  -42.8774 C.3       10 UNK        -0.1800 
     24 N          -1.8851  -20.0931  -44.6755 N.am      10 UNK        -0.5000 
     25 C          -2.7927  -20.0630  -45.6629 C.2       9 UNK         0.5000 
     26 O          -3.2640  -21.0728  -46.1838 O.2       9 UNK        -0.5000 
     27 CA         -3.2224  -18.6797  -46.1851 C.3       9 UNK         0.1400 
     28 CB         -4.2386  -18.0253  -45.2375 C.3       9 UNK        -0.1800 
     29 N          -2.0941  -17.7741  -46.3906 N.am      9 UNK        -0.5000 
     30 C          -1.0950  -17.9835  -47.2601 C.2       8 UNK         0.5000 
     31 O          -1.0199  -18.9616  -48.0020 O.2       8 UNK        -0.5000 
     32 CA          0.0507  -16.9577  -47.2369 C.3       8 UNK         0.1400 
     33 CB         -0.3612  -15.6520  -47.9346 C.3       8 UNK        -0.1800 
     34 N           0.4832  -16.6692  -45.8692 N.am      8 UNK        -0.5000 
     35 C           1.0282  -17.5735  -45.0433 C.2       7 UNK         0.5000 
     36 O           1.2681  -18.7365  -45.3585 O.2       7 UNK        -0.5000 
     37 CA          1.3203  -17.1139  -43.6090 C.3       7 UNK         0.1400 
     38 CB          2.6859  -16.4271  -43.5380 C.3       7 UNK        -0.1800 
     39 N           0.2837  -16.2249  -43.0847 N.am      7 UNK        -0.5000 
     40 C          -0.9511  -16.6428  -42.7704 C.2       6 UNK         0.5000 
     41 O          -1.3318  -17.8068  -42.8949 O.2       6 UNK        -0.5000 
     42 CA         -1.9382  -15.5756  -42.2714 C.3       6 UNK         0.1400 
     43 CB         -1.7035  -15.2754  -40.7834 C.3       6 UNK        -0.1800 
     44 N          -1.8751  -14.3268  -43.0288 N.am      6 UNK        -0.5000 
     45 C          -2.1024  -14.1902  -44.3398 C.2       5 UNK         0.5000 
     46 O          -2.3406  -15.1383  -45.0884 O.2       5 UNK        -0.5000 
     47 CA         -2.0433  -12.7643  -44.9250 C.3       5 UNK         0.1400 
     48 CB         -3.3968  -12.0485  -44.7606 C.3       5 UNK        -0.1800 
     49 N          -0.9351  -11.9287  -44.4362 N.am      5 UNK        -0.5000 
     50 C          -0.7018  -11.4585  -43.2023 C.2       4 UNK         0.5000 
     51 O          -1.4135  -11.6883  -42.2222 O.2       4 UNK        -0.5000 
     52 CA          0.5698  -10.6078  -43.0292 C.3       4 UNK         0.1400 
     53 CB          0.2319   -9.2171  -42.4694 C.3       4 UNK        -0.1800 
     54 N           1.5475  -11.2549  -42.1528 N.am      4 UNK        -0.5000 
     55 C           2.1438  -12.4264  -42.4015 C.2       3 UNK         0.5000 
     56 O           1.9249  -13.1134  -43.4056 O.2       3 UNK        -0.5000 
     57 CA          3.1625  -12.9169  -41.3617 C.3       3 UNK         0.1400 
     58 CB          2.4647  -13.7161  -40.2497 C.3       3 UNK        -0.1800 
     59 N           4.1000  -13.7833  -42.0618 N.am      3 UNK        -0.5000 
     60 C           5.4337  -13.7954  -41.9545 C.2       2 UNK         0.5000 
     61 O           6.0666  -13.1530  -41.1167 O.2       2 UNK        -0.5000 
     62 CA          6.1772  -14.6277  -43.0135 C.3       2 UNK         0.1400 
     63 CB          6.3089  -16.0976  -42.5709 C.3       2 UNK        -0.1800 
     64 N           5.4681  -14.4948  -44.2877 N.am      2 UNK        -0.5000 
     65 C           5.8617  -14.8891  -45.5038 C.2       1 UNK         0.5000 
     66 O           6.8650  -15.5700  -45.7173 O.2       1 UNK        -0.5000 
     67 C           0.2438  -22.5196  -48.1301 C.2       11 UNK         0.5000 
     68 O           0.4885  -23.6425  -48.5716 O.2       11 UNK        -0.5000 
     69 N          -0.8085  -21.7856  -48.5179 N.am      12 UNK        -0.5000 
     70 CA         -1.8139  -22.2316  -49.4792 C.3       12 UNK         0.1400 
     71 CB         -2.7688  -21.0800  -49.7974 C.3       12 UNK        -0.1800 
     72 C          -2.5964  -23.4643  -49.0011 C.2       12 UNK         0.5000 
     73 O          -2.7957  -24.3862  -49.7890 O.2       12 UNK        -0.5000 
     74 N          -2.9894  -23.4862  -47.7200 N.am      13 UNK        -0.5000 
     75 CA         -3.6575  -24.6206  -47.0810 C.3       13 UNK         0.1400 
     76 CB         -4.1174  -24.2303  -45.6686 C.3       13 UNK        -0.1800 
     77 C          -2.7780  -25.8835  -47.0457 C.2       13 UNK         0.5000 
     78 O          -3.2689  -26.9674  -47.3616 O.2       13 UNK        -0.5000 
     79 N          -1.4883  -25.7171  -46.7178 N.am      14 UNK        -0.5000 
     80 CA         -0.4804  -26.7806  -46.7360 C.3       14 UNK         0.1400 
     81 CB          0.8176  -26.2676  -46.0943 C.3       14 UNK        -0.1800 
     82 C          -0.2122  -27.3310  -48.1508 C.2       14 UNK         0.5000 
     83 O          -0.0288  -28.5383  -48.3095 O.2       14 UNK        -0.5000 
     84 N          -0.2289  -26.4435  -49.1540 N.am      15 UNK        -0.5000 
     85 CA         -0.1023  -26.7745  -50.5753 C.3       15 UNK         0.1400 
     86 CB          0.3101  -25.5047  -51.3383 C.3       15 UNK        -0.1800 
     87 C          -1.3844  -27.3757  -51.1918 C.2       15 UNK         0.5000 
     88 O          -1.3276  -27.8666  -52.3199 O.2       15 UNK        -0.5000 
     89 N          -2.5100  -27.3046  -50.4640 N.am      16 UNK        -0.5000 
     90 CA         -3.8736  -27.6583  -50.8772 C.3       16 UNK         0.1400 
     91 CB         -3.9972  -29.1687  -51.1656 C.3       16 UNK        -0.1800 
     92 C          -4.3989  -26.7722  -52.0295 C.2       16 UNK         0.5000 
     93 O          -5.1910  -27.2259  -52.8572 O.2       16 UNK        -0.5000 
     94 N          -3.9597  -25.5092  -52.0477 N.am      17 UNK        -0.5000 
     95 CA         -4.3014  -24.4813  -53.0243 C.3       17 UNK         0.1400 
     96 CB         -3.0146  -23.7219  -53.3919 C.3       17 UNK        -0.1800 
     97 C          -5.3886  -23.5643  -52.4357 C.2       17 UNK         0.5000 
     98 O          -5.1785  -22.3620  -52.2746 O.2       17 UNK        -0.5000 
     99 N          -6.5328  -24.1654  -52.0832 N.am      18 UNK        -0.5000 
    100 CA        -7.6548  -23.4991  -51.4170 C.3       18 UNK         0.1400 
    101 CB        -8.6524  -24.5630  -50.9352 C.3       18 UNK        -0.1800 
    102 C         -8.3669  -22.4445  -52.2866 C.2       18 UNK         0.5000 
    103 O         -8.9359  -21.4995  -51.7376 O.2       18 UNK        -0.5000 
    104 N         -8.3156  -22.6134  -53.6166 N.am      19 UNK        -0.5000 
    105 CA        -8.8741  -21.7039  -54.6192 C.3       19 UNK         0.1400 
    106 CB        -8.6151  -22.2807  -56.0197 C.3       19 UNK        -0.1800 
    107 C         -8.2800  -20.2902  -54.4870 C.2       19 UNK         0.5000 
    108 O         -7.0746  -20.1182  -54.6785 O.2       19 UNK        -0.5000 
    109 N         -9.1183  -19.3261  -54.0802 N.am      20 UNK        -0.5000 
    110 CA        -8.7751  -17.9291  -53.7702 C.3       20 UNK         0.1400 
    111 CB        -8.3829  -17.1776  -55.0596 C.3       20 UNK        -0.1800 
    112 C         -7.7109  -17.7667  -52.6569 C.2       20 UNK         0.5000 
    113 O         -7.1075  -16.6984  -52.5452 O.2       20 UNK        -0.5000 
    114 N         -7.4925  -18.8309  -51.8676 N.am      21 UNK        -0.5000 
    115 CA        -6.4542  -18.9933  -50.8477 C.3       21 UNK         0.1400 
    116 CB        -6.7640  -18.1170  -49.6160 C.3       21 UNK        -0.1800 
    117 C         -5.0160  -18.7990  -51.3815 C.2       21 UNK         0.5000 
    118 O         -4.1637  -18.3051  -50.6426 O.2       21 UNK        -0.5000 
    119 N         -4.7632  -19.1930  -52.6390 N.am      22 UNK        -0.5000 
    120 CA        -3.4270  -19.2087  -53.2595 C.3       22 UNK         0.1400 
    121 C         -3.3227  -20.0635  -54.5580 C.2       22 UNK         0.5000 
    122 N         -4.4039  -20.5137  -55.1815 N.am      22 UNK        -0.7600 
    123 O         -2.2208  -20.3533  -55.0145 O.2       22 UNK        -0.5000 
    124 C124       -2.8177  -17.7853  -53.4470 C.3       23 UNK        -0.0398 
    125 S125       -0.9974  -17.7737  -53.2953 S.3       23 UNK        -0.2404 
    126 C126       -0.7991  -17.5728  -51.4989 C.3       23 UNK        -0.0205 
    127 H127        2.4225  -11.4593  -45.8037 H         1 UNK         0.0600 
    128 H128        3.4431  -10.1786  -46.4632 H         1 UNK         0.0600 
    129 H129        3.5713  -10.6196  -44.7563 H         1 UNK         0.0600 
    130 H130        3.1247  -13.5066  -46.2829 H         1 UNK         0.3000 
    131 H131        5.6993  -14.0265  -47.4403 H         1 UNK         0.0600 
    132 H132        4.8773  -16.3765  -47.6276 H         1 UNK         0.0800 
    133 H133        3.4899  -15.9919  -46.6403 H         1 UNK         0.0800 
    134 H134        3.9425  -15.5033  -51.0655 H         1 UNK         0.0800 
    135 H135        4.8393  -16.4809  -49.9361 H         1 UNK         0.0800 
    136 H136        1.2610  -15.8672  -50.9565 H         1 UNK         0.1150 
    137 H137        0.2729  -20.0313  -51.0702 H         1 UNK         0.1150 
    138 H138        4.2230  -18.7967  -49.9402 H         1 UNK         0.1150 
    139 H139        1.8455  -21.6934  -50.5368 H         1 UNK         0.0800 
    140 H140        3.4395  -21.2751  -51.1057 H         1 UNK         0.0800 
    141 H141        1.5415  -20.0153  -48.0121 H         1 UNK         0.0800 
    142 H142        2.6447  -20.4001  -46.7327 H         1 UNK         0.0800 
    143 H143        1.7463  -22.7381  -46.6223 H         1 UNK         0.0600 
    144 H144        0.4337  -20.3994  -45.7439 H         1 UNK         0.3000 
    145 H145       -2.1429  -21.9603  -43.8017 H         1 UNK         0.0600 
    146 H146       -1.0781  -20.5074  -42.1086 H         1 UNK         0.0600 
    147 H147       -0.0469  -21.8911  -42.4387 H         1 UNK         0.0600 
    148 H148        0.3529  -20.3185  -43.1200 H         1 UNK         0.0600 
    149 H149       -1.5789  -19.2189  -44.2589 H         1 UNK         0.3000 
    150 H150       -3.7065  -18.8269  -47.1530 H         1 UNK         0.0600 
    151 H151       -5.1018  -18.6735  -45.0819 H         1 UNK         0.0600 
    152 H152       -4.6069  -17.0839  -45.6459 H         1 UNK         0.0600 
    153 H153       -3.8021  -17.8161  -44.2603 H         1 UNK         0.0600 
    154 H154       -2.0833  -16.9261  -45.8308 H         1 UNK         0.3000 
    155 H155        0.8990  -17.3831  -47.7784 H         1 UNK         0.0600 
    156 H156        0.4488  -14.9239  -47.9256 H         1 UNK         0.0600 
    157 H157       -0.6205  -15.8360  -48.9764 H         1 UNK         0.0600 
    158 H158       -1.2283  -15.1905  -47.4635 H         1 UNK         0.0600 
    159 H159        0.2715  -15.7514  -45.5086 H         1 UNK         0.3000 
    160 H160        1.3601  -18.0035  -42.9767 H         1 UNK         0.0600 
    161 H161        2.7061  -15.5128  -44.1299 H         1 UNK         0.0600 
    162 H162        3.4701  -17.0817  -43.9209 H         1 UNK         0.0600 
    163 H163        2.9365  -16.1867  -42.5059 H         1 UNK         0.0600 
    164 H164        0.5121  -15.2451  -42.9894 H         1 UNK         0.3000 
    165 H165       -2.9460  -15.9799  -42.3855 H         1 UNK         0.0600 
    166 H166       -2.4607  -14.5936  -40.3958 H         1 UNK         0.0600 
    167 H167       -1.7520  -16.1876  -40.1872 H         1 UNK         0.0600 
    168 H168       -0.7267  -14.8211  -40.6128 H         1 UNK         0.0600 
    169 H169       -1.6988  -13.4737  -42.5031 H         1 UNK         0.3000 
    170 H170       -1.8681  -12.8821  -45.9956 H         1 UNK         0.0600 
    171 H171       -4.2007  -12.6291  -45.2148 H         1 UNK         0.0600 
    172 H172       -3.6564  -11.9001  -43.7121 H         1 UNK         0.0600 
    173 H173       -3.3877  -11.0723  -45.2453 H         1 UNK         0.0600 
    174 H174       -0.2442  -11.7137  -45.1411 H         1 UNK         0.3000 
    175 H175        1.0357  -10.4675  -44.0059 H         1 UNK         0.0600 
    176 H176       -0.1967   -9.2777  -41.4682 H         1 UNK         0.0600 
    177 H177        1.1196   -8.5863  -42.4170 H         1 UNK         0.0600 
    178 H178       -0.4918   -8.7059  -43.1056 H         1 UNK         0.0600 
    179 H179        1.7582  -10.7723  -41.2914 H         1 UNK         0.3000 
    180 H180        3.6821  -12.0560  -40.9358 H         1 UNK         0.0600 
    181 H181        1.9221  -14.5743  -40.6487 H         1 UNK         0.0600 
    182 H182        1.7482  -13.0952  -39.7105 H         1 UNK         0.0600 
    183 H183        3.1866  -14.0872  -39.5220 H         1 UNK         0.0600 
    184 H184        3.6637  -14.3340  -42.7878 H         1 UNK         0.3000 
    185 H185        7.1756  -14.2031  -43.1351 H         1 UNK         0.0600 
    186 H186        6.8310  -16.1662  -41.6158 H         1 UNK         0.0600 
    187 H187        5.3386  -16.5747  -42.4439 H         1 UNK         0.0600 
    188 H188        6.8797  -16.6858  -43.2888 H         1 UNK         0.0600 
    189 H189        4.6752  -13.8690  -44.2648 H         1 UNK         0.3000 
    190 H190       -0.9301  -20.8487  -48.1398 H         1 UNK         0.3000 
    191 H191       -1.2933  -22.5028  -50.3996 H         1 UNK         0.0600 
    192 H192       -3.3079  -20.7390  -48.9135 H         1 UNK         0.0600 
    193 H193       -3.5076  -21.3785  -50.5397 H         1 UNK         0.0600 
    194 H194       -2.2254  -20.2293  -50.2028 H         1 UNK         0.0600 
    195 H195       -2.8424  -22.6604  -47.1452 H         1 UNK         0.3000 
    196 H196       -4.5459  -24.8540  -47.6716 H         1 UNK         0.0600 
    197 H197       -4.6331  -25.0593  -45.1825 H         1 UNK         0.0600 
    198 H198       -4.8104  -23.3894  -45.6991 H         1 UNK         0.0600 
    199 H199       -3.2777  -23.9479  -45.0337 H         1 UNK         0.0600 
    200 H200       -1.1723  -24.7956  -46.4280 H         1 UNK         0.3000 
    201 H201       -0.8562  -27.6053  -46.1269 H         1 UNK         0.0600 
    202 H202        0.6487  -25.9482  -45.0658 H         1 UNK         0.0600 
    203 H203        1.2314  -25.4208  -46.6424 H         1 UNK         0.0600 
    204 H204        1.5784  -27.0488  -46.0723 H         1 UNK         0.0600 
    205 H205       -0.3130  -25.4572  -48.9267 H         1 UNK         0.3000 
    206 H206        0.6929  -27.5138  -50.6894 H         1 UNK         0.0600 
    207 H207        1.2408  -25.0931  -50.9472 H         1 UNK         0.0600 
    208 H208        0.4677  -25.7152  -52.3968 H         1 UNK         0.0600 
    209 H209       -0.4534  -24.7295  -51.2691 H         1 UNK         0.0600 
    210 H210       -2.4416  -26.8602  -49.5575 H         1 UNK         0.3000 
    211 H211       -4.5094  -27.4375  -50.0188 H         1 UNK         0.0600 
    212 H212       -3.4502  -29.4584  -52.0631 H         1 UNK         0.0600 
    213 H213       -5.0394  -29.4532  -51.3142 H         1 UNK         0.0600 
    214 H214       -3.6159  -29.7606  -50.3335 H         1 UNK         0.0600 
    215 H215       -3.3922  -25.1917  -51.2623 H         1 UNK         0.3000 
    216 H216       -4.6998  -24.9355  -53.9336 H         1 UNK         0.0600 
    217 H217       -2.5998  -23.1866  -52.5369 H         1 UNK         0.0600 
    218 H218       -3.2074  -22.9933  -54.1784 H         1 UNK         0.0600 
    219 H219       -2.2478  -24.4024  -53.7628 H         1 UNK         0.0600 
    220 H220       -6.6213  -25.1595  -52.2421 H         1 UNK         0.3000 
    221 H221       -7.2606  -22.9813  -50.5398 H         1 UNK         0.0600 
    222 H222       -8.1805  -25.2626  -50.2449 H         1 UNK         0.0600 
    223 H223       -9.0628  -25.1362  -51.7676 H         1 UNK         0.0600 
    224 H224       -9.4899  -24.1038  -50.4080 H         1 UNK         0.0600 
    225 H225       -7.7995  -23.4052  -53.9690 H         1 UNK         0.3000 
    226 H226       -9.9537  -21.6544  -54.4640 H         1 UNK         0.0600 
    227 H227       -9.0868  -23.2563  -56.1386 H         1 UNK         0.0600 
    228 H228       -9.0223  -21.6268  -56.7920 H         1 UNK         0.0600 
    229 H229       -7.5485  -22.3970  -56.2174 H         1 UNK         0.0600 
    230 H230      -10.0800  -19.5799  -53.8997 H         1 UNK         0.3000 
    231 H231       -9.6859  -17.4703  -53.3833 H         1 UNK         0.0600 
    232 H232       -7.4361  -17.5362  -55.4648 H         1 UNK         0.0600 
    233 H233       -8.2741  -16.1084  -54.8742 H         1 UNK         0.0600 
    234 H234       -9.1437  -17.2943  -55.8313 H         1 UNK         0.0600 
    235 H235       -8.0611  -19.6558  -52.0286 H         1 UNK         0.3000 
    236 H236       -6.5095  -20.0356  -50.5298 H         1 UNK         0.0600 
    237 H237       -6.0774  -18.3344  -48.7967 H         1 UNK         0.0600 
    238 H238       -6.6751  -17.0546  -49.8444 H         1 UNK         0.0600 
    239 H239       -7.7735  -18.2984  -49.2471 H         1 UNK         0.0600 
    240 H240       -5.5096  -19.6136  -53.1771 H         1 UNK         0.3000 
    241 H241       -2.8037  -19.7472  -52.5439 H         1 UNK         0.0600 
    242 H242       -4.2705  -21.0650  -56.0130 H         1 UNK         0.3800 
    243 H243       -5.3574  -20.3070  -54.8895 H         1 UNK         0.3800 
    244 H244       -3.2126  -17.0781  -52.7177 H         1 UNK         0.0800 
    245 H245       -3.0948  -17.3715  -54.4179 H         1 UNK         0.0800 
    246 H246       -1.5028  -18.2139  -50.9695 H         1 UNK         0.0800 
    247 H247       -1.0546  -16.5486  -51.2253 H         1 UNK         0.0800 
@<TRIPOS>BOND
     1    1    2 1    
     2    1  127 1    
     3    1  128 1    
     4    1  129 1    
     5    2    3 2    
     6    2    4 am   BACKBONE|DICT|INTERRES
     7    4    5 1    
     8    4  130 1    
     9    5    6 1    
    10    5   65 1    
    11    5  131 1    
    12    6    7 1    
    13    6  132 1    
    14    6  133 1    
    15    7    8 1    
    16    8    9 1    
    17    8  134 1    
    18    8  135 1    
    19    9   10 ar   
    20    9   14 ar   
    21   10   11 ar   
    22   10  136 1    
    23   11   12 ar   
    24   11  126 1    
    25   12   13 ar   
    26   12  137 1    
    27   13   14 ar   
    28   13   15 1    
    29   14  138 1    
    30   15   16 1    
    31   15  139 1    
    32   15  140 1    
    33   16   17 1    
    34   17   18 1    
    35   17  141 1    
    36   17  142 1    
    37   18   19 1    
    38   18   67 1    
    39   18  143 1    
    40   19   20 am   BACKBONE|DICT|INTERRES
    41   19  144 1    
    42   20   21 2    
    43   20   22 1    
    44   22   23 1    
    45   22   24 1    
    46   22  145 1    
    47   23  146 1    
    48   23  147 1    
    49   23  148 1    
    50   24   25 am   BACKBONE|DICT|INTERRES
    51   24  149 1    
    52   25   26 2    
    53   25   27 1    
    54   27   28 1    
    55   27   29 1    
    56   27  150 1    
    57   28  151 1    
    58   28  152 1    
    59   28  153 1    
    60   29   30 am   BACKBONE|DICT|INTERRES
    61   29  154 1    
    62   30   31 2    
    63   30   32 1    
    64   32   33 1    
    65   32   34 1    
    66   32  155 1    
    67   33  156 1    
    68   33  157 1    
    69   33  158 1    
    70   34   35 am   BACKBONE|DICT|INTERRES
    71   34  159 1    
    72   35   36 2    
    73   35   37 1    
    74   37   38 1    
    75   37   39 1    
    76   37  160 1    
    77   38  161 1    
    78   38  162 1    
    79   38  163 1    
    80   39   40 am   BACKBONE|DICT|INTERRES
    81   39  164 1    
    82   40   41 2    
    83   40   42 1    
    84   42   43 1    
    85   42   44 1    
    86   42  165 1    
    87   43  166 1    
    88   43  167 1    
    89   43  168 1    
    90   44   45 am   BACKBONE|DICT|INTERRES
    91   44  169 1    
    92   45   46 2    
    93   45   47 1    
    94   47   48 1    
    95   47   49 1    
    96   47  170 1    
    97   48  171 1    
    98   48  172 1    
    99   48  173 1    
   100   49   50 am   BACKBONE|DICT|INTERRES
   101   49  174 1    
   102   50   51 2    
   103   50   52 1    
   104   52   53 1    
   105   52   54 1    
   106   52  175 1    
   107   53  176 1    
   108   53  177 1    
   109   53  178 1    
   110   54   55 am   BACKBONE|DICT|INTERRES
   111   54  179 1    
   112   55   56 2    
   113   55   57 1    
   114   57   58 1    
   115   57   59 1    
   116   57  180 1    
   117   58  181 1    
   118   58  182 1    
   119   58  183 1    
   120   59   60 am   BACKBONE|DICT|INTERRES
   121   59  184 1    
   122   60   61 2    
   123   60   62 1    
   124   62   63 1    
   125   62   64 1    
   126   62  185 1    
   127   63  186 1    
   128   63  187 1    
   129   63  188 1    
   130   64   65 am   BACKBONE|DICT|INTERRES
   131   64  189 1    
   132   65   66 2    
   133   67   68 2    
   134   67   69 am   BACKBONE|DICT|INTERRES
   135   69   70 1    
   136   69  190 1    
   137   70   71 1    
   138   70   72 1    
   139   70  191 1    
   140   71  192 1    
   141   71  193 1    
   142   71  194 1    
   143   72   73 2    
   144   72   74 am   BACKBONE|DICT|INTERRES
   145   74   75 1    
   146   74  195 1    
   147   75   76 1    
   148   75   77 1    
   149   75  196 1    
   150   76  197 1    
   151   76  198 1    
   152   76  199 1    
   153   77   78 2    
   154   77   79 am   BACKBONE|DICT|INTERRES
   155   79   80 1    
   156   79  200 1    
   157   80   81 1    
   158   80   82 1    
   159   80  201 1    
   160   81  202 1    
   161   81  203 1    
   162   81  204 1    
   163   82   83 2    
   164   82   84 am   BACKBONE|DICT|INTERRES
   165   84   85 1    
   166   84  205 1    
   167   85   86 1    
   168   85   87 1    
   169   85  206 1    
   170   86  207 1    
   171   86  208 1    
   172   86  209 1    
   173   87   88 2    
   174   87   89 am   BACKBONE|DICT|INTERRES
   175   89   90 1    
   176   89  210 1    
   177   90   91 1    
   178   90   92 1    
   179   90  211 1    
   180   91  212 1    
   181   91  213 1    
   182   91  214 1    
   183   92   93 2    
   184   92   94 am   BACKBONE|DICT|INTERRES
   185   94   95 1    
   186   94  215 1    
   187   95   96 1    
   188   95   97 1    
   189   95  216 1    
   190   96  217 1    
   191   96  218 1    
   192   96  219 1    
   193   97   98 2    
   194   97   99 am   BACKBONE|DICT|INTERRES
   195   99  100 1    
   196   99  220 1    
   197  100  101 1    
   198  100  102 1    
   199  100  221 1    
   200  101  222 1    
   201  101  223 1    
   202  101  224 1    
   203  102  103 2    
   204  102  104 am   BACKBONE|DICT|INTERRES
   205  104  105 1    
   206  104  225 1    
   207  105  106 1    
   208  105  107 1    
   209  105  226 1    
   210  106  227 1    
   211  106  228 1    
   212  106  229 1    
   213  107  108 2    
   214  107  109 am   BACKBONE|DICT|INTERRES
   215  109  110 1    
   216  109  230 1    
   217  110  111 1    
   218  110  112 1    
   219  110  231 1    
   220  111  232 1    
   221  111  233 1    
   222  111  234 1    
   223  112  113 2    
   224  112  114 am   BACKBONE|DICT|INTERRES
   225  114  115 1    
   226  114  235 1    
   227  115  116 1    
   228  115  117 1    
   229  115  236 1    
   230  116  237 1    
   231  116  238 1    
   232  116  239 1    
   233  117  118 2    
   234  117  119 am   BACKBONE|DICT|INTERRES
   235  119  120 1    
   236  119  240 1    
   237  120  121 1    
   238  120  124 1    
   239  120  241 1    
   240  121  122 am   BACKBONE|DICT|INTERRES
   241  121  123 2    
   242  122  242 1    
   243  122  243 1    
   244  124  125 1    
   245  124  244 1    
   246  124  245 1    
   247  125  126 1    
   248  126  246 1    
   249  126  247 1    
@<TRIPOS>SUBSTRUCTURE
     1 UNK         1 GROUP             0       ****    0 ROOT    
