@<TRIPOS>MOLECULE
3R540
247   249    1
SMALL
USER_CHARGES


@<TRIPOS>ATOM
      1 CA          7.1495  -10.1284  -51.7197 C.3       0 UNK        -0.1800 
      2 C           6.4005  -10.8392  -50.6012 C.2       0 UNK         0.5000 
      3 O           6.9929  -11.1476  -49.5668 O.2       0 UNK        -0.5000 
      4 N           5.1050  -11.1061  -50.8066 N.am      1 UNK        -0.5000 
      5 CA          4.2086  -11.7192  -49.8245 C.3       1 UNK         0.1400 
      6 C6          2.9267  -12.2626  -50.5021 C.3       23 UNK        -0.0398 
      7 S7          2.0155  -13.4518  -49.4586 S.3       23 UNK        -0.2404 
      8 C8          2.2048  -14.9847  -50.4185 C.3       23 UNK        -0.0205 
      9 C9          1.2912  -16.0796  -49.8932 C.ar      23 UNK        -0.0193 
     10 C10        -0.0154  -16.1910  -50.3771 C.ar      23 UNK        -0.1150 
     11 C11        -0.8611  -17.1998  -49.9091 C.ar      23 UNK        -0.0193 
     12 C12        -0.3936  -18.0928  -48.9425 C.ar      23 UNK        -0.1150 
     13 C13         0.9124  -17.9993  -48.4549 C.ar      23 UNK        -0.0193 
     14 C14         1.7503  -16.9872  -48.9345 C.ar      23 UNK        -0.1150 
     15 C15         1.4147  -18.9757  -47.3997 C.3       23 UNK        -0.0205 
     16 S16         1.6274  -20.6552  -48.0660 S.3       23 UNK        -0.2404 
     17 C17        -0.0453  -21.3560  -47.8491 C.3       23 UNK        -0.0398 
     18 CA          0.0011  -22.7740  -47.2409 C.3       11 UNK         0.1400 
     19 N           0.6311  -22.8007  -45.9192 N.am      11 UNK        -0.5000 
     20 C           1.2078  -23.8823  -45.3808 C.2       10 UNK         0.5000 
     21 O           1.2662  -24.9750  -45.9445 O.2       10 UNK        -0.5000 
     22 CA          1.7706  -23.7252  -43.9552 C.3       10 UNK         0.1400 
     23 CB          3.1779  -23.1114  -43.9961 C.3       10 UNK        -0.1800 
     24 N           0.9119  -22.9099  -43.0929 N.am      10 UNK        -0.5000 
     25 C          -0.3354  -23.2455  -42.7368 C.2       9 UNK         0.5000 
     26 O          -0.8728  -24.3022  -43.0642 O.2       9 UNK        -0.5000 
     27 CA         -1.1410  -22.2174  -41.9210 C.3       9 UNK         0.1400 
     28 CB         -0.9655  -22.4763  -40.4175 C.3       9 UNK        -0.1800 
     29 N          -0.8305  -20.8129  -42.2063 N.am      9 UNK        -0.5000 
     30 C          -0.8770  -20.2189  -43.4071 C.2       8 UNK         0.5000 
     31 O          -1.0648  -20.8211  -44.4687 O.2       8 UNK        -0.5000 
     32 CA         -0.6262  -18.6976  -43.4047 C.3       8 UNK         0.1400 
     33 CB          0.8791  -18.4108  -43.2905 C.3       8 UNK        -0.1800 
     34 N          -1.1618  -18.0263  -44.5919 N.am      8 UNK        -0.5000 
     35 C          -2.4632  -17.9686  -44.9153 C.2       7 UNK         0.5000 
     36 O          -3.3610  -18.3951  -44.1860 O.2       7 UNK        -0.5000 
     37 CA         -2.8202  -17.3520  -46.2862 C.3       7 UNK         0.1400 
     38 CB         -4.2847  -16.8761  -46.3812 C.3       7 UNK        -0.1800 
     39 N          -1.8967  -16.3014  -46.7244 N.am      7 UNK        -0.5000 
     40 C          -1.6695  -15.1190  -46.1372 C.2       6 UNK         0.5000 
     41 O          -2.2432  -14.7207  -45.1217 O.2       6 UNK        -0.5000 
     42 CA         -0.5862  -14.2474  -46.8015 C.3       6 UNK         0.1400 
     43 CB         -1.1051  -12.8294  -47.0889 C.3       6 UNK        -0.1800 
     44 N           0.6306  -14.1520  -45.9986 N.am      6 UNK        -0.5000 
     45 C           1.3512  -15.1783  -45.5262 C.2       5 UNK         0.5000 
     46 O           1.0649  -16.3612  -45.7005 O.2       5 UNK        -0.5000 
     47 CA          2.6065  -14.8239  -44.7159 C.3       5 UNK         0.1400 
     48 CB          3.7985  -14.5763  -45.6545 C.3       5 UNK        -0.1800 
     49 N           2.3884  -13.6476  -43.8735 N.am      5 UNK        -0.5000 
     50 C           1.8460  -13.6850  -42.6477 C.2       4 UNK         0.5000 
     51 O           1.5102  -14.7262  -42.0828 O.2       4 UNK        -0.5000 
     52 CA          1.6609  -12.3419  -41.9127 C.3       4 UNK         0.1400 
     53 CB          2.8322  -12.0959  -40.9490 C.3       4 UNK        -0.1800 
     54 N           1.5537  -11.2017  -42.8229 N.am      4 UNK        -0.5000 
     55 C           0.4484  -10.8717  -43.5053 C.2       3 UNK         0.5000 
     56 O          -0.6317  -11.4476  -43.3789 O.2       3 UNK        -0.5000 
     57 CA          0.5822   -9.7182  -44.5220 C.3       3 UNK         0.1400 
     58 CB          0.1721   -8.3840  -43.8806 C.3       3 UNK        -0.1800 
     59 N           1.9291   -9.5850  -45.0920 N.am      3 UNK        -0.5000 
     60 C           2.5361  -10.5297  -45.8210 C.2       2 UNK         0.5000 
     61 O           2.0281  -11.6260  -46.0640 O.2       2 UNK        -0.5000 
     62 CA          3.9746  -10.2378  -46.2796 C.3       2 UNK         0.1400 
     63 CB          4.9682  -10.6098  -45.1675 C.3       2 UNK        -0.1800 
     64 N           4.3040  -11.0079  -47.4773 N.am      2 UNK        -0.5000 
     65 C           3.8841  -10.7024  -48.7099 C.2       1 UNK         0.5000 
     66 O           3.2780   -9.6649  -48.9906 O.2       1 UNK        -0.5000 
     67 C          -1.4059  -23.3985  -47.2011 C.2       11 UNK         0.5000 
     68 O          -1.8603  -23.9186  -48.2199 O.2       11 UNK        -0.5000 
     69 N          -2.0720  -23.3562  -46.0382 N.am      12 UNK        -0.5000 
     70 CA         -3.3370  -24.0506  -45.7951 C.3       12 UNK         0.1400 
     71 CB         -4.0078  -23.4966  -44.5307 C.3       12 UNK        -0.1800 
     72 C          -3.1345  -25.5729  -45.7051 C.2       12 UNK         0.5000 
     73 O          -3.9052  -26.3185  -46.3072 O.2       12 UNK        -0.5000 
     74 N          -2.0677  -26.0056  -45.0167 N.am      13 UNK        -0.5000 
     75 CA         -1.6362  -27.4035  -44.9229 C.3       13 UNK         0.1400 
     76 CB         -0.5028  -27.5206  -43.8930 C.3       13 UNK        -0.1800 
     77 C          -1.2020  -27.9903  -46.2802 C.2       13 UNK         0.5000 
     78 O          -1.4690  -29.1613  -46.5507 O.2       13 UNK        -0.5000 
     79 N          -0.5866  -27.1529  -47.1271 N.am      14 UNK        -0.5000 
     80 CA         -0.2417  -27.4631  -48.5178 C.3       14 UNK         0.1400 
     81 CB          0.8261  -26.4656  -48.9942 C.3       14 UNK        -0.1800 
     82 C          -1.4545  -27.4450  -49.4753 C.2       14 UNK         0.5000 
     83 O          -1.2976  -27.7983  -50.6439 O.2       14 UNK        -0.5000 
     84 N          -2.6220  -27.0079  -48.9790 N.am      15 UNK        -0.5000 
     85 CA         -3.9133  -26.8454  -49.6568 C.3       15 UNK         0.1400 
     86 CB         -4.4002  -28.1659  -50.2855 C.3       15 UNK        -0.1800 
     87 C          -3.9760  -25.6719  -50.6546 C.2       15 UNK         0.5000 
     88 O          -5.0364  -25.4391  -51.2352 O.2       15 UNK        -0.5000 
     89 N          -2.8814  -24.9155  -50.8048 N.am      16 UNK        -0.5000 
     90 CA         -2.7782  -23.7478  -51.6779 C.3       16 UNK         0.1400 
     91 CB         -1.3160  -23.2824  -51.7486 C.3       16 UNK        -0.1800 
     92 C          -3.6924  -22.6012  -51.2231 C.2       16 UNK         0.5000 
     93 O          -4.4081  -22.0356  -52.0487 O.2       16 UNK        -0.5000 
     94 N          -3.6890  -22.3134  -49.9141 N.am      17 UNK        -0.5000 
     95 CA         -4.5506  -21.2931  -49.3105 C.3       17 UNK         0.1400 
     96 CB         -3.9312  -20.7901  -47.9988 C.3       17 UNK        -0.1800 
     97 C          -5.9902  -21.7893  -49.0898 C.2       17 UNK         0.5000 
     98 O          -6.9031  -20.9668  -49.0295 O.2       17 UNK        -0.5000 
     99 N          -6.1771  -23.1148  -49.0027 N.am      18 UNK        -0.5000 
    100 CA        -7.4900  -23.7561  -48.9012 C.3       18 UNK         0.1400 
    101 CB        -7.3256  -25.2094  -48.4303 C.3       18 UNK        -0.1800 
    102 C         -8.2543  -23.6890  -50.2360 C.2       18 UNK         0.5000 
    103 O         -9.4400  -23.3574  -50.2449 O.2       18 UNK        -0.5000 
    104 N         -7.5475  -23.9648  -51.3415 N.am      19 UNK        -0.5000 
    105 CA        -8.0505  -23.8233  -52.7095 C.3       19 UNK         0.1400 
    106 CB        -7.1573  -24.6516  -53.6470 C.3       19 UNK        -0.1800 
    107 C         -8.0971  -22.3578  -53.1873 C.2       19 UNK         0.5000 
    108 O         -8.7799  -22.0678  -54.1701 O.2       19 UNK        -0.5000 
    109 N         -7.3455  -21.4794  -52.5059 N.am      20 UNK        -0.5000 
    110 CA        -7.0747  -20.0748  -52.8349 C.3       20 UNK         0.1400 
    111 CB        -8.3631  -19.2281  -52.7990 C.3       20 UNK        -0.1800 
    112 C         -6.2776  -19.9157  -54.1481 C.2       20 UNK         0.5000 
    113 O         -6.3788  -18.8874  -54.8198 O.2       20 UNK        -0.5000 
    114 N         -5.4664  -20.9317  -54.4732 N.am      21 UNK        -0.5000 
    115 CA        -4.6015  -21.0007  -55.6513 C.3       21 UNK         0.1400 
    116 CB        -4.0479  -22.4286  -55.7730 C.3       21 UNK        -0.1800 
    117 C         -3.4538  -19.9756  -55.6069 C.2       21 UNK         0.5000 
    118 O         -2.9881  -19.5335  -56.6576 O.2       21 UNK        -0.5000 
    119 N         -3.0437  -19.6014  -54.3899 N.am      22 UNK        -0.5000 
    120 CA        -2.0965  -18.5160  -54.1059 C.3       22 UNK         0.1400 
    121 C         -2.6909  -17.0796  -54.2322 C.2       22 UNK         0.5000 
    122 N         -3.9826  -16.9013  -54.4891 N.am      22 UNK        -0.7600 
    123 O         -1.9588  -16.1018  -54.1076 O.2       22 UNK        -0.5000 
    124 C124       -1.3820  -18.7404  -52.7495 C.3       23 UNK        -0.0398 
    125 S125       -2.5237  -18.9094  -51.3303 S.3       23 UNK        -0.2404 
    126 C126       -2.2764  -17.3335  -50.4520 C.3       23 UNK        -0.0205 
    127 H127        6.5046   -9.9255  -52.5751 H         1 UNK         0.0600 
    128 H128        7.9839  -10.7411  -52.0611 H         1 UNK         0.0600 
    129 H129        7.5467   -9.1790  -51.3607 H         1 UNK         0.0600 
    130 H130        4.6699  -10.7976  -51.6644 H         1 UNK         0.3000 
    131 H131        4.7381  -12.5686  -49.3862 H         1 UNK         0.0600 
    132 H132        2.2515  -11.4518  -50.7816 H         1 UNK         0.0800 
    133 H133        3.1912  -12.7555  -51.4384 H         1 UNK         0.0800 
    134 H134        3.2462  -15.3084  -50.3843 H         1 UNK         0.0800 
    135 H135        1.9732  -14.7936  -51.4675 H         1 UNK         0.0800 
    136 H136       -0.3701  -15.4946  -51.1244 H         1 UNK         0.1150 
    137 H137       -1.0483  -18.8728  -48.5870 H         1 UNK         0.1150 
    138 H138        2.7591  -16.9001  -48.5565 H         1 UNK         0.1150 
    139 H139        0.7324  -18.9886  -46.5501 H         1 UNK         0.0800 
    140 H140        2.3740  -18.6389  -47.0039 H         1 UNK         0.0800 
    141 H141       -0.5278  -21.3691  -48.8284 H         1 UNK         0.0800 
    142 H142       -0.6462  -20.7029  -47.2148 H         1 UNK         0.0800 
    143 H143        0.5991  -23.3917  -47.9134 H         1 UNK         0.0600 
    144 H144        0.5481  -21.9567  -45.3668 H         1 UNK         0.3000 
    145 H145        1.8432  -24.7220  -43.5149 H         1 UNK         0.0600 
    146 H146        3.8457  -23.7088  -44.6184 H         1 UNK         0.0600 
    147 H147        3.6177  -23.0661  -42.9997 H         1 UNK         0.0600 
    148 H148        3.1655  -22.1001  -44.4050 H         1 UNK         0.0600 
    149 H149        1.2781  -22.0210  -42.7861 H         1 UNK         0.3000 
    150 H150       -2.1937  -22.3646  -42.1667 H         1 UNK         0.0600 
    151 H151        0.0614  -22.2982  -40.0958 H         1 UNK         0.0600 
    152 H152       -1.2139  -23.5086  -40.1665 H         1 UNK         0.0600 
    153 H153       -1.6197  -21.8350  -39.8265 H         1 UNK         0.0600 
    154 H154       -0.6400  -20.2379  -41.3983 H         1 UNK         0.3000 
    155 H155       -1.1266  -18.2734  -42.5319 H         1 UNK         0.0600 
    156 H156        1.0646  -17.3433  -43.1740 H         1 UNK         0.0600 
    157 H157        1.4246  -18.7543  -44.1700 H         1 UNK         0.0600 
    158 H158        1.3147  -18.9041  -42.4209 H         1 UNK         0.0600 
    159 H159       -0.4812  -17.5898  -45.2053 H         1 UNK         0.3000 
    160 H160       -2.7052  -18.1642  -47.0032 H         1 UNK         0.0600 
    161 H161       -4.5078  -16.1018  -45.6469 H         1 UNK         0.0600 
    162 H162       -4.9767  -17.7006  -46.2060 H         1 UNK         0.0600 
    163 H163       -4.5055  -16.4755  -47.3705 H         1 UNK         0.0600 
    164 H164       -1.3201  -16.5414  -47.5201 H         1 UNK         0.3000 
    165 H165       -0.3085  -14.6999  -47.7549 H         1 UNK         0.0600 
    166 H166       -0.3655  -12.2429  -47.6348 H         1 UNK         0.0600 
    167 H167       -2.0102  -12.8600  -47.6964 H         1 UNK         0.0600 
    168 H168       -1.3416  -12.2943  -46.1683 H         1 UNK         0.0600 
    169 H169        0.9933  -13.2145  -45.8562 H         1 UNK         0.3000 
    170 H170        2.8521  -15.6801  -44.0840 H         1 UNK         0.0600 
    171 H171        4.7019  -14.3390  -45.0927 H         1 UNK         0.0600 
    172 H172        3.6070  -13.7579  -46.3485 H         1 UNK         0.0600 
    173 H173        4.0098  -15.4640  -46.2522 H         1 UNK         0.0600 
    174 H174        2.5605  -12.7499  -44.3044 H         1 UNK         0.3000 
    175 H175        0.7440  -12.4103  -41.3232 H         1 UNK         0.0600 
    176 H176        2.9285  -12.9145  -40.2344 H         1 UNK         0.0600 
    177 H177        3.7809  -12.0112  -41.4807 H         1 UNK         0.0600 
    178 H178        2.6852  -11.1810  -40.3748 H         1 UNK         0.0600 
    179 H179        2.3902  -10.6576  -42.9727 H         1 UNK         0.3000 
    180 H180       -0.1061   -9.9284  -45.3436 H         1 UNK         0.0600 
    181 H181        0.8432   -8.1052  -43.0672 H         1 UNK         0.0600 
    182 H182       -0.8364   -8.4423  -43.4688 H         1 UNK         0.0600 
    183 H183        0.1759   -7.5761  -44.6125 H         1 UNK         0.0600 
    184 H184        2.4092   -8.7142  -44.9142 H         1 UNK         0.3000 
    185 H185        4.0701   -9.1723  -46.4992 H         1 UNK         0.0600 
    186 H186        4.7813  -10.0304  -44.2625 H         1 UNK         0.0600 
    187 H187        4.9018  -11.6655  -44.9010 H         1 UNK         0.0600 
    188 H188        5.9946  -10.4066  -45.4735 H         1 UNK         0.0600 
    189 H189        4.7924  -11.8782  -47.3296 H         1 UNK         0.3000 
    190 H190       -1.6565  -22.8606  -45.2598 H         1 UNK         0.3000 
    191 H191       -4.0034  -23.8567  -46.6381 H         1 UNK         0.0600 
    192 H192       -4.1100  -22.4121  -44.5788 H         1 UNK         0.0600 
    193 H193       -5.0081  -23.9141  -44.4108 H         1 UNK         0.0600 
    194 H194       -3.4447  -23.7430  -43.6316 H         1 UNK         0.0600 
    195 H195       -1.5212  -25.3303  -44.4876 H         1 UNK         0.3000 
    196 H196       -2.4843  -27.9907  -44.5649 H         1 UNK         0.0600 
    197 H197       -0.1749  -28.5555  -43.7874 H         1 UNK         0.0600 
    198 H198       -0.8279  -27.1804  -42.9096 H         1 UNK         0.0600 
    199 H199        0.3658  -26.9276  -44.1807 H         1 UNK         0.0600 
    200 H200       -0.3331  -26.2313  -46.7926 H         1 UNK         0.3000 
    201 H201        0.1881  -28.4662  -48.5525 H         1 UNK         0.0600 
    202 H202        1.1818  -26.7197  -49.9935 H         1 UNK         0.0600 
    203 H203        1.6929  -26.4657  -48.3330 H         1 UNK         0.0600 
    204 H204        0.4342  -25.4499  -49.0367 H         1 UNK         0.0600 
    205 H205       -2.6352  -26.7375  -48.0034 H         1 UNK         0.3000 
    206 H206       -4.6175  -26.5918  -48.8651 H         1 UNK         0.0600 
    207 H207       -4.3700  -28.9816  -49.5630 H         1 UNK         0.0600 
    208 H208       -5.4316  -28.0760  -50.6287 H         1 UNK         0.0600 
    209 H209       -3.7981  -28.4548  -51.1469 H         1 UNK         0.0600 
    210 H210       -2.0849  -25.1162  -50.2167 H         1 UNK         0.3000 
    211 H211       -3.0922  -24.0469  -52.6800 H         1 UNK         0.0600 
    212 H212       -0.9291  -23.0095  -50.7662 H         1 UNK         0.0600 
    213 H213       -1.2150  -22.4098  -52.3955 H         1 UNK         0.0600 
    214 H214       -0.6742  -24.0645  -52.1544 H         1 UNK         0.0600 
    215 H215       -3.0804  -22.8470  -49.3008 H         1 UNK         0.3000 
    216 H216       -4.6124  -20.4418  -49.9906 H         1 UNK         0.0600 
    217 H217       -4.5169  -19.9686  -47.5849 H         1 UNK         0.0600 
    218 H218       -2.9210  -20.4179  -48.1607 H         1 UNK         0.0600 
    219 H219       -3.8905  -21.5702  -47.2415 H         1 UNK         0.0600 
    220 H220       -5.3757  -23.7193  -49.0945 H         1 UNK         0.3000 
    221 H221       -8.0738  -23.2222  -48.1481 H         1 UNK         0.0600 
    222 H222       -6.8400  -25.8286  -49.1839 H         1 UNK         0.0600 
    223 H223       -6.7382  -25.2679  -47.5134 H         1 UNK         0.0600 
    224 H224       -8.2976  -25.6583  -48.2229 H         1 UNK         0.0600 
    225 H225       -6.5942  -24.3055  -51.2491 H         1 UNK         0.3000 
    226 H226       -9.0655  -24.2232  -52.7565 H         1 UNK         0.0600 
    227 H227       -7.5146  -24.6022  -54.6763 H         1 UNK         0.0600 
    228 H228       -6.1266  -24.2935  -53.6390 H         1 UNK         0.0600 
    229 H229       -7.1473  -25.7021  -53.3558 H         1 UNK         0.0600 
    230 H230       -6.7980  -21.8507  -51.7425 H         1 UNK         0.3000 
    231 H231       -6.4198  -19.7061  -52.0439 H         1 UNK         0.0600 
    232 H232       -9.0381  -19.4778  -53.6178 H         1 UNK         0.0600 
    233 H233       -8.1330  -18.1652  -52.8804 H         1 UNK         0.0600 
    234 H234       -8.9018  -19.3717  -51.8623 H         1 UNK         0.0600 
    235 H235       -5.3600  -21.6742  -53.7909 H         1 UNK         0.3000 
    236 H236       -5.2089  -20.7855  -56.5326 H         1 UNK         0.0600 
    237 H237       -3.4443  -22.7005  -54.9061 H         1 UNK         0.0600 
    238 H238       -4.8537  -23.1576  -55.8625 H         1 UNK         0.0600 
    239 H239       -3.4180  -22.5297  -56.6577 H         1 UNK         0.0600 
    240 H240       -3.4863  -20.0192  -53.5829 H         1 UNK         0.3000 
    241 H241       -1.3202  -18.5625  -54.8720 H         1 UNK         0.0600 
    242 H242       -4.6112  -17.6840  -54.6151 H         1 UNK         0.3800 
    243 H243       -4.3394  -15.9628  -54.5730 H         1 UNK         0.3800 
    244 H244       -0.6538  -17.9502  -52.5640 H         1 UNK         0.0800 
    245 H245       -0.7966  -19.6592  -52.8022 H         1 UNK         0.0800 
    246 H246       -2.5191  -16.5076  -51.1225 H         1 UNK         0.0800 
    247 H247       -2.9843  -17.2764  -49.6243 H         1 UNK         0.0800 
@<TRIPOS>BOND
     1    1    2 1    
     2    1  127 1    
     3    1  128 1    
     4    1  129 1    
     5    2    3 2    
     6    2    4 am   BACKBONE|DICT|INTERRES
     7    4    5 1    
     8    4  130 1    
     9    5    6 1    
    10    5   65 1    
    11    5  131 1    
    12    6    7 1    
    13    6  132 1    
    14    6  133 1    
    15    7    8 1    
    16    8    9 1    
    17    8  134 1    
    18    8  135 1    
    19    9   10 ar   
    20    9   14 ar   
    21   10   11 ar   
    22   10  136 1    
    23   11   12 ar   
    24   11  126 1    
    25   12   13 ar   
    26   12  137 1    
    27   13   14 ar   
    28   13   15 1    
    29   14  138 1    
    30   15   16 1    
    31   15  139 1    
    32   15  140 1    
    33   16   17 1    
    34   17   18 1    
    35   17  141 1    
    36   17  142 1    
    37   18   19 1    
    38   18   67 1    
    39   18  143 1    
    40   19   20 am   BACKBONE|DICT|INTERRES
    41   19  144 1    
    42   20   21 2    
    43   20   22 1    
    44   22   23 1    
    45   22   24 1    
    46   22  145 1    
    47   23  146 1    
    48   23  147 1    
    49   23  148 1    
    50   24   25 am   BACKBONE|DICT|INTERRES
    51   24  149 1    
    52   25   26 2    
    53   25   27 1    
    54   27   28 1    
    55   27   29 1    
    56   27  150 1    
    57   28  151 1    
    58   28  152 1    
    59   28  153 1    
    60   29   30 am   BACKBONE|DICT|INTERRES
    61   29  154 1    
    62   30   31 2    
    63   30   32 1    
    64   32   33 1    
    65   32   34 1    
    66   32  155 1    
    67   33  156 1    
    68   33  157 1    
    69   33  158 1    
    70   34   35 am   BACKBONE|DICT|INTERRES
    71   34  159 1    
    72   35   36 2    
    73   35   37 1    
    74   37   38 1    
    75   37   39 1    
    76   37  160 1    
    77   38  161 1    
    78   38  162 1    
    79   38  163 1    
    80   39   40 am   BACKBONE|DICT|INTERRES
    81   39  164 1    
    82   40   41 2    
    83   40   42 1    
    84   42   43 1    
    85   42   44 1    
    86   42  165 1    
    87   43  166 1    
    88   43  167 1    
    89   43  168 1    
    90   44   45 am   BACKBONE|DICT|INTERRES
    91   44  169 1    
    92   45   46 2    
    93   45   47 1    
    94   47   48 1    
    95   47   49 1    
    96   47  170 1    
    97   48  171 1    
    98   48  172 1    
    99   48  173 1    
   100   49   50 am   BACKBONE|DICT|INTERRES
   101   49  174 1    
   102   50   51 2    
   103   50   52 1    
   104   52   53 1    
   105   52   54 1    
   106   52  175 1    
   107   53  176 1    
   108   53  177 1    
   109   53  178 1    
   110   54   55 am   BACKBONE|DICT|INTERRES
   111   54  179 1    
   112   55   56 2    
   113   55   57 1    
   114   57   58 1    
   115   57   59 1    
   116   57  180 1    
   117   58  181 1    
   118   58  182 1    
   119   58  183 1    
   120   59   60 am   BACKBONE|DICT|INTERRES
   121   59  184 1    
   122   60   61 2    
   123   60   62 1    
   124   62   63 1    
   125   62   64 1    
   126   62  185 1    
   127   63  186 1    
   128   63  187 1    
   129   63  188 1    
   130   64   65 am   BACKBONE|DICT|INTERRES
   131   64  189 1    
   132   65   66 2    
   133   67   68 2    
   134   67   69 am   BACKBONE|DICT|INTERRES
   135   69   70 1    
   136   69  190 1    
   137   70   71 1    
   138   70   72 1    
   139   70  191 1    
   140   71  192 1    
   141   71  193 1    
   142   71  194 1    
   143   72   73 2    
   144   72   74 am   BACKBONE|DICT|INTERRES
   145   74   75 1    
   146   74  195 1    
   147   75   76 1    
   148   75   77 1    
   149   75  196 1    
   150   76  197 1    
   151   76  198 1    
   152   76  199 1    
   153   77   78 2    
   154   77   79 am   BACKBONE|DICT|INTERRES
   155   79   80 1    
   156   79  200 1    
   157   80   81 1    
   158   80   82 1    
   159   80  201 1    
   160   81  202 1    
   161   81  203 1    
   162   81  204 1    
   163   82   83 2    
   164   82   84 am   BACKBONE|DICT|INTERRES
   165   84   85 1    
   166   84  205 1    
   167   85   86 1    
   168   85   87 1    
   169   85  206 1    
   170   86  207 1    
   171   86  208 1    
   172   86  209 1    
   173   87   88 2    
   174   87   89 am   BACKBONE|DICT|INTERRES
   175   89   90 1    
   176   89  210 1    
   177   90   91 1    
   178   90   92 1    
   179   90  211 1    
   180   91  212 1    
   181   91  213 1    
   182   91  214 1    
   183   92   93 2    
   184   92   94 am   BACKBONE|DICT|INTERRES
   185   94   95 1    
   186   94  215 1    
   187   95   96 1    
   188   95   97 1    
   189   95  216 1    
   190   96  217 1    
   191   96  218 1    
   192   96  219 1    
   193   97   98 2    
   194   97   99 am   BACKBONE|DICT|INTERRES
   195   99  100 1    
   196   99  220 1    
   197  100  101 1    
   198  100  102 1    
   199  100  221 1    
   200  101  222 1    
   201  101  223 1    
   202  101  224 1    
   203  102  103 2    
   204  102  104 am   BACKBONE|DICT|INTERRES
   205  104  105 1    
   206  104  225 1    
   207  105  106 1    
   208  105  107 1    
   209  105  226 1    
   210  106  227 1    
   211  106  228 1    
   212  106  229 1    
   213  107  108 2    
   214  107  109 am   BACKBONE|DICT|INTERRES
   215  109  110 1    
   216  109  230 1    
   217  110  111 1    
   218  110  112 1    
   219  110  231 1    
   220  111  232 1    
   221  111  233 1    
   222  111  234 1    
   223  112  113 2    
   224  112  114 am   BACKBONE|DICT|INTERRES
   225  114  115 1    
   226  114  235 1    
   227  115  116 1    
   228  115  117 1    
   229  115  236 1    
   230  116  237 1    
   231  116  238 1    
   232  116  239 1    
   233  117  118 2    
   234  117  119 am   BACKBONE|DICT|INTERRES
   235  119  120 1    
   236  119  240 1    
   237  120  121 1    
   238  120  124 1    
   239  120  241 1    
   240  121  122 am   BACKBONE|DICT|INTERRES
   241  121  123 2    
   242  122  242 1    
   243  122  243 1    
   244  124  125 1    
   245  124  244 1    
   246  124  245 1    
   247  125  126 1    
   248  126  246 1    
   249  126  247 1    
@<TRIPOS>SUBSTRUCTURE
     1 UNK         1 GROUP             0       ****    0 ROOT    
