@<TRIPOS>MOLECULE
3R540
247   249    1
SMALL
USER_CHARGES


@<TRIPOS>ATOM
      1 CA         -3.5389  -18.3024  -46.3042 C.3       0 UNK        -0.1800 
      2 C          -3.4874  -16.9862  -47.0639 C.2       0 UNK         0.5000 
      3 O          -4.5348  -16.4352  -47.4037 O.2       0 UNK        -0.5000 
      4 N          -2.2777  -16.4923  -47.3473 N.am      1 UNK        -0.5000 
      5 CA         -2.0482  -15.2134  -48.0270 C.3       1 UNK         0.1400 
      6 C6         -0.6801  -15.1654  -48.7494 C.3       23 UNK        -0.0398 
      7 S7         -0.5442  -16.4335  -50.0543 S.3       23 UNK        -0.2404 
      8 C8          0.9240  -17.3330  -49.4885 C.3       23 UNK        -0.0205 
      9 C9          1.1365  -18.6057  -50.2862 C.ar      23 UNK        -0.0193 
     10 C10         1.9231  -18.5972  -51.4409 C.ar      23 UNK        -0.1150 
     11 C11         2.1607  -19.7810  -52.1456 C.ar      23 UNK        -0.0193 
     12 C12         1.6048  -20.9779  -51.6783 C.ar      23 UNK        -0.1150 
     13 C13         0.8004  -20.9946  -50.5362 C.ar      23 UNK        -0.0193 
     14 C14         0.5658  -19.8019  -49.8483 C.ar      23 UNK        -0.1150 
     15 C15         0.1824  -22.3007  -50.0603 C.3       23 UNK        -0.0205 
     16 S16         1.2924  -23.2142  -48.9453 S.3       23 UNK        -0.2404 
     17 C17         1.0621  -22.3092  -47.3758 C.3       23 UNK        -0.0398 
     18 CA          0.2970  -23.1015  -46.2894 C.3       11 UNK         0.1400 
     19 N           0.5283  -22.5199  -44.9630 N.am      11 UNK        -0.5000 
     20 C           0.1430  -23.0541  -43.7958 C.2       10 UNK         0.5000 
     21 O          -0.4304  -24.1402  -43.7015 O.2       10 UNK        -0.5000 
     22 CA          0.3803  -22.2079  -42.5298 C.3       10 UNK         0.1400 
     23 CB          1.7202  -22.5796  -41.8807 C.3       10 UNK        -0.1800 
     24 N           0.3278  -20.7568  -42.7515 N.am      10 UNK        -0.5000 
     25 C          -0.7414  -20.0903  -43.2154 C.2       9 UNK         0.5000 
     26 O          -1.7726  -20.6405  -43.5972 O.2       9 UNK        -0.5000 
     27 CA         -0.6419  -18.5593  -43.2787 C.3       9 UNK         0.1400 
     28 CB         -0.7802  -17.9502  -41.8768 C.3       9 UNK        -0.1800 
     29 N           0.6213  -18.1429  -43.8806 N.am      9 UNK        -0.5000 
     30 C           0.7943  -17.9303  -45.1923 C.2       8 UNK         0.5000 
     31 O          -0.1234  -17.9171  -46.0129 O.2       8 UNK        -0.5000 
     32 CA          2.2369  -17.7138  -45.6879 C.3       8 UNK         0.1400 
     33 CB          2.5401  -16.2172  -45.8470 C.3       8 UNK        -0.1800 
     34 N           3.2513  -18.3215  -44.8271 N.am      8 UNK        -0.5000 
     35 C           3.4014  -19.6398  -44.6361 C.2       7 UNK         0.5000 
     36 O           2.6894  -20.4939  -45.1621 O.2       7 UNK        -0.5000 
     37 CA          4.4982  -20.0738  -43.6474 C.3       7 UNK         0.1400 
     38 CB          5.8386  -20.2482  -44.3762 C.3       7 UNK        -0.1800 
     39 N           4.6752  -19.1493  -42.5253 N.am      7 UNK        -0.5000 
     40 C           3.7262  -18.7968  -41.6466 C.2       6 UNK         0.5000 
     41 O           2.5695  -19.2255  -41.6884 O.2       6 UNK        -0.5000 
     42 CA          4.1333  -17.7976  -40.5407 C.3       6 UNK         0.1400 
     43 CB          5.4369  -17.0245  -40.8465 C.3       6 UNK        -0.1800 
     44 N           3.0654  -16.8522  -40.2004 N.am      6 UNK        -0.5000 
     45 C           2.4319  -16.0125  -41.0305 C.2       5 UNK         0.5000 
     46 O           2.6232  -15.9534  -42.2485 O.2       5 UNK        -0.5000 
     47 CA          1.4362  -15.0532  -40.3674 C.3       5 UNK         0.1400 
     48 CB          2.1714  -13.8738  -39.7036 C.3       5 UNK        -0.1800 
     49 N           0.5030  -14.5511  -41.3686 N.am      5 UNK        -0.5000 
     50 C          -0.7178  -14.0703  -41.1095 C.2       4 UNK         0.5000 
     51 O          -1.1876  -14.0010  -39.9718 O.2       4 UNK        -0.5000 
     52 CA         -1.5622  -13.6115  -42.3193 C.3       4 UNK         0.1400 
     53 CB         -2.6660  -12.6082  -41.9259 C.3       4 UNK        -0.1800 
     54 N          -0.7904  -13.0811  -43.4487 N.am      4 UNK        -0.5000 
     55 C           0.0757  -12.0531  -43.4400 C.2       3 UNK         0.5000 
     56 O           0.4524  -11.4694  -42.4234 O.2       3 UNK        -0.5000 
     57 CA          0.5795  -11.5681  -44.8160 C.3       3 UNK         0.1400 
     58 CB          1.8474  -12.3338  -45.2232 C.3       3 UNK        -0.1800 
     59 N          -0.4258  -11.7095  -45.8729 N.am      3 UNK        -0.5000 
     60 C          -1.6201  -11.0993  -45.8839 C.2       2 UNK         0.5000 
     61 O          -1.9397  -10.2199  -45.0830 O.2       2 UNK        -0.5000 
     62 CA         -2.6473  -11.5526  -46.9438 C.3       2 UNK         0.1400 
     63 CB         -2.8301  -10.4615  -48.0110 C.3       2 UNK        -0.1800 
     64 N          -2.3641  -12.8245  -47.6226 N.am      2 UNK        -0.5000 
     65 C          -2.2053  -14.0280  -47.0513 C.2       1 UNK         0.5000 
     66 O          -2.1513  -14.2074  -45.8312 O.2       1 UNK        -0.5000 
     67 C          -1.2038  -23.2875  -46.6338 C.2       11 UNK         0.5000 
     68 O          -1.5143  -24.1048  -47.4994 O.2       11 UNK        -0.5000 
     69 N          -2.1201  -22.6157  -45.9145 N.am      12 UNK        -0.5000 
     70 CA         -3.5719  -22.8255  -46.0048 C.3       12 UNK         0.1400 
     71 CB         -4.2903  -21.8371  -45.0758 C.3       12 UNK        -0.1800 
     72 C          -4.0241  -24.2643  -45.6697 C.2       12 UNK         0.5000 
     73 O          -5.0966  -24.6806  -46.1086 O.2       12 UNK        -0.5000 
     74 N          -3.2088  -24.9999  -44.8998 N.am      13 UNK        -0.5000 
     75 CA         -3.4187  -26.4155  -44.5992 C.3       13 UNK         0.1400 
     76 CB         -2.6911  -26.7549  -43.2891 C.3       13 UNK        -0.1800 
     77 C          -2.9413  -27.3455  -45.7336 C.2       13 UNK         0.5000 
     78 O          -3.3571  -28.5045  -45.7680 O.2       13 UNK        -0.5000 
     79 N          -2.0694  -26.8456  -46.6204 N.am      14 UNK        -0.5000 
     80 CA         -1.4575  -27.6067  -47.7085 C.3       14 UNK         0.1400 
     81 CB          0.0259  -27.2176  -47.8201 C.3       14 UNK        -0.1800 
     82 C          -2.1727  -27.3773  -49.0497 C.2       14 UNK         0.5000 
     83 O          -2.3062  -28.3235  -49.8273 O.2       14 UNK        -0.5000 
     84 N          -2.6143  -26.1407  -49.3064 N.am      15 UNK        -0.5000 
     85 CA         -3.2605  -25.7202  -50.5469 C.3       15 UNK         0.1400 
     86 CB         -2.1850  -25.4294  -51.6122 C.3       15 UNK        -0.1800 
     87 C          -4.1543  -24.4961  -50.2909 C.2       15 UNK         0.5000 
     88 O          -4.2140  -23.9944  -49.1691 O.2       15 UNK        -0.5000 
     89 N          -4.8346  -24.0277  -51.3449 N.am      16 UNK        -0.5000 
     90 CA         -5.7649  -22.8933  -51.3143 C.3       16 UNK         0.1400 
     91 CB         -6.5836  -22.9044  -52.6139 C.3       16 UNK        -0.1800 
     92 C          -5.1024  -21.5144  -51.1007 C.2       16 UNK         0.5000 
     93 O          -5.8147  -20.5469  -50.8292 O.2       16 UNK        -0.5000 
     94 N          -3.7686  -21.4400  -51.2288 N.am      17 UNK        -0.5000 
     95 CA         -2.9384  -20.2464  -51.0470 C.3       17 UNK         0.1400 
     96 CB         -2.9501  -19.7973  -49.5663 C.3       17 UNK        -0.1800 
     97 C          -3.3158  -19.1407  -52.0532 C.2       17 UNK         0.5000 
     98 O          -3.3705  -19.4226  -53.2544 O.2       17 UNK        -0.5000 
     99 N          -3.5734  -17.9189  -51.5679 N.am      18 UNK        -0.5000 
    100 CA        -3.9345  -16.7454  -52.3663 C.3       18 UNK         0.1400 
    101 CB        -4.0016  -15.5074  -51.4604 C.3       18 UNK        -0.1800 
    102 C         -5.2447  -16.8918  -53.1604 C.2       18 UNK         0.5000 
    103 O         -5.3771  -16.2547  -54.2051 O.2       18 UNK        -0.5000 
    104 N         -6.1667  -17.7489  -52.6964 N.am      19 UNK        -0.5000 
    105 CA        -7.4467  -18.0219  -53.3593 C.3       19 UNK         0.1400 
    106 CB        -8.3473  -18.8385  -52.4212 C.3       19 UNK        -0.1800 
    107 C         -7.3001  -18.7221  -54.7263 C.2       19 UNK         0.5000 
    108 O         -8.2046  -18.6130  -55.5549 O.2       19 UNK        -0.5000 
    109 N         -6.1629  -19.3955  -54.9466 N.am      20 UNK        -0.5000 
    110 CA        -5.7723  -19.9932  -56.2248 C.3       20 UNK         0.1400 
    111 CB        -5.6047  -21.5088  -56.0308 C.3       20 UNK        -0.1800 
    112 C         -4.4937  -19.3433  -56.7941 C.2       20 UNK         0.5000 
    113 O         -3.9384  -19.8689  -57.7594 O.2       20 UNK        -0.5000 
    114 N         -4.0563  -18.2190  -56.2001 N.am      21 UNK        -0.5000 
    115 CA        -2.8464  -17.4500  -56.5136 C.3       21 UNK         0.1400 
    116 CB        -3.0019  -16.7317  -57.8701 C.3       21 UNK        -0.1800 
    117 C         -1.5702  -18.3134  -56.4253 C.2       21 UNK         0.5000 
    118 O         -0.8849  -18.5071  -57.4308 O.2       21 UNK        -0.5000 
    119 N         -1.3101  -18.8365  -55.2191 N.am      22 UNK        -0.5000 
    120 CA        -0.3391  -19.9020  -54.9152 C.3       22 UNK         0.1400 
    121 C         -0.9318  -21.2956  -55.2752 C.2       22 UNK         0.5000 
    122 N         -2.1282  -21.6024  -54.7868 N.am      22 UNK        -0.7600 
    123 O         -0.3400  -22.0922  -55.9985 O.2       22 UNK        -0.5000 
    124 C124        1.1003  -19.6200  -55.4435 C.3       23 UNK        -0.0398 
    125 S125        2.3941  -20.7234  -54.7744 S.3       23 UNK        -0.2404 
    126 C126        3.0616  -19.7652  -53.3751 C.3       23 UNK        -0.0205 
    127 H127       -3.7592  -18.1226  -45.2522 H         1 UNK         0.0600 
    128 H128       -2.5966  -18.8465  -46.3715 H         1 UNK         0.0600 
    129 H129       -4.3225  -18.9382  -46.7159 H         1 UNK         0.0600 
    130 H130       -1.4541  -16.9679  -46.9868 H         1 UNK         0.3000 
    131 H131       -2.8244  -15.0930  -48.7838 H         1 UNK         0.0600 
    132 H132        0.1322  -15.2750  -48.0311 H         1 UNK         0.0800 
    133 H133       -0.5270  -14.1986  -49.2317 H         1 UNK         0.0800 
    134 H134        1.8002  -16.6871  -49.5625 H         1 UNK         0.0800 
    135 H135        0.8083  -17.5806  -48.4346 H         1 UNK         0.0800 
    136 H136        2.3634  -17.6696  -51.7790 H         1 UNK         0.1150 
    137 H137        1.7987  -21.9018  -52.2048 H         1 UNK         0.1150 
    138 H138       -0.0547  -19.7974  -48.9646 H         1 UNK         0.1150 
    139 H139       -0.7755  -22.1256  -49.5689 H         1 UNK         0.0800 
    140 H140       -0.0305  -22.9285  -50.9252 H         1 UNK         0.0800 
    141 H141        0.5953  -21.3397  -47.5368 H         1 UNK         0.0800 
    142 H142        2.0708  -22.0939  -47.0249 H         1 UNK         0.0800 
    143 H143        0.7255  -24.1055  -46.2538 H         1 UNK         0.0600 
    144 H144        1.0429  -21.6447  -44.9419 H         1 UNK         0.3000 
    145 H145       -0.4158  -22.4527  -41.8239 H         1 UNK         0.0600 
    146 H146        1.8995  -21.9993  -40.9754 H         1 UNK         0.0600 
    147 H147        1.7372  -23.6338  -41.6011 H         1 UNK         0.0600 
    148 H148        2.5526  -22.4107  -42.5617 H         1 UNK         0.0600 
    149 H149        1.1359  -20.2244  -42.4399 H         1 UNK         0.3000 
    150 H150       -1.4778  -18.1951  -43.8799 H         1 UNK         0.0600 
    151 H151       -1.6880  -18.3013  -41.3845 H         1 UNK         0.0600 
    152 H152       -0.8469  -16.8668  -41.9360 H         1 UNK         0.0600 
    153 H153        0.0630  -18.2037  -41.2337 H         1 UNK         0.0600 
    154 H154        1.4351  -18.1418  -43.2780 H         1 UNK         0.3000 
    155 H155        2.3160  -18.1845  -46.6697 H         1 UNK         0.0600 
    156 H156        3.5261  -16.0582  -46.2836 H         1 UNK         0.0600 
    157 H157        2.5090  -15.6969  -44.8899 H         1 UNK         0.0600 
    158 H158        1.8152  -15.7376  -46.5033 H         1 UNK         0.0600 
    159 H159        3.8490  -17.6884  -44.3154 H         1 UNK         0.3000 
    160 H160        4.2116  -21.0412  -43.2355 H         1 UNK         0.0600 
    161 H161        6.2020  -19.3040  -44.7840 H         1 UNK         0.0600 
    162 H162        5.7430  -20.9493  -45.2065 H         1 UNK         0.0600 
    163 H163        6.6038  -20.6424  -43.7072 H         1 UNK         0.0600 
    164 H164        5.5948  -18.7464  -42.4196 H         1 UNK         0.3000 
    165 H165        4.3057  -18.3972  -39.6460 H         1 UNK         0.0600 
    166 H166        5.6642  -16.3152  -40.0505 H         1 UNK         0.0600 
    167 H167        6.2934  -17.6952  -40.9220 H         1 UNK         0.0600 
    168 H168        5.3667  -16.4609  -41.7779 H         1 UNK         0.0600 
    169 H169        2.8041  -16.8404  -39.2246 H         1 UNK         0.3000 
    170 H170        0.8825  -15.6128  -39.6102 H         1 UNK         0.0600 
    171 H171        2.8897  -14.2225  -38.9608 H         1 UNK         0.0600 
    172 H172        2.7180  -13.2810  -40.4383 H         1 UNK         0.0600 
    173 H173        1.4753  -13.2093  -39.1916 H         1 UNK         0.0600 
    174 H174        0.8302  -14.6194  -42.3238 H         1 UNK         0.3000 
    175 H175       -2.0560  -14.5095  -42.6933 H         1 UNK         0.0600 
    176 H176       -3.3457  -13.0367  -41.1885 H         1 UNK         0.0600 
    177 H177       -2.2467  -11.6972  -41.4975 H         1 UNK         0.0600 
    178 H178       -3.2661  -12.3253  -42.7911 H         1 UNK         0.0600 
    179 H179       -1.0503  -13.4708  -44.3505 H         1 UNK         0.3000 
    180 H180        0.8283  -10.5088  -44.7261 H         1 UNK         0.0600 
    181 H181        1.6458  -13.3958  -45.3629 H         1 UNK         0.0600 
    182 H182        2.6211  -12.2442  -44.4593 H         1 UNK         0.0600 
    183 H183        2.2628  -11.9450  -46.1530 H         1 UNK         0.0600 
    184 H184       -0.2473  -12.4080  -46.5777 H         1 UNK         0.3000 
    185 H185       -3.5973  -11.6764  -46.4202 H         1 UNK         0.0600 
    186 H186       -3.0834   -9.5032  -47.5553 H         1 UNK         0.0600 
    187 H187       -1.9207  -10.3162  -48.5955 H         1 UNK         0.0600 
    188 H188       -3.6372  -10.7122  -48.6997 H         1 UNK         0.0600 
    189 H189       -2.3753  -12.7757  -48.6312 H         1 UNK         0.3000 
    190 H190       -1.8096  -21.9765  -45.1903 H         1 UNK         0.3000 
    191 H191       -3.8713  -22.6053  -47.0301 H         1 UNK         0.0600 
    192 H192       -3.9891  -20.8119  -45.2777 H         1 UNK         0.0600 
    193 H193       -5.3715  -21.8916  -45.2079 H         1 UNK         0.0600 
    194 H194       -4.0765  -22.0456  -44.0268 H         1 UNK         0.0600 
    195 H195       -2.3496  -24.5866  -44.5544 H         1 UNK         0.3000 
    196 H196       -4.4853  -26.5953  -44.4490 H         1 UNK         0.0600 
    197 H197       -2.8701  -27.7912  -42.9997 H         1 UNK         0.0600 
    198 H198       -3.0371  -26.1244  -42.4699 H         1 UNK         0.0600 
    199 H199       -1.6125  -26.6223  -43.3821 H         1 UNK         0.0600 
    200 H200       -1.8383  -25.8599  -46.5818 H         1 UNK         0.3000 
    201 H201       -1.5018  -28.6751  -47.4864 H         1 UNK         0.0600 
    202 H202        0.5542  -27.4054  -46.8853 H         1 UNK         0.0600 
    203 H203        0.1525  -26.1638  -48.0703 H         1 UNK         0.0600 
    204 H204        0.5231  -27.7989  -48.5975 H         1 UNK         0.0600 
    205 H205       -2.4822  -25.4003  -48.6208 H         1 UNK         0.3000 
    206 H206       -3.9112  -26.5224  -50.9011 H         1 UNK         0.0600 
    207 H207       -1.5715  -26.3094  -51.8061 H         1 UNK         0.0600 
    208 H208       -2.6267  -25.1355  -52.5646 H         1 UNK         0.0600 
    209 H209       -1.5208  -24.6276  -51.2939 H         1 UNK         0.0600 
    210 H210       -4.7366  -24.4960  -52.2341 H         1 UNK         0.3000 
    211 H211       -6.4527  -23.0437  -50.4796 H         1 UNK         0.0600 
    212 H212       -5.9383  -22.8291  -53.4875 H         1 UNK         0.0600 
    213 H213       -7.2878  -22.0731  -52.6505 H         1 UNK         0.0600 
    214 H214       -7.1648  -23.8221  -52.7054 H         1 UNK         0.0600 
    215 H215       -3.2809  -22.2845  -51.4864 H         1 UNK         0.3000 
    216 H216       -1.9201  -20.5382  -51.3016 H         1 UNK         0.0600 
    217 H217       -2.2604  -18.9708  -49.3943 H         1 UNK         0.0600 
    218 H218       -2.6439  -20.6111  -48.9087 H         1 UNK         0.0600 
    219 H219       -3.9394  -19.4735  -49.2420 H         1 UNK         0.0600 
    220 H220       -3.5087  -17.7773  -50.5706 H         1 UNK         0.3000 
    221 H221       -3.1373  -16.5862  -53.0951 H         1 UNK         0.0600 
    222 H222       -4.6579  -15.6666  -50.6039 H         1 UNK         0.0600 
    223 H223       -3.0130  -15.2431  -51.0908 H         1 UNK         0.0600 
    224 H224       -4.3751  -14.6384  -52.0042 H         1 UNK         0.0600 
    225 H225       -5.9709  -18.2721  -51.8527 H         1 UNK         0.3000 
    226 H226       -7.9352  -17.0622  -53.5401 H         1 UNK         0.0600 
    227 H227       -8.4876  -18.3321  -51.4661 H         1 UNK         0.0600 
    228 H228       -9.3352  -18.9850  -52.8596 H         1 UNK         0.0600 
    229 H229       -7.9312  -19.8245  -52.2207 H         1 UNK         0.0600 
    230 H230       -5.4711  -19.4340  -54.2081 H         1 UNK         0.3000 
    231 H231       -6.5490  -19.8370  -56.9756 H         1 UNK         0.0600 
    232 H232       -6.5382  -21.9646  -55.7010 H         1 UNK         0.0600 
    233 H233       -4.8389  -21.7333  -55.2900 H         1 UNK         0.0600 
    234 H234       -5.3189  -22.0006  -56.9613 H         1 UNK         0.0600 
    235 H235       -4.6219  -17.8372  -55.4528 H         1 UNK         0.3000 
    236 H236       -2.7577  -16.6805  -55.7453 H         1 UNK         0.0600 
    237 H237       -2.1385  -16.0981  -58.0762 H         1 UNK         0.0600 
    238 H238       -3.0952  -17.4363  -58.6970 H         1 UNK         0.0600 
    239 H239       -3.8836  -16.0908  -57.8759 H         1 UNK         0.0600 
    240 H240       -1.9965  -18.6812  -54.4897 H         1 UNK         0.3000 
    241 H241       -0.2646  -19.9055  -53.8273 H         1 UNK         0.0600 
    242 H242       -2.5343  -22.4939  -55.0182 H         1 UNK         0.3800 
    243 H243       -2.6463  -20.9304  -54.2318 H         1 UNK         0.3800 
    244 H244        1.1336  -19.7197  -56.5284 H         1 UNK         0.0800 
    245 H245        1.3762  -18.5871  -55.2291 H         1 UNK         0.0800 
    246 H246        4.0249  -20.1924  -53.0939 H         1 UNK         0.0800 
    247 H247        3.2641  -18.7442  -53.7021 H         1 UNK         0.0800 
@<TRIPOS>BOND
     1    1    2 1    
     2    1  127 1    
     3    1  128 1    
     4    1  129 1    
     5    2    3 2    
     6    2    4 am   BACKBONE|DICT|INTERRES
     7    4    5 1    
     8    4  130 1    
     9    5    6 1    
    10    5   65 1    
    11    5  131 1    
    12    6    7 1    
    13    6  132 1    
    14    6  133 1    
    15    7    8 1    
    16    8    9 1    
    17    8  134 1    
    18    8  135 1    
    19    9   10 ar   
    20    9   14 ar   
    21   10   11 ar   
    22   10  136 1    
    23   11   12 ar   
    24   11  126 1    
    25   12   13 ar   
    26   12  137 1    
    27   13   14 ar   
    28   13   15 1    
    29   14  138 1    
    30   15   16 1    
    31   15  139 1    
    32   15  140 1    
    33   16   17 1    
    34   17   18 1    
    35   17  141 1    
    36   17  142 1    
    37   18   19 1    
    38   18   67 1    
    39   18  143 1    
    40   19   20 am   BACKBONE|DICT|INTERRES
    41   19  144 1    
    42   20   21 2    
    43   20   22 1    
    44   22   23 1    
    45   22   24 1    
    46   22  145 1    
    47   23  146 1    
    48   23  147 1    
    49   23  148 1    
    50   24   25 am   BACKBONE|DICT|INTERRES
    51   24  149 1    
    52   25   26 2    
    53   25   27 1    
    54   27   28 1    
    55   27   29 1    
    56   27  150 1    
    57   28  151 1    
    58   28  152 1    
    59   28  153 1    
    60   29   30 am   BACKBONE|DICT|INTERRES
    61   29  154 1    
    62   30   31 2    
    63   30   32 1    
    64   32   33 1    
    65   32   34 1    
    66   32  155 1    
    67   33  156 1    
    68   33  157 1    
    69   33  158 1    
    70   34   35 am   BACKBONE|DICT|INTERRES
    71   34  159 1    
    72   35   36 2    
    73   35   37 1    
    74   37   38 1    
    75   37   39 1    
    76   37  160 1    
    77   38  161 1    
    78   38  162 1    
    79   38  163 1    
    80   39   40 am   BACKBONE|DICT|INTERRES
    81   39  164 1    
    82   40   41 2    
    83   40   42 1    
    84   42   43 1    
    85   42   44 1    
    86   42  165 1    
    87   43  166 1    
    88   43  167 1    
    89   43  168 1    
    90   44   45 am   BACKBONE|DICT|INTERRES
    91   44  169 1    
    92   45   46 2    
    93   45   47 1    
    94   47   48 1    
    95   47   49 1    
    96   47  170 1    
    97   48  171 1    
    98   48  172 1    
    99   48  173 1    
   100   49   50 am   BACKBONE|DICT|INTERRES
   101   49  174 1    
   102   50   51 2    
   103   50   52 1    
   104   52   53 1    
   105   52   54 1    
   106   52  175 1    
   107   53  176 1    
   108   53  177 1    
   109   53  178 1    
   110   54   55 am   BACKBONE|DICT|INTERRES
   111   54  179 1    
   112   55   56 2    
   113   55   57 1    
   114   57   58 1    
   115   57   59 1    
   116   57  180 1    
   117   58  181 1    
   118   58  182 1    
   119   58  183 1    
   120   59   60 am   BACKBONE|DICT|INTERRES
   121   59  184 1    
   122   60   61 2    
   123   60   62 1    
   124   62   63 1    
   125   62   64 1    
   126   62  185 1    
   127   63  186 1    
   128   63  187 1    
   129   63  188 1    
   130   64   65 am   BACKBONE|DICT|INTERRES
   131   64  189 1    
   132   65   66 2    
   133   67   68 2    
   134   67   69 am   BACKBONE|DICT|INTERRES
   135   69   70 1    
   136   69  190 1    
   137   70   71 1    
   138   70   72 1    
   139   70  191 1    
   140   71  192 1    
   141   71  193 1    
   142   71  194 1    
   143   72   73 2    
   144   72   74 am   BACKBONE|DICT|INTERRES
   145   74   75 1    
   146   74  195 1    
   147   75   76 1    
   148   75   77 1    
   149   75  196 1    
   150   76  197 1    
   151   76  198 1    
   152   76  199 1    
   153   77   78 2    
   154   77   79 am   BACKBONE|DICT|INTERRES
   155   79   80 1    
   156   79  200 1    
   157   80   81 1    
   158   80   82 1    
   159   80  201 1    
   160   81  202 1    
   161   81  203 1    
   162   81  204 1    
   163   82   83 2    
   164   82   84 am   BACKBONE|DICT|INTERRES
   165   84   85 1    
   166   84  205 1    
   167   85   86 1    
   168   85   87 1    
   169   85  206 1    
   170   86  207 1    
   171   86  208 1    
   172   86  209 1    
   173   87   88 2    
   174   87   89 am   BACKBONE|DICT|INTERRES
   175   89   90 1    
   176   89  210 1    
   177   90   91 1    
   178   90   92 1    
   179   90  211 1    
   180   91  212 1    
   181   91  213 1    
   182   91  214 1    
   183   92   93 2    
   184   92   94 am   BACKBONE|DICT|INTERRES
   185   94   95 1    
   186   94  215 1    
   187   95   96 1    
   188   95   97 1    
   189   95  216 1    
   190   96  217 1    
   191   96  218 1    
   192   96  219 1    
   193   97   98 2    
   194   97   99 am   BACKBONE|DICT|INTERRES
   195   99  100 1    
   196   99  220 1    
   197  100  101 1    
   198  100  102 1    
   199  100  221 1    
   200  101  222 1    
   201  101  223 1    
   202  101  224 1    
   203  102  103 2    
   204  102  104 am   BACKBONE|DICT|INTERRES
   205  104  105 1    
   206  104  225 1    
   207  105  106 1    
   208  105  107 1    
   209  105  226 1    
   210  106  227 1    
   211  106  228 1    
   212  106  229 1    
   213  107  108 2    
   214  107  109 am   BACKBONE|DICT|INTERRES
   215  109  110 1    
   216  109  230 1    
   217  110  111 1    
   218  110  112 1    
   219  110  231 1    
   220  111  232 1    
   221  111  233 1    
   222  111  234 1    
   223  112  113 2    
   224  112  114 am   BACKBONE|DICT|INTERRES
   225  114  115 1    
   226  114  235 1    
   227  115  116 1    
   228  115  117 1    
   229  115  236 1    
   230  116  237 1    
   231  116  238 1    
   232  116  239 1    
   233  117  118 2    
   234  117  119 am   BACKBONE|DICT|INTERRES
   235  119  120 1    
   236  119  240 1    
   237  120  121 1    
   238  120  124 1    
   239  120  241 1    
   240  121  122 am   BACKBONE|DICT|INTERRES
   241  121  123 2    
   242  122  242 1    
   243  122  243 1    
   244  124  125 1    
   245  124  244 1    
   246  124  245 1    
   247  125  126 1    
   248  126  246 1    
   249  126  247 1    
@<TRIPOS>SUBSTRUCTURE
     1 UNK         1 GROUP             0       ****    0 ROOT    
