@<TRIPOS>MOLECULE
3R540
247   249    1
SMALL
USER_CHARGES


@<TRIPOS>ATOM
      1 CA         -4.7049  -12.1705  -41.6008 C.3       0 UNK        -0.1800 
      2 C          -4.0292  -11.5534  -42.8168 C.2       0 UNK         0.5000 
      3 O          -3.8388  -10.3373  -42.8640 O.2       0 UNK        -0.5000 
      4 N          -3.6559  -12.3841  -43.7977 N.am      1 UNK        -0.5000 
      5 CA         -3.0009  -11.9902  -45.0510 C.3       1 UNK         0.1400 
      6 C6         -3.2224  -13.0324  -46.1757 C.3       23 UNK        -0.0398 
      7 S7         -4.9775  -13.3693  -46.5513 S.3       23 UNK        -0.2404 
      8 C8         -5.1186  -15.1415  -46.1168 C.3       23 UNK        -0.0205 
      9 C9         -4.6246  -16.1293  -47.1794 C.ar      23 UNK        -0.0193 
     10 C10        -3.6041  -15.8165  -48.0856 C.ar      23 UNK        -0.1150 
     11 C11        -3.1652  -16.7528  -49.0224 C.ar      23 UNK        -0.0193 
     12 C12        -3.7590  -18.0152  -49.0644 C.ar      23 UNK        -0.1150 
     13 C13        -4.7743  -18.3592  -48.1619 C.ar      23 UNK        -0.0193 
     14 C14        -5.1946  -17.4066  -47.2268 C.ar      23 UNK        -0.1150 
     15 C15        -5.4508  -19.7351  -48.1590 C.3       23 UNK        -0.0205 
     16 S16        -4.5062  -21.0954  -48.9333 S.3       23 UNK        -0.2404 
     17 C17        -2.9542  -21.0214  -47.9840 C.3       23 UNK        -0.0398 
     18 CA         -2.4543  -22.3722  -47.4248 C.3       11 UNK         0.1400 
     19 N          -1.0414  -22.2646  -47.0565 N.am      11 UNK        -0.5000 
     20 C          -0.2335  -23.2675  -46.6962 C.2       10 UNK         0.5000 
     21 O          -0.5842  -24.4437  -46.6388 O.2       10 UNK        -0.5000 
     22 CA          1.1972  -22.8776  -46.2798 C.3       10 UNK         0.1400 
     23 CB          2.0953  -22.6791  -47.5100 C.3       10 UNK        -0.1800 
     24 N           1.2278  -21.6743  -45.4451 N.am      10 UNK        -0.5000 
     25 C           0.6749  -21.5934  -44.2259 C.2       9 UNK         0.5000 
     26 O           0.1247  -22.5394  -43.6628 O.2       9 UNK        -0.5000 
     27 CA          0.6902  -20.2152  -43.5422 C.3       9 UNK         0.1400 
     28 CB          2.0686  -19.9238  -42.9308 C.3       9 UNK        -0.1800 
     29 N           0.3115  -19.1330  -44.4511 N.am      9 UNK        -0.5000 
     30 C          -0.8882  -19.0172  -45.0388 C.2       8 UNK         0.5000 
     31 O          -1.8246  -19.7891  -44.8354 O.2       8 UNK        -0.5000 
     32 CA         -1.0540  -17.8825  -46.0664 C.3       8 UNK         0.1400 
     33 CB         -1.3189  -16.5434  -45.3665 C.3       8 UNK        -0.1800 
     34 N           0.1020  -17.7446  -46.9523 N.am      8 UNK        -0.5000 
     35 C           0.5552  -18.6997  -47.7754 C.2       7 UNK         0.5000 
     36 O           0.0342  -19.8050  -47.8919 O.2       7 UNK        -0.5000 
     37 CA          1.8467  -18.3957  -48.5480 C.3       7 UNK         0.1400 
     38 CB          1.5627  -17.5467  -49.7958 C.3       7 UNK        -0.1800 
     39 N           2.8279  -17.7267  -47.6960 N.am      7 UNK        -0.5000 
     40 C           3.4889  -18.3314  -46.6987 C.2       6 UNK         0.5000 
     41 O           3.3772  -19.5284  -46.4291 O.2       6 UNK        -0.5000 
     42 CA          4.3966  -17.4357  -45.8355 C.3       6 UNK         0.1400 
     43 CB          5.7597  -17.2294  -46.5126 C.3       6 UNK        -0.1800 
     44 N           3.7933  -16.1324  -45.5474 N.am      6 UNK        -0.5000 
     45 C           2.7110  -15.9610  -44.7757 C.2       5 UNK         0.5000 
     46 O           2.1224  -16.8835  -44.2139 O.2       5 UNK        -0.5000 
     47 CA          2.1742  -14.5253  -44.6298 C.3       5 UNK         0.1400 
     48 CB          2.9013  -13.7964  -43.4903 C.3       5 UNK        -0.1800 
     49 N           2.2482  -13.7132  -45.8476 N.am      5 UNK        -0.5000 
     50 C           1.7031  -14.0304  -47.0317 C.2       4 UNK         0.5000 
     51 O           1.1928  -15.1238  -47.2790 O.2       4 UNK        -0.5000 
     52 CA          1.7133  -12.9258  -48.1006 C.3       4 UNK         0.1400 
     53 CB          0.7700  -13.2237  -49.2812 C.3       4 UNK        -0.1800 
     54 N           1.3443  -11.6505  -47.4895 N.am      4 UNK        -0.5000 
     55 C           1.8938  -10.4643  -47.7810 C.2       3 UNK         0.5000 
     56 O           2.7884  -10.3177  -48.6148 O.2       3 UNK        -0.5000 
     57 CA          1.3634   -9.2237  -47.0295 C.3       3 UNK         0.1400 
     58 CB          0.4564   -8.3904  -47.9486 C.3       3 UNK        -0.1800 
     59 N           0.6242   -9.5368  -45.8051 N.am      3 UNK        -0.5000 
     60 C           1.1616  -10.0290  -44.6808 C.2       2 UNK         0.5000 
     61 O           2.3667  -10.2339  -44.5340 O.2       2 UNK        -0.5000 
     62 CA          0.1847  -10.3869  -43.5412 C.3       2 UNK         0.1400 
     63 CB          0.0985   -9.2368  -42.5270 C.3       2 UNK        -0.1800 
     64 N          -1.1724  -10.7377  -43.9784 N.am      2 UNK        -0.5000 
     65 C          -1.4945  -11.7263  -44.8232 C.2       1 UNK         0.5000 
     66 O          -0.6532  -12.4175  -45.3985 O.2       1 UNK        -0.5000 
     67 C          -3.3306  -22.8861  -46.2639 C.2       11 UNK         0.5000 
     68 O          -4.2616  -23.6528  -46.5063 O.2       11 UNK        -0.5000 
     69 N          -3.0050  -22.4787  -45.0297 N.am      12 UNK        -0.5000 
     70 CA         -3.6458  -22.9577  -43.8071 C.3       12 UNK         0.1400 
     71 CB         -3.3584  -21.9695  -42.6662 C.3       12 UNK        -0.1800 
     72 C          -3.2010  -24.3816  -43.4206 C.2       12 UNK         0.5000 
     73 O          -4.0251  -25.1571  -42.9341 O.2       12 UNK        -0.5000 
     74 N          -1.9114  -24.6931  -43.6158 N.am      13 UNK        -0.5000 
     75 CA         -1.3131  -25.9907  -43.2976 C.3       13 UNK         0.1400 
     76 CB          0.2178  -25.8580  -43.2761 C.3       13 UNK        -0.1800 
     77 C          -1.7518  -27.1051  -44.2649 C.2       13 UNK         0.5000 
     78 O          -2.1333  -28.1875  -43.8159 O.2       13 UNK        -0.5000 
     79 N          -1.6852  -26.8220  -45.5708 N.am      14 UNK        -0.5000 
     80 CA         -2.1412  -27.7000  -46.6464 C.3       14 UNK         0.1400 
     81 CB         -1.3849  -27.3240  -47.9340 C.3       14 UNK        -0.1800 
     82 C          -3.6621  -27.5820  -46.8573 C.2       14 UNK         0.5000 
     83 O          -4.3220  -26.7460  -46.2386 O.2       14 UNK        -0.5000 
     84 N          -4.1975  -28.3804  -47.7876 N.am      15 UNK        -0.5000 
     85 CA         -5.5855  -28.3093  -48.2547 C.3       15 UNK         0.1400 
     86 CB         -6.0021  -29.6992  -48.7700 C.3       15 UNK        -0.1800 
     87 C          -5.7761  -27.1993  -49.3157 C.2       15 UNK         0.5000 
     88 O          -6.3721  -27.4482  -50.3642 O.2       15 UNK        -0.5000 
     89 N          -5.2182  -26.0082  -49.0498 N.am      16 UNK        -0.5000 
     90 CA         -5.1953  -24.7729  -49.8504 C.3       16 UNK         0.1400 
     91 CB         -6.6185  -24.2118  -50.0246 C.3       16 UNK        -0.1800 
     92 C          -4.4647  -24.8422  -51.2112 C.2       16 UNK         0.5000 
     93 O          -4.0404  -23.7990  -51.7090 O.2       16 UNK        -0.5000 
     94 N          -4.3333  -26.0425  -51.7909 N.am      17 UNK        -0.5000 
     95 CA         -3.7410  -26.3399  -53.0962 C.3       17 UNK         0.1400 
     96 CB         -3.6655  -27.8645  -53.2685 C.3       17 UNK        -0.1800 
     97 C          -2.3540  -25.7044  -53.3063 C.2       17 UNK         0.5000 
     98 O          -1.4938  -25.8059  -52.4280 O.2       17 UNK        -0.5000 
     99 N          -2.1849  -25.0458  -54.4613 N.am      18 UNK        -0.5000 
    100 CA        -1.0282  -24.2652  -54.9227 C.3       18 UNK         0.1400 
    101 CB         0.2452  -25.1278  -55.0119 C.3       18 UNK        -0.1800 
    102 C         -0.7762  -22.9735  -54.1194 C.2       18 UNK         0.5000 
    103 O         -0.5986  -21.9152  -54.7206 O.2       18 UNK        -0.5000 
    104 N         -0.7920  -23.0660  -52.7854 N.am      19 UNK        -0.5000 
    105 CA        -0.5541  -21.9688  -51.8456 C.3       19 UNK         0.1400 
    106 CB        -0.4498  -22.5533  -50.4340 C.3       19 UNK        -0.1800 
    107 C         -1.6048  -20.8409  -51.9051 C.2       19 UNK         0.5000 
    108 O         -1.2840  -19.7032  -51.5624 O.2       19 UNK        -0.5000 
    109 N         -2.8190  -21.1602  -52.3771 N.am      20 UNK        -0.5000 
    110 CA        -3.8949  -20.2092  -52.6675 C.3       20 UNK         0.1400 
    111 CB        -5.1724  -20.9845  -53.0222 C.3       20 UNK        -0.1800 
    112 C         -3.5545  -19.1899  -53.7755 C.2       20 UNK         0.5000 
    113 O         -4.1635  -18.1201  -53.8116 O.2       20 UNK        -0.5000 
    114 N         -2.5844  -19.5098  -54.6450 N.am      21 UNK        -0.5000 
    115 CA        -1.9798  -18.5706  -55.5874 C.3       21 UNK         0.1400 
    116 CB        -1.4904  -19.3354  -56.8300 C.3       21 UNK        -0.1800 
    117 C         -0.8500  -17.8173  -54.8612 C.2       21 UNK         0.5000 
    118 O          0.3228  -18.1673  -55.0062 O.2       21 UNK        -0.5000 
    119 N         -1.2500  -16.8448  -54.0337 N.am      22 UNK        -0.5000 
    120 CA        -0.4002  -16.0667  -53.1199 C.3       22 UNK         0.1400 
    121 C          0.7930  -15.3524  -53.8161 C.2       22 UNK         0.5000 
    122 N          1.9735  -15.3643  -53.2116 N.am      22 UNK        -0.7600 
    123 O          0.6431  -14.7444  -54.8738 O.2       22 UNK        -0.5000 
    124 C124       -1.2272  -15.0292  -52.3165 C.3       23 UNK        -0.0398 
    125 S125       -2.7244  -15.7070  -51.5233 S.3       23 UNK        -0.2404 
    126 C126       -2.0466  -16.3943  -49.9854 C.3       23 UNK        -0.0205 
    127 H127       -4.1214  -11.9653  -40.7032 H         1 UNK         0.0600 
    128 H128       -4.8091  -13.2513  -41.6996 H         1 UNK         0.0600 
    129 H129       -5.6990  -11.7438  -41.4678 H         1 UNK         0.0600 
    130 H130       -3.8239  -13.3734  -43.6903 H         1 UNK         0.3000 
    131 H131       -3.4401  -11.0494  -45.3898 H         1 UNK         0.0600 
    132 H132       -2.7522  -12.6905  -47.0997 H         1 UNK         0.0800 
    133 H133       -2.7304  -13.9677  -45.9132 H         1 UNK         0.0800 
    134 H134       -6.1732  -15.3363  -45.9157 H         1 UNK         0.0800 
    135 H135       -4.5936  -15.3337  -45.1806 H         1 UNK         0.0800 
    136 H136       -3.1376  -14.8452  -48.0793 H         1 UNK         0.1150 
    137 H137       -3.4123  -18.7245  -49.8001 H         1 UNK         0.1150 
    138 H138       -5.9769  -17.6638  -46.5262 H         1 UNK         0.1150 
    139 H139       -5.6761  -20.0278  -47.1322 H         1 UNK         0.0800 
    140 H140       -6.4090  -19.6482  -48.6723 H         1 UNK         0.0800 
    141 H141       -3.0352  -20.2887  -47.1808 H         1 UNK         0.0800 
    142 H142       -2.2192  -20.6182  -48.6797 H         1 UNK         0.0800 
    143 H143       -2.5182  -23.1181  -48.2178 H         1 UNK         0.0600 
    144 H144       -0.6374  -21.3329  -47.1285 H         1 UNK         0.3000 
    145 H145        1.6073  -23.7018  -45.6928 H         1 UNK         0.0600 
    146 H146        3.1259  -22.4799  -47.2159 H         1 UNK         0.0600 
    147 H147        2.1010  -23.5716  -48.1369 H         1 UNK         0.0600 
    148 H148        1.7598  -21.8465  -48.1279 H         1 UNK         0.0600 
    149 H149        1.6743  -20.8542  -45.8383 H         1 UNK         0.3000 
    150 H150       -0.0415  -20.2401  -42.7321 H         1 UNK         0.0600 
    151 H151        2.3724  -20.7216  -42.2520 H         1 UNK         0.0600 
    152 H152        2.0558  -18.9969  -42.3573 H         1 UNK         0.0600 
    153 H153        2.8389  -19.8313  -43.6970 H         1 UNK         0.0600 
    154 H154        1.0123  -18.4173  -44.6218 H         1 UNK         0.3000 
    155 H155       -1.9171  -18.1176  -46.6910 H         1 UNK         0.0600 
    156 H156       -2.2770  -16.5591  -44.8464 H         1 UNK         0.0600 
    157 H157       -1.3450  -15.7289  -46.0888 H         1 UNK         0.0600 
    158 H158       -0.5485  -16.3100  -44.6324 H         1 UNK         0.0600 
    159 H159        0.5770  -16.8449  -46.9468 H         1 UNK         0.3000 
    160 H160        2.2710  -19.3463  -48.8786 H         1 UNK         0.0600 
    161 H161        1.1035  -16.5916  -49.5422 H         1 UNK         0.0600 
    162 H162        0.8833  -18.0716  -50.4684 H         1 UNK         0.0600 
    163 H163        2.4785  -17.3450  -50.3510 H         1 UNK         0.0600 
    164 H164        2.9123  -16.7257  -47.7992 H         1 UNK         0.3000 
    165 H165        4.5628  -17.9501  -44.8864 H         1 UNK         0.0600 
    166 H166        6.4363  -16.6636  -45.8718 H         1 UNK         0.0600 
    167 H167        6.2386  -18.1864  -46.7242 H         1 UNK         0.0600 
    168 H168        5.6650  -16.6934  -47.4578 H         1 UNK         0.0600 
    169 H169        4.2145  -15.3218  -45.9766 H         1 UNK         0.3000 
    170 H170        1.1186  -14.5981  -44.3618 H         1 UNK         0.0600 
    171 H171        2.8431  -14.3655  -42.5615 H         1 UNK         0.0600 
    172 H172        3.9570  -13.6452  -43.7183 H         1 UNK         0.0600 
    173 H173        2.4575  -12.8202  -43.2987 H         1 UNK         0.0600 
    174 H174        2.6345  -12.7861  -45.7403 H         1 UNK         0.3000 
    175 H175        2.7360  -12.8777  -48.4796 H         1 UNK         0.0600 
    176 H176       -0.2632  -13.3353  -48.9495 H         1 UNK         0.0600 
    177 H177        0.8001  -12.4254  -50.0228 H         1 UNK         0.0600 
    178 H178        1.0585  -14.1450  -49.7873 H         1 UNK         0.0600 
    179 H179        0.6358  -11.7094  -46.7632 H         1 UNK         0.3000 
    180 H180        2.2276   -8.6141  -46.7576 H         1 UNK         0.0600 
    181 H181       -0.4347   -8.9456  -48.2444 H         1 UNK         0.0600 
    182 H182        0.9811   -8.1025  -48.8607 H         1 UNK         0.0600 
    183 H183        0.1339   -7.4717  -47.4584 H         1 UNK         0.0600 
    184 H184       -0.3757   -9.4030  -45.8332 H         1 UNK         0.3000 
    185 H185        0.5932  -11.2603  -43.0300 H         1 UNK         0.0600 
    186 H186        1.0877   -8.9680  -42.1537 H         1 UNK         0.0600 
    187 H187       -0.3401   -8.3424  -42.9712 H         1 UNK         0.0600 
    188 H188       -0.5080   -9.5155  -41.6649 H         1 UNK         0.0600 
    189 H189       -1.9388  -10.2480  -43.5271 H         1 UNK         0.3000 
    190 H190       -2.2735  -21.7843  -44.9206 H         1 UNK         0.3000 
    191 H191       -4.7256  -22.9786  -43.9695 H         1 UNK         0.0600 
    192 H192       -3.7318  -20.9735  -42.9051 H         1 UNK         0.0600 
    193 H193       -3.8434  -22.2871  -41.7425 H         1 UNK         0.0600 
    194 H194       -2.2900  -21.8851  -42.4651 H         1 UNK         0.0600 
    195 H195       -1.2829  -23.9750  -43.9595 H         1 UNK         0.3000 
    196 H196       -1.6369  -26.2758  -42.2944 H         1 UNK         0.0600 
    197 H197        0.6897  -26.8103  -43.0310 H         1 UNK         0.0600 
    198 H198        0.5393  -25.1335  -42.5277 H         1 UNK         0.0600 
    199 H199        0.6085  -25.5358  -44.2417 H         1 UNK         0.0600 
    200 H200       -1.3692  -25.8975  -45.8574 H         1 UNK         0.3000 
    201 H201       -1.9069  -28.7352  -46.3901 H         1 UNK         0.0600 
    202 H202       -0.3065  -27.3280  -47.7737 H         1 UNK         0.0600 
    203 H203       -1.6641  -26.3309  -48.2895 H         1 UNK         0.0600 
    204 H204       -1.5917  -28.0289  -48.7398 H         1 UNK         0.0600 
    205 H205       -3.5969  -29.0259  -48.2801 H         1 UNK         0.3000 
    206 H206       -6.2368  -28.0619  -47.4138 H         1 UNK         0.0600 
    207 H207       -5.8847  -30.4577  -47.9959 H         1 UNK         0.0600 
    208 H208       -7.0502  -29.7081  -49.0722 H         1 UNK         0.0600 
    209 H209       -5.4077  -30.0044  -49.6321 H         1 UNK         0.0600 
    210 H210       -4.7699  -25.9238  -48.1433 H         1 UNK         0.3000 
    211 H211       -4.6335  -24.0571  -49.2509 H         1 UNK         0.0600 
    212 H212       -7.2464  -24.8731  -50.6221 H         1 UNK         0.0600 
    213 H213       -6.5961  -23.2426  -50.5245 H         1 UNK         0.0600 
    214 H214       -7.1035  -24.0652  -49.0595 H         1 UNK         0.0600 
    215 H215       -4.7925  -26.8155  -51.3241 H         1 UNK         0.3000 
    216 H216       -4.4251  -25.9439  -53.8491 H         1 UNK         0.0600 
    217 H217       -3.2535  -28.1291  -54.2433 H         1 UNK         0.0600 
    218 H218       -4.6537  -28.3198  -53.1990 H         1 UNK         0.0600 
    219 H219       -3.0313  -28.3220  -52.5079 H         1 UNK         0.0600 
    220 H220       -2.9745  -25.0178  -55.0915 H         1 UNK         0.3000 
    221 H221       -1.2757  -23.9528  -55.9386 H         1 UNK         0.0600 
    222 H222        0.5866  -25.4603  -54.0314 H         1 UNK         0.0600 
    223 H223        0.0799  -26.0120  -55.6273 H         1 UNK         0.0600 
    224 H224        1.0624  -24.5648  -55.4644 H         1 UNK         0.0600 
    225 H225       -0.9785  -23.9829  -52.3878 H         1 UNK         0.3000 
    226 H226        0.4088  -21.5205  -52.0987 H         1 UNK         0.0600 
    227 H227        0.3789  -23.2568  -50.3551 H         1 UNK         0.0600 
    228 H228       -0.2777  -21.7658  -49.7015 H         1 UNK         0.0600 
    229 H229       -1.3633  -23.0801  -50.1605 H         1 UNK         0.0600 
    230 H230       -3.0323  -22.1399  -52.5279 H         1 UNK         0.3000 
    231 H231       -4.0900  -19.6385  -51.7593 H         1 UNK         0.0600 
    232 H232       -5.0162  -21.6509  -53.8713 H         1 UNK         0.0600 
    233 H233       -5.9868  -20.3059  -53.2790 H         1 UNK         0.0600 
    234 H234       -5.5112  -21.5859  -52.1788 H         1 UNK         0.0600 
    235 H235       -2.0904  -20.3865  -54.5225 H         1 UNK         0.3000 
    236 H236       -2.7219  -17.8421  -55.9213 H         1 UNK         0.0600 
    237 H237       -2.3122  -19.8591  -57.3184 H         1 UNK         0.0600 
    238 H238       -1.0606  -18.6496  -57.5608 H         1 UNK         0.0600 
    239 H239       -0.7249  -20.0713  -56.5845 H         1 UNK         0.0600 
    240 H240       -2.2436  -16.6795  -53.9413 H         1 UNK         0.3000 
    241 H241        0.0092  -16.7877  -52.4105 H         1 UNK         0.0600 
    242 H242        2.7478  -14.8891  -53.6490 H         1 UNK         0.3800 
    243 H243        2.1235  -15.8558  -52.3456 H         1 UNK         0.3800 
    244 H244       -0.6089  -14.5552  -51.5535 H         1 UNK         0.0800 
    245 H245       -1.5555  -14.2229  -52.9752 H         1 UNK         0.0800 
    246 H246       -1.4537  -17.2805  -50.2155 H         1 UNK         0.0800 
    247 H247       -1.3694  -15.6774  -49.5183 H         1 UNK         0.0800 
@<TRIPOS>BOND
     1    1    2 1    
     2    1  127 1    
     3    1  128 1    
     4    1  129 1    
     5    2    3 2    
     6    2    4 am   BACKBONE|DICT|INTERRES
     7    4    5 1    
     8    4  130 1    
     9    5    6 1    
    10    5   65 1    
    11    5  131 1    
    12    6    7 1    
    13    6  132 1    
    14    6  133 1    
    15    7    8 1    
    16    8    9 1    
    17    8  134 1    
    18    8  135 1    
    19    9   10 ar   
    20    9   14 ar   
    21   10   11 ar   
    22   10  136 1    
    23   11   12 ar   
    24   11  126 1    
    25   12   13 ar   
    26   12  137 1    
    27   13   14 ar   
    28   13   15 1    
    29   14  138 1    
    30   15   16 1    
    31   15  139 1    
    32   15  140 1    
    33   16   17 1    
    34   17   18 1    
    35   17  141 1    
    36   17  142 1    
    37   18   19 1    
    38   18   67 1    
    39   18  143 1    
    40   19   20 am   BACKBONE|DICT|INTERRES
    41   19  144 1    
    42   20   21 2    
    43   20   22 1    
    44   22   23 1    
    45   22   24 1    
    46   22  145 1    
    47   23  146 1    
    48   23  147 1    
    49   23  148 1    
    50   24   25 am   BACKBONE|DICT|INTERRES
    51   24  149 1    
    52   25   26 2    
    53   25   27 1    
    54   27   28 1    
    55   27   29 1    
    56   27  150 1    
    57   28  151 1    
    58   28  152 1    
    59   28  153 1    
    60   29   30 am   BACKBONE|DICT|INTERRES
    61   29  154 1    
    62   30   31 2    
    63   30   32 1    
    64   32   33 1    
    65   32   34 1    
    66   32  155 1    
    67   33  156 1    
    68   33  157 1    
    69   33  158 1    
    70   34   35 am   BACKBONE|DICT|INTERRES
    71   34  159 1    
    72   35   36 2    
    73   35   37 1    
    74   37   38 1    
    75   37   39 1    
    76   37  160 1    
    77   38  161 1    
    78   38  162 1    
    79   38  163 1    
    80   39   40 am   BACKBONE|DICT|INTERRES
    81   39  164 1    
    82   40   41 2    
    83   40   42 1    
    84   42   43 1    
    85   42   44 1    
    86   42  165 1    
    87   43  166 1    
    88   43  167 1    
    89   43  168 1    
    90   44   45 am   BACKBONE|DICT|INTERRES
    91   44  169 1    
    92   45   46 2    
    93   45   47 1    
    94   47   48 1    
    95   47   49 1    
    96   47  170 1    
    97   48  171 1    
    98   48  172 1    
    99   48  173 1    
   100   49   50 am   BACKBONE|DICT|INTERRES
   101   49  174 1    
   102   50   51 2    
   103   50   52 1    
   104   52   53 1    
   105   52   54 1    
   106   52  175 1    
   107   53  176 1    
   108   53  177 1    
   109   53  178 1    
   110   54   55 am   BACKBONE|DICT|INTERRES
   111   54  179 1    
   112   55   56 2    
   113   55   57 1    
   114   57   58 1    
   115   57   59 1    
   116   57  180 1    
   117   58  181 1    
   118   58  182 1    
   119   58  183 1    
   120   59   60 am   BACKBONE|DICT|INTERRES
   121   59  184 1    
   122   60   61 2    
   123   60   62 1    
   124   62   63 1    
   125   62   64 1    
   126   62  185 1    
   127   63  186 1    
   128   63  187 1    
   129   63  188 1    
   130   64   65 am   BACKBONE|DICT|INTERRES
   131   64  189 1    
   132   65   66 2    
   133   67   68 2    
   134   67   69 am   BACKBONE|DICT|INTERRES
   135   69   70 1    
   136   69  190 1    
   137   70   71 1    
   138   70   72 1    
   139   70  191 1    
   140   71  192 1    
   141   71  193 1    
   142   71  194 1    
   143   72   73 2    
   144   72   74 am   BACKBONE|DICT|INTERRES
   145   74   75 1    
   146   74  195 1    
   147   75   76 1    
   148   75   77 1    
   149   75  196 1    
   150   76  197 1    
   151   76  198 1    
   152   76  199 1    
   153   77   78 2    
   154   77   79 am   BACKBONE|DICT|INTERRES
   155   79   80 1    
   156   79  200 1    
   157   80   81 1    
   158   80   82 1    
   159   80  201 1    
   160   81  202 1    
   161   81  203 1    
   162   81  204 1    
   163   82   83 2    
   164   82   84 am   BACKBONE|DICT|INTERRES
   165   84   85 1    
   166   84  205 1    
   167   85   86 1    
   168   85   87 1    
   169   85  206 1    
   170   86  207 1    
   171   86  208 1    
   172   86  209 1    
   173   87   88 2    
   174   87   89 am   BACKBONE|DICT|INTERRES
   175   89   90 1    
   176   89  210 1    
   177   90   91 1    
   178   90   92 1    
   179   90  211 1    
   180   91  212 1    
   181   91  213 1    
   182   91  214 1    
   183   92   93 2    
   184   92   94 am   BACKBONE|DICT|INTERRES
   185   94   95 1    
   186   94  215 1    
   187   95   96 1    
   188   95   97 1    
   189   95  216 1    
   190   96  217 1    
   191   96  218 1    
   192   96  219 1    
   193   97   98 2    
   194   97   99 am   BACKBONE|DICT|INTERRES
   195   99  100 1    
   196   99  220 1    
   197  100  101 1    
   198  100  102 1    
   199  100  221 1    
   200  101  222 1    
   201  101  223 1    
   202  101  224 1    
   203  102  103 2    
   204  102  104 am   BACKBONE|DICT|INTERRES
   205  104  105 1    
   206  104  225 1    
   207  105  106 1    
   208  105  107 1    
   209  105  226 1    
   210  106  227 1    
   211  106  228 1    
   212  106  229 1    
   213  107  108 2    
   214  107  109 am   BACKBONE|DICT|INTERRES
   215  109  110 1    
   216  109  230 1    
   217  110  111 1    
   218  110  112 1    
   219  110  231 1    
   220  111  232 1    
   221  111  233 1    
   222  111  234 1    
   223  112  113 2    
   224  112  114 am   BACKBONE|DICT|INTERRES
   225  114  115 1    
   226  114  235 1    
   227  115  116 1    
   228  115  117 1    
   229  115  236 1    
   230  116  237 1    
   231  116  238 1    
   232  116  239 1    
   233  117  118 2    
   234  117  119 am   BACKBONE|DICT|INTERRES
   235  119  120 1    
   236  119  240 1    
   237  120  121 1    
   238  120  124 1    
   239  120  241 1    
   240  121  122 am   BACKBONE|DICT|INTERRES
   241  121  123 2    
   242  122  242 1    
   243  122  243 1    
   244  124  125 1    
   245  124  244 1    
   246  124  245 1    
   247  125  126 1    
   248  126  246 1    
   249  126  247 1    
@<TRIPOS>SUBSTRUCTURE
     1 UNK         1 GROUP             0       ****    0 ROOT    
