@<TRIPOS>MOLECULE
3R540
247   249    1
SMALL
USER_CHARGES


@<TRIPOS>ATOM
      1 CA          4.8921  -14.4650  -44.6923 C.3       0 UNK        -0.1800 
      2 C           3.9042  -14.6696  -45.8301 C.2       0 UNK         0.5000 
      3 O           2.8239  -14.0779  -45.8164 O.2       0 UNK        -0.5000 
      4 N           4.2640  -15.5052  -46.8126 N.am      1 UNK        -0.5000 
      5 CA          3.4335  -15.8467  -47.9772 C.3       1 UNK         0.1400 
      6 C6          3.8602  -17.1783  -48.6357 C.3       23 UNK        -0.0398 
      7 S7          3.5525  -18.5761  -47.5053 S.3       23 UNK        -0.2404 
      8 C8          2.9393  -19.8678  -48.6359 C.3       23 UNK        -0.0205 
      9 C9          1.6145  -19.5387  -49.3178 C.ar      23 UNK        -0.0193 
     10 C10         1.4744  -19.7668  -50.6900 C.ar      23 UNK        -0.1150 
     11 C11         0.2472  -19.5649  -51.3256 C.ar      23 UNK        -0.0193 
     12 C12        -0.8464  -19.1239  -50.5778 C.ar      23 UNK        -0.1150 
     13 C13        -0.7229  -18.8750  -49.2102 C.ar      23 UNK        -0.0193 
     14 C14         0.5130  -19.0810  -48.5854 C.ar      23 UNK        -0.1150 
     15 C15        -1.9393  -18.4013  -48.4256 C.3       23 UNK        -0.0205 
     16 S16        -2.8672  -19.7816  -47.6939 S.3       23 UNK        -0.2404 
     17 C17        -1.7933  -20.2507  -46.2946 C.3       23 UNK        -0.0398 
     18 CA         -0.9295  -21.4975  -46.5996 C.3       11 UNK         0.1400 
     19 N           0.2586  -21.5624  -45.7371 N.am      11 UNK        -0.5000 
     20 C           1.2199  -22.4961  -45.8089 C.2       10 UNK         0.5000 
     21 O           1.2301  -23.4016  -46.6403 O.2       10 UNK        -0.5000 
     22 CA          2.3116  -22.4609  -44.7291 C.3       10 UNK         0.1400 
     23 CB          3.3973  -21.4309  -45.0683 C.3       10 UNK        -0.1800 
     24 N           1.7329  -22.1743  -43.4175 N.am      10 UNK        -0.5000 
     25 C           1.0893  -23.0858  -42.6728 C.2       9 UNK         0.5000 
     26 O           1.0133  -24.2776  -42.9708 O.2       9 UNK        -0.5000 
     27 CA          0.3913  -22.5842  -41.3933 C.3       9 UNK         0.1400 
     28 CB          1.3309  -22.7079  -40.1847 C.3       9 UNK        -0.1800 
     29 N          -0.0783  -21.2013  -41.4951 N.am      9 UNK        -0.5000 
     30 C          -1.0560  -20.7826  -42.3112 C.2       8 UNK         0.5000 
     31 O          -1.6988  -21.5309  -43.0472 O.2       8 UNK        -0.5000 
     32 CA         -1.3095  -19.2622  -42.3577 C.3       8 UNK         0.1400 
     33 CB         -2.3345  -18.8496  -41.2921 C.3       8 UNK        -0.1800 
     34 N          -0.0885  -18.4658  -42.1919 N.am      8 UNK        -0.5000 
     35 C           0.9664  -18.5118  -43.0151 C.2       7 UNK         0.5000 
     36 O           1.0016  -19.2223  -44.0222 O.2       7 UNK        -0.5000 
     37 CA          2.1629  -17.6136  -42.6462 C.3       7 UNK         0.1400 
     38 CB          3.4245  -17.9501  -43.4599 C.3       7 UNK        -0.1800 
     39 N           1.8303  -16.2109  -42.8668 N.am      7 UNK        -0.5000 
     40 C           1.1607  -15.4138  -42.0222 C.2       6 UNK         0.5000 
     41 O           0.7934  -15.7617  -40.8997 O.2       6 UNK        -0.5000 
     42 CA          0.8086  -14.0088  -42.5518 C.3       6 UNK         0.1400 
     43 CB          1.9251  -13.0048  -42.2291 C.3       6 UNK        -0.1800 
     44 N           0.5951  -14.0437  -43.9991 N.am      6 UNK        -0.5000 
     45 C          -0.5120  -14.5270  -44.5721 C.2       5 UNK         0.5000 
     46 O          -1.5616  -14.7678  -43.9709 O.2       5 UNK        -0.5000 
     47 CA         -0.3862  -14.8824  -46.0539 C.3       5 UNK         0.1400 
     48 CB          0.1456  -16.3179  -46.1875 C.3       5 UNK        -0.1800 
     49 N          -1.6993  -14.7655  -46.6805 N.am      5 UNK        -0.5000 
     50 C          -2.0210  -14.5476  -47.9646 C.2       4 UNK         0.5000 
     51 O          -3.2016  -14.4817  -48.3054 O.2       4 UNK        -0.5000 
     52 CA         -0.9120  -14.3709  -49.0379 C.3       4 UNK         0.1400 
     53 CB         -1.4758  -14.2181  -50.4633 C.3       4 UNK        -0.1800 
     54 N           0.0277  -13.2777  -48.7693 N.am      4 UNK        -0.5000 
     55 C          -0.2396  -12.0113  -48.4126 C.2       3 UNK         0.5000 
     56 O          -1.3729  -11.5342  -48.3576 O.2       3 UNK        -0.5000 
     57 CA          0.9629  -11.1320  -48.0060 C.3       3 UNK         0.1400 
     58 CB          0.9369  -10.8605  -46.4923 C.3       3 UNK        -0.1800 
     59 N           2.2538  -11.7383  -48.3396 N.am      3 UNK        -0.5000 
     60 C           2.8567  -11.6444  -49.5334 C.2       2 UNK         0.5000 
     61 O           2.4231  -10.9693  -50.4672 O.2       2 UNK        -0.5000 
     62 CA          4.1481  -12.4681  -49.7260 C.3       2 UNK         0.1400 
     63 CB          5.3842  -11.6117  -49.4128 C.3       2 UNK        -0.1800 
     64 N           4.1913  -13.6861  -48.9098 N.am      2 UNK        -0.5000 
     65 C           3.3288  -14.7083  -49.0106 C.2       1 UNK         0.5000 
     66 O           2.4268  -14.7482  -49.8463 O.2       1 UNK        -0.5000 
     67 C          -1.7744  -22.7869  -46.5493 C.2       11 UNK         0.5000 
     68 O          -2.2350  -23.2564  -47.5915 O.2       11 UNK        -0.5000 
     69 N          -1.9037  -23.3674  -45.3487 N.am      12 UNK        -0.5000 
     70 CA         -2.5648  -24.6460  -45.0835 C.3       12 UNK         0.1400 
     71 CB         -2.6193  -24.8716  -43.5656 C.3       12 UNK        -0.1800 
     72 C          -1.9293  -25.8597  -45.7937 C.2       12 UNK         0.5000 
     73 O          -2.6076  -26.8752  -45.9473 O.2       12 UNK        -0.5000 
     74 N          -0.6667  -25.7411  -46.2245 N.am      13 UNK        -0.5000 
     75 CA          0.0348  -26.7420  -47.0246 C.3       13 UNK         0.1400 
     76 CB          1.4454  -26.9502  -46.4500 C.3       13 UNK        -0.1800 
     77 C           0.1058  -26.3158  -48.5010 C.2       13 UNK         0.5000 
     78 O          -0.1814  -27.1276  -49.3806 O.2       13 UNK        -0.5000 
     79 N           0.4963  -25.0580  -48.7476 N.am      14 UNK        -0.5000 
     80 CA          0.7893  -24.5125  -50.0731 C.3       14 UNK         0.1400 
     81 CB          1.5463  -23.1864  -49.9095 C.3       14 UNK        -0.1800 
     82 C          -0.4485  -24.3091  -50.9627 C.2       14 UNK         0.5000 
     83 O          -0.3572  -24.5225  -52.1724 O.2       14 UNK        -0.5000 
     84 N          -1.5687  -23.8929  -50.3607 N.am      15 UNK        -0.5000 
     85 CA         -2.8167  -23.5729  -51.0578 C.3       15 UNK         0.1400 
     86 CB         -2.9661  -22.0423  -51.1262 C.3       15 UNK        -0.1800 
     87 C          -4.0351  -24.2293  -50.3870 C.2       15 UNK         0.5000 
     88 O          -5.1660  -23.8663  -50.7088 O.2       15 UNK        -0.5000 
     89 N          -3.7979  -25.1470  -49.4355 N.am      16 UNK        -0.5000 
     90 CA         -4.7917  -25.8333  -48.5959 C.3       16 UNK         0.1400 
     91 CB         -5.6412  -26.7964  -49.4509 C.3       16 UNK        -0.1800 
     92 C          -5.6654  -24.8745  -47.7512 C.2       16 UNK         0.5000 
     93 O          -6.7640  -25.2511  -47.3406 O.2       16 UNK        -0.5000 
     94 N          -5.1727  -23.6431  -47.5390 N.am      17 UNK        -0.5000 
     95 CA         -5.8645  -22.4814  -46.9691 C.3       17 UNK         0.1400 
     96 CB         -6.1109  -22.6775  -45.4589 C.3       17 UNK        -0.1800 
     97 C          -7.1408  -22.0694  -47.7443 C.2       17 UNK         0.5000 
     98 O          -8.0391  -21.4579  -47.1620 O.2       17 UNK        -0.5000 
     99 N          -7.2093  -22.4114  -49.0392 N.am      18 UNK        -0.5000 
    100 CA        -8.3246  -22.0974  -49.9301 C.3       18 UNK         0.1400 
    101 CB        -8.3027  -23.0843  -51.1103 C.3       18 UNK        -0.1800 
    102 C         -8.2668  -20.6454  -50.4400 C.2       18 UNK         0.5000 
    103 O         -7.2534  -19.9607  -50.2791 O.2       18 UNK        -0.5000 
    104 N         -9.3563  -20.2171  -51.0928 N.am      19 UNK        -0.5000 
    105 CA        -9.4899  -18.9056  -51.7358 C.3       19 UNK         0.1400 
    106 CB       -10.9557  -18.6969  -52.1461 C.3       19 UNK        -0.1800 
    107 C         -8.5577  -18.7131  -52.9501 C.2       19 UNK         0.5000 
    108 O         -8.2312  -17.5745  -53.2884 O.2       19 UNK        -0.5000 
    109 N         -8.1156  -19.8198  -53.5649 N.am      20 UNK        -0.5000 
    110 CA        -7.1301  -19.8729  -54.6481 C.3       20 UNK         0.1400 
    111 CB        -7.3123  -21.1980  -55.4105 C.3       20 UNK        -0.1800 
    112 C         -5.6892  -19.6812  -54.1210 C.2       20 UNK         0.5000 
    113 O         -4.8237  -20.5318  -54.3364 O.2       20 UNK        -0.5000 
    114 N         -5.4729  -18.5736  -53.4053 N.am      21 UNK        -0.5000 
    115 CA        -4.2073  -18.1859  -52.7933 C.3       21 UNK         0.1400 
    116 CB        -4.5122  -17.2157  -51.6390 C.3       21 UNK        -0.1800 
    117 C         -3.2328  -17.5558  -53.8085 C.2       21 UNK         0.5000 
    118 O         -3.6061  -17.2671  -54.9480 O.2       21 UNK        -0.5000 
    119 N         -1.9968  -17.3306  -53.3501 N.am      22 UNK        -0.5000 
    120 CA        -0.8896  -16.7211  -54.1053 C.3       22 UNK         0.1400 
    121 C         -1.0200  -15.1830  -54.3362 C.2       22 UNK         0.5000 
    122 N         -2.0369  -14.5048  -53.8190 N.am      22 UNK        -0.7600 
    123 O         -0.1852  -14.5922  -55.0159 O.2       22 UNK        -0.5000 
    124 C124        0.4736  -17.0873  -53.4547 C.3       23 UNK        -0.0398 
    125 S125        1.0535  -18.7660  -53.8867 S.3       23 UNK        -0.2404 
    126 C126        0.0876  -19.8734  -52.8071 C.3       23 UNK        -0.0205 
    127 H127        4.4775  -14.8489  -43.7608 H         1 UNK         0.0600 
    128 H128        5.0987  -13.4028  -44.5628 H         1 UNK         0.0600 
    129 H129        5.8369  -14.9755  -44.8799 H         1 UNK         0.0600 
    130 H130        5.1552  -15.9780  -46.7596 H         1 UNK         0.3000 
    131 H131        2.4159  -15.9831  -47.6192 H         1 UNK         0.0600 
    132 H132        3.3062  -17.3469  -49.5611 H         1 UNK         0.0800 
    133 H133        4.9165  -17.1613  -48.9079 H         1 UNK         0.0800 
    134 H134        3.7144  -20.0738  -49.3755 H         1 UNK         0.0800 
    135 H135        2.8063  -20.7898  -48.0695 H         1 UNK         0.0800 
    136 H136        2.3136  -20.1317  -51.2653 H         1 UNK         0.1150 
    137 H137       -1.8081  -18.9999  -51.0495 H         1 UNK         0.1150 
    138 H138        0.6161  -18.9189  -47.5224 H         1 UNK         0.1150 
    139 H139       -1.6595  -17.7002  -47.6453 H         1 UNK         0.0800 
    140 H140       -2.6112  -17.8494  -49.0834 H         1 UNK         0.0800 
    141 H141       -2.4205  -20.4109  -45.4162 H         1 UNK         0.0800 
    142 H142       -1.1575  -19.4025  -46.0414 H         1 UNK         0.0800 
    143 H143       -0.5529  -21.4175  -47.6205 H         1 UNK         0.0600 
    144 H144        0.3583  -20.8302  -45.0415 H         1 UNK         0.3000 
    145 H145        2.7863  -23.4442  -44.6979 H         1 UNK         0.0600 
    146 H146        4.1595  -21.3879  -44.2905 H         1 UNK         0.0600 
    147 H147        3.8997  -21.6913  -46.0004 H         1 UNK         0.0600 
    148 H148        2.9848  -20.4306  -45.1914 H         1 UNK         0.0600 
    149 H149        1.7081  -21.2044  -43.1368 H         1 UNK         0.3000 
    150 H150       -0.4770  -23.2236  -41.2198 H         1 UNK         0.0600 
    151 H151        1.6800  -23.7345  -40.0652 H         1 UNK         0.0600 
    152 H152        0.8241  -22.4293  -39.2605 H         1 UNK         0.0600 
    153 H153        2.2109  -22.0722  -40.2912 H         1 UNK         0.0600 
    154 H154        0.3954  -20.5169  -40.9244 H         1 UNK         0.3000 
    155 H155       -1.7262  -19.0281  -43.3394 H         1 UNK         0.0600 
    156 H156       -3.2630  -19.4110  -41.4052 H         1 UNK         0.0600 
    157 H157       -2.5836  -17.7914  -41.3747 H         1 UNK         0.0600 
    158 H158       -1.9618  -19.0295  -40.2829 H         1 UNK         0.0600 
    159 H159       -0.0605  -17.8225  -41.4106 H         1 UNK         0.3000 
    160 H160        2.3915  -17.7730  -41.5904 H         1 UNK         0.0600 
    161 H161        3.7236  -18.9867  -43.3033 H         1 UNK         0.0600 
    162 H162        4.2656  -17.3252  -43.1602 H         1 UNK         0.0600 
    163 H163        3.2675  -17.8088  -44.5299 H         1 UNK         0.0600 
    164 H164        2.0560  -15.8439  -43.7778 H         1 UNK         0.3000 
    165 H165       -0.1071  -13.6771  -42.0576 H         1 UNK         0.0600 
    166 H166        1.6609  -12.0025  -42.5668 H         1 UNK         0.0600 
    167 H167        2.1017  -12.9502  -41.1542 H         1 UNK         0.0600 
    168 H168        2.8673  -13.2790  -42.7041 H         1 UNK         0.0600 
    169 H169        1.4106  -13.8759  -44.5840 H         1 UNK         0.3000 
    170 H170        0.3236  -14.1885  -46.4930 H         1 UNK         0.0600 
    171 H171        1.1171  -16.4292  -45.7062 H         1 UNK         0.0600 
    172 H172       -0.5244  -17.0390  -45.7181 H         1 UNK         0.0600 
    173 H173        0.2743  -16.5969  -47.2297 H         1 UNK         0.0600 
    174 H174       -2.4499  -14.8258  -46.0045 H         1 UNK         0.3000 
    175 H175       -0.3259  -15.2898  -49.0302 H         1 UNK         0.0600 
    176 H176       -2.0687  -13.3089  -50.5682 H         1 UNK         0.0600 
    177 H177       -0.6718  -14.1799  -51.1986 H         1 UNK         0.0600 
    178 H178       -2.1137  -15.0617  -50.7260 H         1 UNK         0.0600 
    179 H179        1.0019  -13.5361  -48.8606 H         1 UNK         0.3000 
    180 H180        0.8638  -10.1768  -48.5258 H         1 UNK         0.0600 
    181 H181        1.7429  -10.1873  -46.1997 H         1 UNK         0.0600 
    182 H182        1.0435  -11.7790  -45.9148 H         1 UNK         0.0600 
    183 H183       -0.0009  -10.3909  -46.1925 H         1 UNK         0.0600 
    184 H184        2.6819  -12.3102  -47.6239 H         1 UNK         0.3000 
    185 H185        4.1934  -12.7667  -50.7754 H         1 UNK         0.0600 
    186 H186        5.3970  -10.7067  -50.0218 H         1 UNK         0.0600 
    187 H187        5.4062  -11.3038  -48.3666 H         1 UNK         0.0600 
    188 H188        6.3053  -12.1557  -49.6231 H         1 UNK         0.0600 
    189 H189        4.8993  -13.7271  -48.1912 H         1 UNK         0.3000 
    190 H190       -1.5474  -22.8711  -44.5379 H         1 UNK         0.3000 
    191 H191       -3.5892  -24.5694  -45.4474 H         1 UNK         0.0600 
    192 H192       -1.6206  -24.9481  -43.1354 H         1 UNK         0.0600 
    193 H193       -3.1521  -25.7923  -43.3248 H         1 UNK         0.0600 
    194 H194       -3.1393  -24.0553  -43.0636 H         1 UNK         0.0600 
    195 H195       -0.1809  -24.8655  -46.0745 H         1 UNK         0.3000 
    196 H196       -0.4846  -27.7015  -46.9805 H         1 UNK         0.0600 
    197 H197        1.9958  -27.6946  -47.0267 H         1 UNK         0.0600 
    198 H198        1.3999  -27.3048  -45.4202 H         1 UNK         0.0600 
    199 H199        2.0301  -26.0297  -46.4584 H         1 UNK         0.0600 
    200 H200        0.7333  -24.4558  -47.9610 H         1 UNK         0.3000 
    201 H201        1.4496  -25.2161  -50.5845 H         1 UNK         0.0600 
    202 H202        2.4711  -23.3236  -49.3490 H         1 UNK         0.0600 
    203 H203        0.9433  -22.4460  -49.3828 H         1 UNK         0.0600 
    204 H204        1.8125  -22.7646  -50.8795 H         1 UNK         0.0600 
    205 H205       -1.5660  -23.7230  -49.3585 H         1 UNK         0.3000 
    206 H206       -2.7962  -23.9594  -52.0784 H         1 UNK         0.0600 
    207 H207       -2.1241  -21.5935  -51.6512 H         1 UNK         0.0600 
    208 H208       -3.8707  -21.7519  -51.6624 H         1 UNK         0.0600 
    209 H209       -3.0150  -21.6007  -50.1306 H         1 UNK         0.0600 
    210 H210       -2.8323  -25.3654  -49.2367 H         1 UNK         0.3000 
    211 H211       -4.2301  -26.4392  -47.8872 H         1 UNK         0.0600 
    212 H212       -6.2956  -26.2585  -50.1377 H         1 UNK         0.0600 
    213 H213       -6.2735  -27.4249  -48.8229 H         1 UNK         0.0600 
    214 H214       -5.0100  -27.4616  -50.0401 H         1 UNK         0.0600 
    215 H215       -4.2335  -23.4602  -47.8777 H         1 UNK         0.3000 
    216 H216       -5.1758  -21.6434  -47.0779 H         1 UNK         0.0600 
    217 H217       -6.5367  -21.7796  -45.0099 H         1 UNK         0.0600 
    218 H218       -5.1807  -22.8838  -44.9306 H         1 UNK         0.0600 
    219 H219       -6.8003  -23.4990  -45.2638 H         1 UNK         0.0600 
    220 H220       -6.4229  -22.8899  -49.4668 H         1 UNK         0.3000 
    221 H221       -9.2592  -22.2332  -49.3819 H         1 UNK         0.0600 
    222 H222       -7.4395  -22.9196  -51.7566 H         1 UNK         0.0600 
    223 H223       -8.2653  -24.1167  -50.7615 H         1 UNK         0.0600 
    224 H224       -9.1963  -22.9855  -51.7272 H         1 UNK         0.0600 
    225 H225      -10.1482  -20.8379  -51.1802 H         1 UNK         0.3000 
    226 H226       -9.2282  -18.1419  -51.0005 H         1 UNK         0.0600 
    227 H227      -11.6191  -18.7498  -51.2826 H         1 UNK         0.0600 
    228 H228      -11.0978  -17.7164  -52.6028 H         1 UNK         0.0600 
    229 H229      -11.2822  -19.4458  -52.8687 H         1 UNK         0.0600 
    230 H230       -8.4170  -20.7093  -53.1972 H         1 UNK         0.3000 
    231 H231       -7.3295  -19.0571  -55.3460 H         1 UNK         0.0600 
    232 H232       -6.6244  -21.2619  -56.2546 H         1 UNK         0.0600 
    233 H233       -8.3225  -21.2871  -55.8103 H         1 UNK         0.0600 
    234 H234       -7.1278  -22.0605  -54.7686 H         1 UNK         0.0600 
    235 H235       -6.2487  -17.9298  -53.2962 H         1 UNK         0.3000 
    236 H236       -3.7374  -19.0812  -52.3815 H         1 UNK         0.0600 
    237 H237       -4.9842  -16.2998  -51.9970 H         1 UNK         0.0600 
    238 H238       -5.1829  -17.6735  -50.9108 H         1 UNK         0.0600 
    239 H239       -3.6073  -16.9315  -51.1031 H         1 UNK         0.0600 
    240 H240       -1.7802  -17.5660  -52.3949 H         1 UNK         0.3000 
    241 H241       -0.9071  -17.1500  -55.1091 H         1 UNK         0.0600 
    242 H242       -2.1056  -13.5142  -53.9903 H         1 UNK         0.3800 
    243 H243       -2.7522  -14.9727  -53.2892 H         1 UNK         0.3800 
    244 H244        0.4432  -16.9628  -52.3711 H         1 UNK         0.0800 
    245 H245        1.2619  -16.4144  -53.7968 H         1 UNK         0.0800 
    246 H246        0.4142  -20.8992  -52.9841 H         1 UNK         0.0800 
    247 H247       -0.9604  -19.8440  -53.1059 H         1 UNK         0.0800 
@<TRIPOS>BOND
     1    1    2 1    
     2    1  127 1    
     3    1  128 1    
     4    1  129 1    
     5    2    3 2    
     6    2    4 am   BACKBONE|DICT|INTERRES
     7    4    5 1    
     8    4  130 1    
     9    5    6 1    
    10    5   65 1    
    11    5  131 1    
    12    6    7 1    
    13    6  132 1    
    14    6  133 1    
    15    7    8 1    
    16    8    9 1    
    17    8  134 1    
    18    8  135 1    
    19    9   10 ar   
    20    9   14 ar   
    21   10   11 ar   
    22   10  136 1    
    23   11   12 ar   
    24   11  126 1    
    25   12   13 ar   
    26   12  137 1    
    27   13   14 ar   
    28   13   15 1    
    29   14  138 1    
    30   15   16 1    
    31   15  139 1    
    32   15  140 1    
    33   16   17 1    
    34   17   18 1    
    35   17  141 1    
    36   17  142 1    
    37   18   19 1    
    38   18   67 1    
    39   18  143 1    
    40   19   20 am   BACKBONE|DICT|INTERRES
    41   19  144 1    
    42   20   21 2    
    43   20   22 1    
    44   22   23 1    
    45   22   24 1    
    46   22  145 1    
    47   23  146 1    
    48   23  147 1    
    49   23  148 1    
    50   24   25 am   BACKBONE|DICT|INTERRES
    51   24  149 1    
    52   25   26 2    
    53   25   27 1    
    54   27   28 1    
    55   27   29 1    
    56   27  150 1    
    57   28  151 1    
    58   28  152 1    
    59   28  153 1    
    60   29   30 am   BACKBONE|DICT|INTERRES
    61   29  154 1    
    62   30   31 2    
    63   30   32 1    
    64   32   33 1    
    65   32   34 1    
    66   32  155 1    
    67   33  156 1    
    68   33  157 1    
    69   33  158 1    
    70   34   35 am   BACKBONE|DICT|INTERRES
    71   34  159 1    
    72   35   36 2    
    73   35   37 1    
    74   37   38 1    
    75   37   39 1    
    76   37  160 1    
    77   38  161 1    
    78   38  162 1    
    79   38  163 1    
    80   39   40 am   BACKBONE|DICT|INTERRES
    81   39  164 1    
    82   40   41 2    
    83   40   42 1    
    84   42   43 1    
    85   42   44 1    
    86   42  165 1    
    87   43  166 1    
    88   43  167 1    
    89   43  168 1    
    90   44   45 am   BACKBONE|DICT|INTERRES
    91   44  169 1    
    92   45   46 2    
    93   45   47 1    
    94   47   48 1    
    95   47   49 1    
    96   47  170 1    
    97   48  171 1    
    98   48  172 1    
    99   48  173 1    
   100   49   50 am   BACKBONE|DICT|INTERRES
   101   49  174 1    
   102   50   51 2    
   103   50   52 1    
   104   52   53 1    
   105   52   54 1    
   106   52  175 1    
   107   53  176 1    
   108   53  177 1    
   109   53  178 1    
   110   54   55 am   BACKBONE|DICT|INTERRES
   111   54  179 1    
   112   55   56 2    
   113   55   57 1    
   114   57   58 1    
   115   57   59 1    
   116   57  180 1    
   117   58  181 1    
   118   58  182 1    
   119   58  183 1    
   120   59   60 am   BACKBONE|DICT|INTERRES
   121   59  184 1    
   122   60   61 2    
   123   60   62 1    
   124   62   63 1    
   125   62   64 1    
   126   62  185 1    
   127   63  186 1    
   128   63  187 1    
   129   63  188 1    
   130   64   65 am   BACKBONE|DICT|INTERRES
   131   64  189 1    
   132   65   66 2    
   133   67   68 2    
   134   67   69 am   BACKBONE|DICT|INTERRES
   135   69   70 1    
   136   69  190 1    
   137   70   71 1    
   138   70   72 1    
   139   70  191 1    
   140   71  192 1    
   141   71  193 1    
   142   71  194 1    
   143   72   73 2    
   144   72   74 am   BACKBONE|DICT|INTERRES
   145   74   75 1    
   146   74  195 1    
   147   75   76 1    
   148   75   77 1    
   149   75  196 1    
   150   76  197 1    
   151   76  198 1    
   152   76  199 1    
   153   77   78 2    
   154   77   79 am   BACKBONE|DICT|INTERRES
   155   79   80 1    
   156   79  200 1    
   157   80   81 1    
   158   80   82 1    
   159   80  201 1    
   160   81  202 1    
   161   81  203 1    
   162   81  204 1    
   163   82   83 2    
   164   82   84 am   BACKBONE|DICT|INTERRES
   165   84   85 1    
   166   84  205 1    
   167   85   86 1    
   168   85   87 1    
   169   85  206 1    
   170   86  207 1    
   171   86  208 1    
   172   86  209 1    
   173   87   88 2    
   174   87   89 am   BACKBONE|DICT|INTERRES
   175   89   90 1    
   176   89  210 1    
   177   90   91 1    
   178   90   92 1    
   179   90  211 1    
   180   91  212 1    
   181   91  213 1    
   182   91  214 1    
   183   92   93 2    
   184   92   94 am   BACKBONE|DICT|INTERRES
   185   94   95 1    
   186   94  215 1    
   187   95   96 1    
   188   95   97 1    
   189   95  216 1    
   190   96  217 1    
   191   96  218 1    
   192   96  219 1    
   193   97   98 2    
   194   97   99 am   BACKBONE|DICT|INTERRES
   195   99  100 1    
   196   99  220 1    
   197  100  101 1    
   198  100  102 1    
   199  100  221 1    
   200  101  222 1    
   201  101  223 1    
   202  101  224 1    
   203  102  103 2    
   204  102  104 am   BACKBONE|DICT|INTERRES
   205  104  105 1    
   206  104  225 1    
   207  105  106 1    
   208  105  107 1    
   209  105  226 1    
   210  106  227 1    
   211  106  228 1    
   212  106  229 1    
   213  107  108 2    
   214  107  109 am   BACKBONE|DICT|INTERRES
   215  109  110 1    
   216  109  230 1    
   217  110  111 1    
   218  110  112 1    
   219  110  231 1    
   220  111  232 1    
   221  111  233 1    
   222  111  234 1    
   223  112  113 2    
   224  112  114 am   BACKBONE|DICT|INTERRES
   225  114  115 1    
   226  114  235 1    
   227  115  116 1    
   228  115  117 1    
   229  115  236 1    
   230  116  237 1    
   231  116  238 1    
   232  116  239 1    
   233  117  118 2    
   234  117  119 am   BACKBONE|DICT|INTERRES
   235  119  120 1    
   236  119  240 1    
   237  120  121 1    
   238  120  124 1    
   239  120  241 1    
   240  121  122 am   BACKBONE|DICT|INTERRES
   241  121  123 2    
   242  122  242 1    
   243  122  243 1    
   244  124  125 1    
   245  124  244 1    
   246  124  245 1    
   247  125  126 1    
   248  126  246 1    
   249  126  247 1    
@<TRIPOS>SUBSTRUCTURE
     1 UNK         1 GROUP             0       ****    0 ROOT    
