@<TRIPOS>MOLECULE
3R540
247   249    1
SMALL
USER_CHARGES


@<TRIPOS>ATOM
      1 CA         -1.6191  -12.2961  -46.7296 C.3       0 UNK        -0.1800 
      2 C          -0.7797  -11.3241  -45.9055 C.2       0 UNK         0.5000 
      3 O          -1.1755  -10.1707  -45.7494 O.2       0 UNK        -0.5000 
      4 N           0.3791  -11.7216  -45.3642 N.am      1 UNK        -0.5000 
      5 CA          1.0160  -13.0419  -45.4679 C.3       1 UNK         0.1400 
      6 C6          1.0249  -13.8054  -44.1178 C.3       23 UNK        -0.0398 
      7 S7         -0.6481  -14.2874  -43.5702 S.3       23 UNK        -0.2404 
      8 C8         -0.7422  -16.0183  -44.1356 C.3       23 UNK        -0.0205 
      9 C9         -1.9267  -16.2349  -45.0635 C.ar      23 UNK        -0.0193 
     10 C10        -1.8166  -15.9233  -46.4213 C.ar      23 UNK        -0.1150 
     11 C11        -2.9123  -16.0693  -47.2760 C.ar      23 UNK        -0.0193 
     12 C12        -4.1176  -16.5562  -46.7662 C.ar      23 UNK        -0.1150 
     13 C13        -4.2285  -16.9187  -45.4213 C.ar      23 UNK        -0.0193 
     14 C14        -3.1339  -16.7404  -44.5706 C.ar      23 UNK        -0.1150 
     15 C15        -5.5380  -17.4779  -44.8838 C.3       23 UNK        -0.0205 
     16 S16        -5.5581  -19.3013  -44.8647 S.3       23 UNK        -0.2404 
     17 C17        -5.6358  -19.7157  -46.6486 C.3       23 UNK        -0.0398 
     18 CA         -4.4839  -20.6272  -47.1518 C.3       11 UNK         0.1400 
     19 N          -3.1724  -20.2151  -46.6409 N.am      11 UNK        -0.5000 
     20 C          -2.0097  -20.8619  -46.7995 C.2       10 UNK         0.5000 
     21 O          -1.8664  -21.8759  -47.4846 O.2       10 UNK        -0.5000 
     22 CA         -0.8096  -20.3242  -46.0055 C.3       10 UNK         0.1400 
     23 CB         -0.0690  -19.2680  -46.8353 C.3       10 UNK        -0.1800 
     24 N          -1.1241  -19.7650  -44.6859 N.am      10 UNK        -0.5000 
     25 C          -1.8723  -20.3159  -43.7189 C.2       9 UNK         0.5000 
     26 O          -2.5251  -21.3529  -43.8537 O.2       9 UNK        -0.5000 
     27 CA         -1.8284  -19.6115  -42.3492 C.3       9 UNK         0.1400 
     28 CB         -3.0514  -19.9570  -41.4823 C.3       9 UNK        -0.1800 
     29 N          -0.6108  -19.9622  -41.6169 N.am      9 UNK        -0.5000 
     30 C           0.6321  -19.5754  -41.9350 C.2       8 UNK         0.5000 
     31 O           0.8928  -18.7928  -42.8534 O.2       8 UNK        -0.5000 
     32 CA          1.7695  -20.1771  -41.0949 C.3       8 UNK         0.1400 
     33 CB          1.7864  -21.7172  -41.1820 C.3       8 UNK        -0.1800 
     34 N           3.0447  -19.6474  -41.5665 N.am      8 UNK        -0.5000 
     35 C           4.1981  -19.6717  -40.8913 C.2       7 UNK         0.5000 
     36 O           4.3060  -20.1072  -39.7439 O.2       7 UNK        -0.5000 
     37 CA          5.4535  -19.1484  -41.6153 C.3       7 UNK         0.1400 
     38 CB          6.3075  -20.3251  -42.1140 C.3       7 UNK        -0.1800 
     39 N           5.1724  -18.2645  -42.7493 N.am      7 UNK        -0.5000 
     40 C           4.7831  -16.9865  -42.6430 C.2       6 UNK         0.5000 
     41 O           4.5264  -16.4433  -41.5680 O.2       6 UNK        -0.5000 
     42 CA          4.7007  -16.1627  -43.9416 C.3       6 UNK         0.1400 
     43 CB          5.8674  -15.1624  -44.0027 C.3       6 UNK        -0.1800 
     44 N           4.7417  -16.9959  -45.1477 N.am      6 UNK        -0.5000 
     45 C           3.6733  -17.3051  -45.8908 C.2       5 UNK         0.5000 
     46 O           2.5223  -16.9421  -45.6405 O.2       5 UNK        -0.5000 
     47 CA          3.9330  -18.1838  -47.1211 C.3       5 UNK         0.1400 
     48 CB          3.8625  -19.6791  -46.7587 C.3       5 UNK        -0.1800 
     49 N           2.9356  -17.8628  -48.1359 N.am      5 UNK        -0.5000 
     50 C           3.0819  -18.0334  -49.4547 C.2       4 UNK         0.5000 
     51 O           4.0793  -18.5384  -49.9694 O.2       4 UNK        -0.5000 
     52 CA          1.9425  -17.5299  -50.3643 C.3       4 UNK         0.1400 
     53 CB          1.0822  -18.7054  -50.8503 C.3       4 UNK        -0.1800 
     54 N           1.0670  -16.5553  -49.7065 N.am      4 UNK        -0.5000 
     55 C           1.3069  -15.2567  -49.4806 C.2       3 UNK         0.5000 
     56 O           0.5172  -14.5724  -48.8275 O.2       3 UNK        -0.5000 
     57 CA          2.5725  -14.5771  -50.0463 C.3       3 UNK         0.1400 
     58 CB          2.3795  -14.1528  -51.5128 C.3       3 UNK        -0.1800 
     59 N           2.7811  -13.3865  -49.2390 N.am      3 UNK        -0.5000 
     60 C           3.9378  -12.8482  -48.8459 C.2       2 UNK         0.5000 
     61 O           5.0416  -13.2023  -49.2607 O.2       2 UNK        -0.5000 
     62 CA          3.8263  -11.7413  -47.7741 C.3       2 UNK         0.1400 
     63 CB          3.8179  -10.3521  -48.4297 C.3       2 UNK        -0.1800 
     64 N           2.6219  -11.8897  -46.9446 N.am      2 UNK        -0.5000 
     65 C           2.4286  -12.8936  -46.0741 C.2       1 UNK         0.5000 
     66 O           3.3157  -13.6915  -45.7769 O.2       1 UNK        -0.5000 
     67 C          -4.8016  -22.1162  -46.8974 C.2       11 UNK         0.5000 
     68 O          -5.2592  -22.7951  -47.8184 O.2       11 UNK        -0.5000 
     69 N          -4.5018  -22.5907  -45.6822 N.am      12 UNK        -0.5000 
     70 CA         -4.6674  -23.9779  -45.2629 C.3       12 UNK         0.1400 
     71 CB         -5.3808  -24.0034  -43.9023 C.3       12 UNK        -0.1800 
     72 C          -3.3150  -24.7019  -45.1700 C.2       12 UNK         0.5000 
     73 O          -3.2153  -25.8462  -45.6112 O.2       12 UNK        -0.5000 
     74 N          -2.2990  -24.0354  -44.6026 N.am      13 UNK        -0.5000 
     75 CA         -1.0010  -24.6246  -44.2615 C.3       13 UNK         0.1400 
     76 CB         -0.2329  -23.6649  -43.3418 C.3       13 UNK        -0.1800 
     77 C          -0.1428  -24.9996  -45.4814 C.2       13 UNK         0.5000 
     78 O           0.5541  -26.0139  -45.4388 O.2       13 UNK        -0.5000 
     79 N          -0.2219  -24.1902  -46.5442 N.am      14 UNK        -0.5000 
     80 CA          0.4254  -24.4408  -47.8344 C.3       14 UNK         0.1400 
     81 CB          1.1781  -23.1685  -48.2661 C.3       14 UNK        -0.1800 
     82 C          -0.6037  -24.8666  -48.9007 C.2       14 UNK         0.5000 
     83 O          -0.2266  -25.0600  -50.0567 O.2       14 UNK        -0.5000 
     84 N          -1.8818  -24.9774  -48.4998 N.am      15 UNK        -0.5000 
     85 CA         -3.0700  -25.2173  -49.3251 C.3       15 UNK         0.1400 
     86 CB         -3.0505  -26.6421  -49.9140 C.3       15 UNK        -0.1800 
     87 C          -3.2810  -24.1293  -50.3989 C.2       15 UNK         0.5000 
     88 O          -3.8248  -24.4112  -51.4689 O.2       15 UNK        -0.5000 
     89 N          -2.8487  -22.8947  -50.1022 N.am      16 UNK        -0.5000 
     90 CA         -2.8230  -21.7823  -51.0486 C.3       16 UNK         0.1400 
     91 CB         -2.0304  -20.6159  -50.4501 C.3       16 UNK        -0.1800 
     92 C          -4.2146  -21.3222  -51.5113 C.2       16 UNK         0.5000 
     93 O          -4.3186  -20.7684  -52.6044 O.2       16 UNK        -0.5000 
     94 N          -5.2566  -21.5704  -50.7048 N.am      17 UNK        -0.5000 
     95 CA         -6.6461  -21.2955  -51.0741 C.3       17 UNK         0.1400 
     96 CB         -7.5203  -21.2636  -49.8134 C.3       17 UNK        -0.1800 
     97 C          -7.1927  -22.3112  -52.0940 C.2       17 UNK         0.5000 
     98 O          -7.9902  -21.9353  -52.9526 O.2       17 UNK        -0.5000 
     99 N          -6.7367  -23.5693  -52.0049 N.am      18 UNK        -0.5000 
    100 CA        -7.0734  -24.6367  -52.9491 C.3       18 UNK         0.1400 
    101 CB        -6.8147  -26.0039  -52.2976 C.3       18 UNK        -0.1800 
    102 C         -6.2858  -24.4944  -54.2632 C.2       18 UNK         0.5000 
    103 O         -6.8391  -24.7373  -55.3359 O.2       18 UNK        -0.5000 
    104 N         -5.0203  -24.0648  -54.1556 N.am      19 UNK        -0.5000 
    105 CA        -4.1427  -23.7480  -55.2854 C.3       19 UNK         0.1400 
    106 CB        -2.6945  -23.6765  -54.7776 C.3       19 UNK        -0.1800 
    107 C         -4.5176  -22.4361  -56.0082 C.2       19 UNK         0.5000 
    108 O         -4.0448  -22.2102  -57.1224 O.2       19 UNK        -0.5000 
    109 N         -5.3348  -21.5958  -55.3549 N.am      20 UNK        -0.5000 
    110 CA        -5.7817  -20.2613  -55.7711 C.3       20 UNK         0.1400 
    111 CB        -6.6094  -20.3268  -57.0715 C.3       20 UNK        -0.1800 
    112 C         -4.6396  -19.2227  -55.8286 C.2       20 UNK         0.5000 
    113 O         -4.7320  -18.2402  -56.5668 O.2       20 UNK        -0.5000 
    114 N         -3.5924  -19.4464  -55.0246 N.am      21 UNK        -0.5000 
    115 CA        -2.5127  -18.4949  -54.7653 C.3       21 UNK         0.1400 
    116 CB        -1.2587  -19.2660  -54.3249 C.3       21 UNK        -0.1800 
    117 C         -2.9293  -17.4601  -53.7025 C.2       21 UNK         0.5000 
    118 O         -2.5012  -16.3079  -53.7756 O.2       21 UNK        -0.5000 
    119 N         -3.7832  -17.8880  -52.7661 N.am      22 UNK        -0.5000 
    120 CA        -4.4925  -17.0525  -51.7916 C.3       22 UNK         0.1400 
    121 C         -6.0157  -17.0554  -52.0953 C.2       22 UNK         0.5000 
    122 N         -6.7475  -16.0598  -51.6144 N.am      22 UNK        -0.7600 
    123 O         -6.5500  -17.9537  -52.7424 O.2       22 UNK        -0.5000 
    124 C124       -4.2191  -17.5197  -50.3384 C.3       23 UNK        -0.0398 
    125 S125       -2.5164  -17.1270  -49.8064 S.3       23 UNK        -0.2404 
    126 C126       -2.7996  -15.6780  -48.7411 C.3       23 UNK        -0.0205 
    127 H127       -1.9354  -13.1400  -46.1183 H         1 UNK         0.0600 
    128 H128       -1.0608  -12.6672  -47.5888 H         1 UNK         0.0600 
    129 H129       -2.5171  -11.8055  -47.1053 H         1 UNK         0.0600 
    130 H130        0.9055  -11.0468  -44.8266 H         1 UNK         0.3000 
    131 H131        0.4867  -13.6691  -46.1844 H         1 UNK         0.0600 
    132 H132        1.4777  -13.1899  -43.3392 H         1 UNK         0.0800 
    133 H133        1.6358  -14.7062  -44.1739 H         1 UNK         0.0800 
    134 H134       -0.8169  -16.6575  -43.2575 H         1 UNK         0.0800 
    135 H135        0.1708  -16.3215  -44.6475 H         1 UNK         0.0800 
    136 H136       -0.8823  -15.5428  -46.8078 H         1 UNK         0.1150 
    137 H137       -4.9725  -16.6509  -47.4177 H         1 UNK         0.1150 
    138 H138       -3.2297  -16.9840  -43.5226 H         1 UNK         0.1150 
    139 H139       -6.3820  -17.1095  -45.4690 H         1 UNK         0.0800 
    140 H140       -5.6969  -17.1165  -43.8668 H         1 UNK         0.0800 
    141 H141       -5.6395  -18.7988  -47.2338 H         1 UNK         0.0800 
    142 H142       -6.6099  -20.1673  -46.8443 H         1 UNK         0.0800 
    143 H143       -4.4342  -20.5091  -48.2343 H         1 UNK         0.0600 
    144 H144       -3.1800  -19.4087  -46.0322 H         1 UNK         0.3000 
    145 H145       -0.1285  -21.1596  -45.8356 H         1 UNK         0.0600 
    146 H146        0.7622  -18.8411  -46.2766 H         1 UNK         0.0600 
    147 H147       -0.7272  -18.4508  -47.1311 H         1 UNK         0.0600 
    148 H148        0.3403  -19.7090  -47.7440 H         1 UNK         0.0600 
    149 H149       -0.5587  -18.9700  -44.4132 H         1 UNK         0.3000 
    150 H150       -1.8363  -18.5357  -42.5159 H         1 UNK         0.0600 
    151 H151       -3.0858  -21.0183  -41.2327 H         1 UNK         0.0600 
    152 H152       -3.9784  -19.7124  -42.0030 H         1 UNK         0.0600 
    153 H153       -3.0453  -19.3931  -40.5495 H         1 UNK         0.0600 
    154 H154       -0.7315  -20.6149  -40.8564 H         1 UNK         0.3000 
    155 H155        1.6146  -19.8688  -40.0590 H         1 UNK         0.0600 
    156 H156        1.9593  -22.0532  -42.2047 H         1 UNK         0.0600 
    157 H157        0.8461  -22.1521  -40.8429 H         1 UNK         0.0600 
    158 H158        2.5718  -22.1431  -40.5577 H         1 UNK         0.0600 
    159 H159        3.0027  -19.2051  -42.4761 H         1 UNK         0.3000 
    160 H160        6.0412  -18.5906  -40.8829 H         1 UNK         0.0600 
    161 H161        5.7790  -20.9168  -42.8627 H         1 UNK         0.0600 
    162 H162        6.5703  -20.9940  -41.2933 H         1 UNK         0.0600 
    163 H163        7.2407  -19.9765  -42.5570 H         1 UNK         0.0600 
    164 H164        5.3449  -18.6406  -43.6688 H         1 UNK         0.3000 
    165 H165        3.7709  -15.5945  -43.9022 H         1 UNK         0.0600 
    166 H166        5.8511  -14.4889  -43.1449 H         1 UNK         0.0600 
    167 H167        6.8339  -15.6678  -44.0067 H         1 UNK         0.0600 
    168 H168        5.8086  -14.5440  -44.8985 H         1 UNK         0.0600 
    169 H169        5.6543  -17.3150  -45.4400 H         1 UNK         0.3000 
    170 H170        4.9264  -17.9494  -47.5098 H         1 UNK         0.0600 
    171 H171        2.8883  -19.9518  -46.3525 H         1 UNK         0.0600 
    172 H172        4.6127  -19.9364  -46.0104 H         1 UNK         0.0600 
    173 H173        4.0470  -20.3074  -47.6301 H         1 UNK         0.0600 
    174 H174        2.1108  -17.4010  -47.7733 H         1 UNK         0.3000 
    175 H175        2.4009  -17.0760  -51.2429 H         1 UNK         0.0600 
    176 H176        1.6855  -19.4425  -51.3816 H         1 UNK         0.0600 
    177 H177        0.5980  -19.2152  -50.0188 H         1 UNK         0.0600 
    178 H178        0.3032  -18.3683  -51.5347 H         1 UNK         0.0600 
    179 H179        0.1921  -16.9278  -49.3675 H         1 UNK         0.3000 
    180 H180        3.4342  -15.2382  -49.9489 H         1 UNK         0.0600 
    181 H181        1.5295  -13.4782  -51.6244 H         1 UNK         0.0600 
    182 H182        2.2004  -15.0091  -52.1621 H         1 UNK         0.0600 
    183 H183        3.2632  -13.6389  -51.8915 H         1 UNK         0.0600 
    184 H184        1.9280  -13.0651  -48.7985 H         1 UNK         0.3000 
    185 H185        4.7038  -11.8125  -47.1280 H         1 UNK         0.0600 
    186 H186        4.7127  -10.2015  -49.0351 H         1 UNK         0.0600 
    187 H187        2.9540  -10.2193  -49.0822 H         1 UNK         0.0600 
    188 H188        3.7976   -9.5617  -47.6791 H         1 UNK         0.0600 
    189 H189        1.8611  -11.2497  -47.1227 H         1 UNK         0.3000 
    190 H190       -4.0632  -21.9643  -45.0146 H         1 UNK         0.3000 
    191 H191       -5.2882  -24.5215  -45.9784 H         1 UNK         0.0600 
    192 H192       -6.3693  -23.5487  -43.9700 H         1 UNK         0.0600 
    193 H193       -5.5165  -25.0268  -43.5500 H         1 UNK         0.0600 
    194 H194       -4.8173  -23.4634  -43.1400 H         1 UNK         0.0600 
    195 H195       -2.4526  -23.0806  -44.2836 H         1 UNK         0.3000 
    196 H196       -1.1936  -25.5424  -43.7019 H         1 UNK         0.0600 
    197 H197        0.7008  -24.1160  -43.0037 H         1 UNK         0.0600 
    198 H198       -0.8148  -23.4171  -42.4538 H         1 UNK         0.0600 
    199 H199        0.0181  -22.7333  -43.8492 H         1 UNK         0.0600 
    200 H200       -0.8408  -23.3883  -46.5142 H         1 UNK         0.3000 
    201 H201        1.1533  -25.2500  -47.7503 H         1 UNK         0.0600 
    202 H202        1.7539  -23.3462  -49.1750 H         1 UNK         0.0600 
    203 H203        1.8798  -22.8440  -47.4976 H         1 UNK         0.0600 
    204 H204        0.4995  -22.3409  -48.4706 H         1 UNK         0.0600 
    205 H205       -2.0648  -24.8344  -47.5171 H         1 UNK         0.3000 
    206 H206       -3.9263  -25.1491  -48.6528 H         1 UNK         0.0600 
    207 H207       -2.8952  -27.3880  -49.1346 H         1 UNK         0.0600 
    208 H208       -3.9970  -26.8770  -50.4017 H         1 UNK         0.0600 
    209 H209       -2.2618  -26.7625  -50.6573 H         1 UNK         0.0600 
    210 H210       -2.4391  -22.7223  -49.1891 H         1 UNK         0.3000 
    211 H211       -2.2831  -22.1241  -51.9323 H         1 UNK         0.0600 
    212 H212       -1.9076  -19.8103  -51.1733 H         1 UNK         0.0600 
    213 H213       -1.0348  -20.9359  -50.1440 H         1 UNK         0.0600 
    214 H214       -2.5286  -20.1918  -49.5809 H         1 UNK         0.0600 
    215 H215       -5.1007  -22.0599  -49.8311 H         1 UNK         0.3000 
    216 H216       -6.6935  -20.3082  -51.5365 H         1 UNK         0.0600 
    217 H217       -7.1935  -20.4789  -49.1330 H         1 UNK         0.0600 
    218 H218       -7.4942  -22.2130  -49.2775 H         1 UNK         0.0600 
    219 H219       -8.5612  -21.0580  -50.0661 H         1 UNK         0.0600 
    220 H220       -6.0363  -23.7877  -51.3100 H         1 UNK         0.3000 
    221 H221       -8.1378  -24.5726  -53.1856 H         1 UNK         0.0600 
    222 H222       -5.7609  -26.1489  -52.0602 H         1 UNK         0.0600 
    223 H223       -7.3852  -26.1161  -51.3756 H         1 UNK         0.0600 
    224 H224       -7.1125  -26.8136  -52.9648 H         1 UNK         0.0600 
    225 H225       -4.6214  -23.9722  -53.2262 H         1 UNK         0.3000 
    226 H226       -4.2125  -24.5595  -56.0126 H         1 UNK         0.0600 
    227 H227       -2.4129  -24.5863  -54.2468 H         1 UNK         0.0600 
    228 H228       -1.9964  -23.5531  -55.6065 H         1 UNK         0.0600 
    229 H229       -2.5498  -22.8338  -54.1027 H         1 UNK         0.0600 
    230 H230       -5.6297  -21.8733  -54.4293 H         1 UNK         0.3000 
    231 H231       -6.4491  -19.9176  -54.9792 H         1 UNK         0.0600 
    232 H232       -5.9931  -20.5806  -57.9341 H         1 UNK         0.0600 
    233 H233       -7.0827  -19.3670  -57.2813 H         1 UNK         0.0600 
    234 H234       -7.4042  -21.0689  -56.9952 H         1 UNK         0.0600 
    235 H235       -3.6551  -20.2398  -54.3965 H         1 UNK         0.3000 
    236 H236       -2.2765  -17.9564  -55.6855 H         1 UNK         0.0600 
    237 H237       -1.4485  -19.8792  -53.4448 H         1 UNK         0.0600 
    238 H238       -0.9071  -19.9256  -55.1184 H         1 UNK         0.0600 
    239 H239       -0.4431  -18.5832  -54.0835 H         1 UNK         0.0600 
    240 H240       -4.1113  -18.8468  -52.8217 H         1 UNK         0.3000 
    241 H241       -4.1608  -16.0168  -51.8882 H         1 UNK         0.0600 
    242 H242       -6.3407  -15.3009  -51.0902 H         1 UNK         0.3800 
    243 H243       -7.7384  -16.0533  -51.8006 H         1 UNK         0.3800 
    244 H244       -4.9219  -17.0588  -49.6449 H         1 UNK         0.0800 
    245 H245       -4.3779  -18.5939  -50.2436 H         1 UNK         0.0800 
    246 H246       -1.9784  -14.9763  -48.8777 H         1 UNK         0.0800 
    247 H247       -3.6938  -15.1390  -49.0563 H         1 UNK         0.0800 
@<TRIPOS>BOND
     1    1    2 1    
     2    1  127 1    
     3    1  128 1    
     4    1  129 1    
     5    2    3 2    
     6    2    4 am   BACKBONE|DICT|INTERRES
     7    4    5 1    
     8    4  130 1    
     9    5    6 1    
    10    5   65 1    
    11    5  131 1    
    12    6    7 1    
    13    6  132 1    
    14    6  133 1    
    15    7    8 1    
    16    8    9 1    
    17    8  134 1    
    18    8  135 1    
    19    9   10 ar   
    20    9   14 ar   
    21   10   11 ar   
    22   10  136 1    
    23   11   12 ar   
    24   11  126 1    
    25   12   13 ar   
    26   12  137 1    
    27   13   14 ar   
    28   13   15 1    
    29   14  138 1    
    30   15   16 1    
    31   15  139 1    
    32   15  140 1    
    33   16   17 1    
    34   17   18 1    
    35   17  141 1    
    36   17  142 1    
    37   18   19 1    
    38   18   67 1    
    39   18  143 1    
    40   19   20 am   BACKBONE|DICT|INTERRES
    41   19  144 1    
    42   20   21 2    
    43   20   22 1    
    44   22   23 1    
    45   22   24 1    
    46   22  145 1    
    47   23  146 1    
    48   23  147 1    
    49   23  148 1    
    50   24   25 am   BACKBONE|DICT|INTERRES
    51   24  149 1    
    52   25   26 2    
    53   25   27 1    
    54   27   28 1    
    55   27   29 1    
    56   27  150 1    
    57   28  151 1    
    58   28  152 1    
    59   28  153 1    
    60   29   30 am   BACKBONE|DICT|INTERRES
    61   29  154 1    
    62   30   31 2    
    63   30   32 1    
    64   32   33 1    
    65   32   34 1    
    66   32  155 1    
    67   33  156 1    
    68   33  157 1    
    69   33  158 1    
    70   34   35 am   BACKBONE|DICT|INTERRES
    71   34  159 1    
    72   35   36 2    
    73   35   37 1    
    74   37   38 1    
    75   37   39 1    
    76   37  160 1    
    77   38  161 1    
    78   38  162 1    
    79   38  163 1    
    80   39   40 am   BACKBONE|DICT|INTERRES
    81   39  164 1    
    82   40   41 2    
    83   40   42 1    
    84   42   43 1    
    85   42   44 1    
    86   42  165 1    
    87   43  166 1    
    88   43  167 1    
    89   43  168 1    
    90   44   45 am   BACKBONE|DICT|INTERRES
    91   44  169 1    
    92   45   46 2    
    93   45   47 1    
    94   47   48 1    
    95   47   49 1    
    96   47  170 1    
    97   48  171 1    
    98   48  172 1    
    99   48  173 1    
   100   49   50 am   BACKBONE|DICT|INTERRES
   101   49  174 1    
   102   50   51 2    
   103   50   52 1    
   104   52   53 1    
   105   52   54 1    
   106   52  175 1    
   107   53  176 1    
   108   53  177 1    
   109   53  178 1    
   110   54   55 am   BACKBONE|DICT|INTERRES
   111   54  179 1    
   112   55   56 2    
   113   55   57 1    
   114   57   58 1    
   115   57   59 1    
   116   57  180 1    
   117   58  181 1    
   118   58  182 1    
   119   58  183 1    
   120   59   60 am   BACKBONE|DICT|INTERRES
   121   59  184 1    
   122   60   61 2    
   123   60   62 1    
   124   62   63 1    
   125   62   64 1    
   126   62  185 1    
   127   63  186 1    
   128   63  187 1    
   129   63  188 1    
   130   64   65 am   BACKBONE|DICT|INTERRES
   131   64  189 1    
   132   65   66 2    
   133   67   68 2    
   134   67   69 am   BACKBONE|DICT|INTERRES
   135   69   70 1    
   136   69  190 1    
   137   70   71 1    
   138   70   72 1    
   139   70  191 1    
   140   71  192 1    
   141   71  193 1    
   142   71  194 1    
   143   72   73 2    
   144   72   74 am   BACKBONE|DICT|INTERRES
   145   74   75 1    
   146   74  195 1    
   147   75   76 1    
   148   75   77 1    
   149   75  196 1    
   150   76  197 1    
   151   76  198 1    
   152   76  199 1    
   153   77   78 2    
   154   77   79 am   BACKBONE|DICT|INTERRES
   155   79   80 1    
   156   79  200 1    
   157   80   81 1    
   158   80   82 1    
   159   80  201 1    
   160   81  202 1    
   161   81  203 1    
   162   81  204 1    
   163   82   83 2    
   164   82   84 am   BACKBONE|DICT|INTERRES
   165   84   85 1    
   166   84  205 1    
   167   85   86 1    
   168   85   87 1    
   169   85  206 1    
   170   86  207 1    
   171   86  208 1    
   172   86  209 1    
   173   87   88 2    
   174   87   89 am   BACKBONE|DICT|INTERRES
   175   89   90 1    
   176   89  210 1    
   177   90   91 1    
   178   90   92 1    
   179   90  211 1    
   180   91  212 1    
   181   91  213 1    
   182   91  214 1    
   183   92   93 2    
   184   92   94 am   BACKBONE|DICT|INTERRES
   185   94   95 1    
   186   94  215 1    
   187   95   96 1    
   188   95   97 1    
   189   95  216 1    
   190   96  217 1    
   191   96  218 1    
   192   96  219 1    
   193   97   98 2    
   194   97   99 am   BACKBONE|DICT|INTERRES
   195   99  100 1    
   196   99  220 1    
   197  100  101 1    
   198  100  102 1    
   199  100  221 1    
   200  101  222 1    
   201  101  223 1    
   202  101  224 1    
   203  102  103 2    
   204  102  104 am   BACKBONE|DICT|INTERRES
   205  104  105 1    
   206  104  225 1    
   207  105  106 1    
   208  105  107 1    
   209  105  226 1    
   210  106  227 1    
   211  106  228 1    
   212  106  229 1    
   213  107  108 2    
   214  107  109 am   BACKBONE|DICT|INTERRES
   215  109  110 1    
   216  109  230 1    
   217  110  111 1    
   218  110  112 1    
   219  110  231 1    
   220  111  232 1    
   221  111  233 1    
   222  111  234 1    
   223  112  113 2    
   224  112  114 am   BACKBONE|DICT|INTERRES
   225  114  115 1    
   226  114  235 1    
   227  115  116 1    
   228  115  117 1    
   229  115  236 1    
   230  116  237 1    
   231  116  238 1    
   232  116  239 1    
   233  117  118 2    
   234  117  119 am   BACKBONE|DICT|INTERRES
   235  119  120 1    
   236  119  240 1    
   237  120  121 1    
   238  120  124 1    
   239  120  241 1    
   240  121  122 am   BACKBONE|DICT|INTERRES
   241  121  123 2    
   242  122  242 1    
   243  122  243 1    
   244  124  125 1    
   245  124  244 1    
   246  124  245 1    
   247  125  126 1    
   248  126  246 1    
   249  126  247 1    
@<TRIPOS>SUBSTRUCTURE
     1 UNK         1 GROUP             0       ****    0 ROOT    
