@<TRIPOS>MOLECULE
3R540
247   249    1
SMALL
USER_CHARGES


@<TRIPOS>ATOM
      1 CA         -2.7793  -17.8803  -48.4604 C.3       0 UNK        -0.1800 
      2 C          -2.5774  -16.3713  -48.4345 C.2       0 UNK         0.5000 
      3 O          -3.5155  -15.6283  -48.1464 O.2       0 UNK        -0.5000 
      4 N          -1.3560  -15.9221  -48.7423 N.am      1 UNK        -0.5000 
      5 CA         -0.9194  -14.5254  -48.7867 C.3       1 UNK         0.1400 
      6 C6          0.3998  -14.3545  -49.5934 C.3       23 UNK        -0.0398 
      7 S7          1.6917  -15.6148  -49.2609 S.3       23 UNK        -0.2404 
      8 C8          1.8221  -16.4673  -50.8665 C.3       23 UNK        -0.0205 
      9 C9          0.6836  -17.4515  -51.0978 C.ar      23 UNK        -0.0193 
     10 C10        -0.5057  -17.0281  -51.6975 C.ar      23 UNK        -0.1150 
     11 C11        -1.5569  -17.9248  -51.9155 C.ar      23 UNK        -0.0193 
     12 C12        -1.3836  -19.2691  -51.5790 C.ar      23 UNK        -0.1150 
     13 C13        -0.1849  -19.7170  -51.0150 C.ar      23 UNK        -0.0193 
     14 C14         0.8356  -18.7981  -50.7530 C.ar      23 UNK        -0.1150 
     15 C15         0.0368  -21.2036  -50.7737 C.3       23 UNK        -0.0205 
     16 S16        -1.2649  -21.9509  -49.7500 S.3       23 UNK        -0.2404 
     17 C17        -0.7827  -21.4460  -48.0657 C.3       23 UNK        -0.0398 
     18 CA         -0.7477  -22.6620  -47.1108 C.3       11 UNK         0.1400 
     19 N           0.0957  -22.4254  -45.9379 N.am      11 UNK        -0.5000 
     20 C           0.4684  -23.3756  -45.0692 C.2       10 UNK         0.5000 
     21 O           0.1508  -24.5588  -45.1755 O.2       10 UNK        -0.5000 
     22 CA          1.2819  -22.9231  -43.8447 C.3       10 UNK         0.1400 
     23 CB          2.7491  -22.6675  -44.2190 C.3       10 UNK        -0.1800 
     24 N           0.7098  -21.7354  -43.2115 N.am      10 UNK        -0.5000 
     25 C          -0.5084  -21.6974  -42.6514 C.2       9 UNK         0.5000 
     26 O          -1.2477  -22.6778  -42.5546 O.2       9 UNK        -0.5000 
     27 CA         -1.0028  -20.3268  -42.1580 C.3       9 UNK         0.1400 
     28 CB         -0.4205  -20.0062  -40.7736 C.3       9 UNK        -0.1800 
     29 N          -0.6874  -19.2418  -43.0881 N.am      9 UNK        -0.5000 
     30 C          -1.1566  -19.1456  -44.3409 C.2       8 UNK         0.5000 
     31 O          -1.9335  -19.9523  -44.8480 O.2       8 UNK        -0.5000 
     32 CA         -0.6265  -17.9801  -45.1914 C.3       8 UNK         0.1400 
     33 CB         -1.2857  -16.6599  -44.7731 C.3       8 UNK        -0.1800 
     34 N           0.8275  -17.8566  -45.1121 N.am      8 UNK        -0.5000 
     35 C           1.6942  -18.8017  -45.5021 C.2       7 UNK         0.5000 
     36 O           1.3607  -19.8645  -46.0243 O.2       7 UNK        -0.5000 
     37 CA          3.1788  -18.5403  -45.2062 C.3       7 UNK         0.1400 
     38 CB          3.8169  -17.6892  -46.3152 C.3       7 UNK        -0.1800 
     39 N           3.3588  -17.8915  -43.9070 N.am      7 UNK        -0.5000 
     40 C           3.1814  -18.5035  -42.7273 C.2       6 UNK         0.5000 
     41 O           2.8917  -19.6948  -42.6133 O.2       6 UNK        -0.5000 
     42 CA          3.3119  -17.6290  -41.4652 C.3       6 UNK         0.1400 
     43 CB          4.7871  -17.4610  -41.0719 C.3       6 UNK        -0.1800 
     44 N           2.6978  -16.3091  -41.6230 N.am      6 UNK        -0.5000 
     45 C           1.3805  -16.1037  -41.7593 C.2       5 UNK         0.5000 
     46 O           0.5446  -17.0055  -41.7199 O.2       5 UNK        -0.5000 
     47 CA          0.9161  -14.6584  -42.0299 C.3       5 UNK         0.1400 
     48 CB          0.6511  -13.9225  -40.7086 C.3       5 UNK        -0.1800 
     49 N           1.8212  -13.8522  -42.8570 N.am      5 UNK        -0.5000 
     50 C           2.2935  -14.1974  -44.0622 C.2       4 UNK         0.5000 
     51 O           2.1171  -15.3041  -44.5709 O.2       4 UNK        -0.5000 
     52 CA          3.0306  -13.0966  -44.8376 C.3       4 UNK         0.1400 
     53 CB          3.8461  -13.6525  -46.0189 C.3       4 UNK        -0.1800 
     54 N           2.0091  -12.1964  -45.3532 N.am      4 UNK        -0.5000 
     55 C           1.8045  -10.9304  -44.9714 C.2       3 UNK         0.5000 
     56 O           2.5462  -10.3204  -44.2004 O.2       3 UNK        -0.5000 
     57 CA          0.5422  -10.2310  -45.5221 C.3       3 UNK         0.1400 
     58 CB          0.8843   -9.4205  -46.7814 C.3       3 UNK        -0.1800 
     59 N          -0.5479  -11.1595  -45.8362 N.am      3 UNK        -0.5000 
     60 C          -1.1995  -11.9107  -44.9372 C.2       2 UNK         0.5000 
     61 O          -1.0306  -11.8131  -43.7212 O.2       2 UNK        -0.5000 
     62 CA         -2.1892  -12.9673  -45.4733 C.3       2 UNK         0.1400 
     63 CB         -3.6313  -12.4506  -45.3591 C.3       2 UNK        -0.1800 
     64 N          -1.9688  -13.4411  -46.8478 N.am      2 UNK        -0.5000 
     65 C          -0.8314  -13.9256  -47.3674 C.2       1 UNK         0.5000 
     66 O           0.2430  -13.9199  -46.7708 O.2       1 UNK        -0.5000 
     67 C          -2.1702  -23.1215  -46.7266 C.2       11 UNK         0.5000 
     68 O          -2.7049  -24.0260  -47.3682 O.2       11 UNK        -0.5000 
     69 N          -2.7533  -22.5234  -45.6784 N.am      12 UNK        -0.5000 
     70 CA         -4.0533  -22.9031  -45.1214 C.3       12 UNK         0.1400 
     71 CB         -4.4646  -21.9088  -44.0265 C.3       12 UNK        -0.1800 
     72 C          -4.0796  -24.3483  -44.5929 C.2       12 UNK         0.5000 
     73 O          -5.0767  -25.0436  -44.7852 O.2       12 UNK        -0.5000 
     74 N          -2.9773  -24.7833  -43.9707 N.am      13 UNK        -0.5000 
     75 CA         -2.7900  -26.1541  -43.5051 C.3       13 UNK         0.1400 
     76 CB         -1.6492  -26.1902  -42.4757 C.3       13 UNK        -0.1800 
     77 C          -2.5212  -27.1376  -44.6600 C.2       13 UNK         0.5000 
     78 O          -3.1457  -28.1979  -44.7106 O.2       13 UNK        -0.5000 
     79 N          -1.5805  -26.7862  -45.5465 N.am      14 UNK        -0.5000 
     80 CA         -1.0472  -27.6841  -46.5709 C.3       14 UNK         0.1400 
     81 CB          0.3579  -27.2092  -46.9734 C.3       14 UNK        -0.1800 
     82 C          -1.9297  -27.8200  -47.8227 C.2       14 UNK         0.5000 
     83 O          -1.9937  -28.9130  -48.3880 O.2       14 UNK        -0.5000 
     84 N          -2.5502  -26.7190  -48.2639 N.am      15 UNK        -0.5000 
     85 CA         -3.1927  -26.6099  -49.5768 C.3       15 UNK         0.1400 
     86 CB         -2.2157  -25.9154  -50.5445 C.3       15 UNK        -0.1800 
     87 C          -4.5463  -25.8816  -49.5238 C.2       15 UNK         0.5000 
     88 O          -5.0506  -25.4787  -50.5721 O.2       15 UNK        -0.5000 
     89 N          -5.1089  -25.6962  -48.3195 N.am      16 UNK        -0.5000 
     90 CA         -6.3741  -24.9992  -48.0444 C.3       16 UNK         0.1400 
     91 CB         -7.5677  -25.8173  -48.5808 C.3       16 UNK        -0.1800 
     92 C          -6.3918  -23.5311  -48.5314 C.2       16 UNK         0.5000 
     93 O          -7.4555  -23.0096  -48.8685 O.2       16 UNK        -0.5000 
     94 N          -5.2060  -22.9025  -48.5685 N.am      17 UNK        -0.5000 
     95 CA         -4.9238  -21.5423  -49.0430 C.3       17 UNK         0.1400 
     96 CB         -5.6630  -20.4917  -48.1872 C.3       17 UNK        -0.1800 
     97 C          -5.1378  -21.3412  -50.5623 C.2       17 UNK         0.5000 
     98 O          -5.2103  -20.1978  -51.0151 O.2       17 UNK        -0.5000 
     99 N          -5.2367  -22.4379  -51.3266 N.am      18 UNK        -0.5000 
    100 CA        -5.4229  -22.4299  -52.7766 C.3       18 UNK         0.1400 
    101 CB        -6.1953  -23.6988  -53.1757 C.3       18 UNK        -0.1800 
    102 C         -4.0811  -22.3527  -53.5300 C.2       18 UNK         0.5000 
    103 O         -3.0211  -22.5810  -52.9425 O.2       18 UNK        -0.5000 
    104 N         -4.1769  -22.0765  -54.8394 N.am      19 UNK        -0.5000 
    105 CA        -3.0826  -21.9462  -55.8103 C.3       19 UNK         0.1400 
    106 CB        -2.3059  -23.2763  -55.9454 C.3       19 UNK        -0.1800 
    107 C         -2.1723  -20.7285  -55.5343 C.2       19 UNK         0.5000 
    108 O         -2.5771  -19.8153  -54.8146 O.2       19 UNK        -0.5000 
    109 N         -0.9797  -20.7232  -56.1485 N.am      20 UNK        -0.5000 
    110 CA         0.0471  -19.6776  -56.0893 C.3       20 UNK         0.1400 
    111 CB         0.6977  -19.6321  -54.6893 C.3       20 UNK        -0.1800 
    112 C         -0.4693  -18.3136  -56.6027 C.2       20 UNK         0.5000 
    113 O         -0.9283  -18.2454  -57.7451 O.2       20 UNK        -0.5000 
    114 N         -0.3460  -17.2602  -55.7846 N.am      21 UNK        -0.5000 
    115 CA        -0.7482  -15.8877  -56.0895 C.3       21 UNK         0.1400 
    116 CB         0.2297  -14.9306  -55.3752 C.3       21 UNK        -0.1800 
    117 C         -2.2335  -15.6571  -55.7301 C.2       21 UNK         0.5000 
    118 O         -3.0990  -16.3707  -56.2403 O.2       21 UNK        -0.5000 
    119 N         -2.5039  -14.6779  -54.8552 N.am      22 UNK        -0.5000 
    120 CA        -3.8361  -14.2840  -54.3585 C.3       22 UNK         0.1400 
    121 C         -4.7752  -13.7263  -55.4764 C.2       22 UNK         0.5000 
    122 N         -6.0843  -13.6744  -55.2635 N.am      22 UNK        -0.7600 
    123 O         -4.3236  -13.2771  -56.5284 O.2       22 UNK        -0.5000 
    124 C124       -4.4956  -15.3774  -53.4635 C.3       23 UNK        -0.0398 
    125 S125       -3.4491  -15.8488  -52.0427 S.3       23 UNK        -0.2404 
    126 C126       -2.8500  -17.4822  -52.5891 C.3       23 UNK        -0.0205 
    127 H127       -3.1923  -18.2267  -47.5129 H         1 UNK         0.0600 
    128 H128       -1.8420  -18.4080  -48.6383 H         1 UNK         0.0600 
    129 H129       -3.4707  -18.1482  -49.2594 H         1 UNK         0.0600 
    130 H130       -0.6294  -16.5862  -48.9722 H         1 UNK         0.3000 
    131 H131       -1.6870  -13.9605  -49.3203 H         1 UNK         0.0600 
    132 H132        0.1658  -14.3601  -50.6569 H         1 UNK         0.0800 
    133 H133        0.8353  -13.3692  -49.4173 H         1 UNK         0.0800 
    134 H134        1.8630  -15.7356  -51.6748 H         1 UNK         0.0800 
    135 H135        2.7750  -16.9975  -50.8976 H         1 UNK         0.0800 
    136 H136       -0.6174  -15.9968  -51.9961 H         1 UNK         0.1150 
    137 H137       -2.1693  -19.9805  -51.7961 H         1 UNK         0.1150 
    138 H138        1.7652  -19.1362  -50.3171 H         1 UNK         0.1150 
    139 H139        0.0383  -21.7060  -51.7422 H         1 UNK         0.0800 
    140 H140        1.0138  -21.3959  -50.3278 H         1 UNK         0.0800 
    141 H141       -1.4591  -20.6699  -47.7039 H         1 UNK         0.0800 
    142 H142        0.2033  -20.9836  -48.1161 H         1 UNK         0.0800 
    143 H143       -0.2822  -23.4928  -47.6464 H         1 UNK         0.0600 
    144 H144        0.4288  -21.4737  -45.8015 H         1 UNK         0.3000 
    145 H145        1.2574  -23.7336  -43.1133 H         1 UNK         0.0600 
    146 H146        3.3411  -22.4137  -43.3395 H         1 UNK         0.0600 
    147 H147        3.1967  -23.5551  -44.6675 H         1 UNK         0.0600 
    148 H148        2.8490  -21.8525  -44.9353 H         1 UNK         0.0600 
    149 H149        1.2787  -20.8960  -43.2138 H         1 UNK         0.3000 
    150 H150       -2.0893  -20.3794  -42.0658 H         1 UNK         0.0600 
    151 H151       -0.6447  -20.8007  -40.0607 H         1 UNK         0.0600 
    152 H152       -0.8411  -19.0832  -40.3744 H         1 UNK         0.0600 
    153 H153        0.6634  -19.8909  -40.8095 H         1 UNK         0.0600 
    154 H154       -0.0845  -18.5046  -42.7322 H         1 UNK         0.3000 
    155 H155       -0.8769  -18.1752  -46.2353 H         1 UNK         0.0600 
    156 H156       -1.2341  -16.4984  -43.6969 H         1 UNK         0.0600 
    157 H157       -0.7997  -15.8152  -45.2541 H         1 UNK         0.0600 
    158 H158       -2.3385  -16.6436  -45.0572 H         1 UNK         0.0600 
    159 H159        1.2021  -16.9842  -44.7484 H         1 UNK         0.3000 
    160 H160        3.6930  -19.5032  -45.1823 H         1 UNK         0.0600 
    161 H161        3.3198  -16.7256  -46.4273 H         1 UNK         0.0600 
    162 H162        3.7529  -18.1979  -47.2779 H         1 UNK         0.0600 
    163 H163        4.8717  -17.5024  -46.1143 H         1 UNK         0.0600 
    164 H164        3.4806  -16.8878  -43.9223 H         1 UNK         0.3000 
    165 H165        2.7999  -18.1456  -40.6505 H         1 UNK         0.0600 
    166 H166        4.8851  -16.9127  -40.1349 H         1 UNK         0.0600 
    167 H167        5.2657  -18.4311  -40.9313 H         1 UNK         0.0600 
    168 H168        5.3506  -16.9245  -41.8362 H         1 UNK         0.0600 
    169 H169        3.3178  -15.5145  -41.6747 H         1 UNK         0.3000 
    170 H170       -0.0289  -14.7217  -42.5722 H         1 UNK         0.0600 
    171 H171       -0.0381  -14.4859  -40.0780 H         1 UNK         0.0600 
    172 H172        1.5698  -13.7726  -40.1403 H         1 UNK         0.0600 
    173 H173        0.2008  -12.9455  -40.8861 H         1 UNK         0.0600 
    174 H174        1.9945  -12.9117  -42.5324 H         1 UNK         0.3000 
    175 H175        3.7104  -12.5854  -44.1531 H         1 UNK         0.0600 
    176 H176        4.3782  -12.8550  -46.5372 H         1 UNK         0.0600 
    177 H177        3.2091  -14.1553  -46.7484 H         1 UNK         0.0600 
    178 H178        4.5891  -14.3738  -45.6767 H         1 UNK         0.0600 
    179 H179        1.3114  -12.6523  -45.9389 H         1 UNK         0.3000 
    180 H180        0.1863   -9.5406  -44.7547 H         1 UNK         0.0600 
    181 H181        1.2276  -10.0640  -47.5925 H         1 UNK         0.0600 
    182 H182        1.6760   -8.6982  -46.5777 H         1 UNK         0.0600 
    183 H183        0.0195   -8.8608  -47.1382 H         1 UNK         0.0600 
    184 H184       -0.7507  -11.3075  -46.8134 H         1 UNK         0.3000 
    185 H185       -2.0948  -13.8362  -44.8205 H         1 UNK         0.0600 
    186 H186       -3.8519  -12.1200  -44.3431 H         1 UNK         0.0600 
    187 H187       -3.8076  -11.6055  -46.0256 H         1 UNK         0.0600 
    188 H188       -4.3510  -13.2311  -45.6074 H         1 UNK         0.0600 
    189 H189       -2.8072  -13.5629  -47.4014 H         1 UNK         0.3000 
    190 H190       -2.2879  -21.7314  -45.2405 H         1 UNK         0.3000 
    191 H191       -4.7919  -22.8347  -45.9192 H         1 UNK         0.0600 
    192 H192       -4.5289  -20.8943  -44.4202 H         1 UNK         0.0600 
    193 H193       -5.4439  -22.1611  -43.6180 H         1 UNK         0.0600 
    194 H194       -3.7556  -21.9032  -43.1992 H         1 UNK         0.0600 
    195 H195       -2.2142  -24.1343  -43.8143 H         1 UNK         0.3000 
    196 H196       -3.7036  -26.4746  -42.9998 H         1 UNK         0.0600 
    197 H197       -1.4950  -27.2017  -42.0982 H         1 UNK         0.0600 
    198 H198       -1.8729  -25.5532  -41.6197 H         1 UNK         0.0600 
    199 H199       -0.7053  -25.8509  -42.9033 H         1 UNK         0.0600 
    200 H200       -1.0868  -25.9051  -45.4188 H         1 UNK         0.3000 
    201 H201       -0.9440  -28.6798  -46.1336 H         1 UNK         0.0600 
    202 H202        1.0252  -27.1763  -46.1119 H         1 UNK         0.0600 
    203 H203        0.3336  -26.2125  -47.4161 H         1 UNK         0.0600 
    204 H204        0.8052  -27.8828  -47.7055 H         1 UNK         0.0600 
    205 H205       -2.4616  -25.8469  -47.7468 H         1 UNK         0.3000 
    206 H206       -3.4143  -27.6025  -49.9732 H         1 UNK         0.0600 
    207 H207       -1.2748  -26.4610  -50.6157 H         1 UNK         0.0600 
    208 H208       -2.6282  -25.8521  -51.5523 H         1 UNK         0.0600 
    209 H209       -1.9899  -24.8996  -50.2186 H         1 UNK         0.0600 
    210 H210       -4.6112  -26.0398  -47.5100 H         1 UNK         0.3000 
    211 H211       -6.4749  -24.9550  -46.9608 H         1 UNK         0.0600 
    212 H212       -7.5825  -25.8460  -49.6707 H         1 UNK         0.0600 
    213 H213       -8.5156  -25.3892  -48.2527 H         1 UNK         0.0600 
    214 H214       -7.5359  -26.8447  -48.2182 H         1 UNK         0.0600 
    215 H215       -4.3899  -23.4352  -48.2818 H         1 UNK         0.3000 
    216 H216       -3.8617  -21.3843  -48.8705 H         1 UNK         0.0600 
    217 H217       -5.3481  -19.4812  -48.4466 H         1 UNK         0.0600 
    218 H218       -5.4546  -20.6299  -47.1263 H         1 UNK         0.0600 
    219 H219       -6.7428  -20.5361  -48.3284 H         1 UNK         0.0600 
    220 H220       -5.1262  -23.3498  -50.8986 H         1 UNK         0.3000 
    221 H221       -6.0241  -21.5616  -53.0546 H         1 UNK         0.0600 
    222 H222       -5.5992  -24.5982  -53.0181 H         1 UNK         0.0600 
    223 H223       -7.1148  -23.8012  -52.5988 H         1 UNK         0.0600 
    224 H224       -6.4753  -23.6753  -54.2292 H         1 UNK         0.0600 
    225 H225       -5.0953  -21.8828  -55.2122 H         1 UNK         0.3000 
    226 H226       -3.5631  -21.7488  -56.7696 H         1 UNK         0.0600 
    227 H227       -2.9876  -24.1206  -56.0500 H         1 UNK         0.0600 
    228 H228       -1.6653  -23.2769  -56.8274 H         1 UNK         0.0600 
    229 H229       -1.6722  -23.4663  -55.0783 H         1 UNK         0.0600 
    230 H230       -0.7607  -21.5021  -56.7527 H         1 UNK         0.3000 
    231 H231        0.8241  -19.9811  -56.7922 H         1 UNK         0.0600 
    232 H232       -0.0092  -19.3111  -53.9277 H         1 UNK         0.0600 
    233 H233        1.5473  -18.9488  -54.6663 H         1 UNK         0.0600 
    234 H234        1.0695  -20.6144  -54.3977 H         1 UNK         0.0600 
    235 H235        0.0007  -17.4262  -54.8513 H         1 UNK         0.3000 
    236 H236       -0.6531  -15.7139  -57.1633 H         1 UNK         0.0600 
    237 H237        1.2555  -15.1162  -55.6946 H         1 UNK         0.0600 
    238 H238        0.0108  -13.8885  -55.6117 H         1 UNK         0.0600 
    239 H239        0.1989  -15.0472  -54.2910 H         1 UNK         0.0600 
    240 H240       -1.7341  -14.1266  -54.5070 H         1 UNK         0.3000 
    241 H241       -3.6485  -13.4212  -53.7187 H         1 UNK         0.0600 
    242 H242       -6.6774  -13.2919  -55.9840 H         1 UNK         0.3800 
    243 H243       -6.5016  -13.9984  -54.4055 H         1 UNK         0.3800 
    244 H244       -5.4337  -15.0151  -53.0426 H         1 UNK         0.0800 
    245 H245       -4.7507  -16.2597  -54.0525 H         1 UNK         0.0800 
    246 H246       -2.6725  -17.4706  -53.6621 H         1 UNK         0.0800 
    247 H247       -3.6406  -18.2147  -52.4175 H         1 UNK         0.0800 
@<TRIPOS>BOND
     1    1    2 1    
     2    1  127 1    
     3    1  128 1    
     4    1  129 1    
     5    2    3 2    
     6    2    4 am   BACKBONE|DICT|INTERRES
     7    4    5 1    
     8    4  130 1    
     9    5    6 1    
    10    5   65 1    
    11    5  131 1    
    12    6    7 1    
    13    6  132 1    
    14    6  133 1    
    15    7    8 1    
    16    8    9 1    
    17    8  134 1    
    18    8  135 1    
    19    9   10 ar   
    20    9   14 ar   
    21   10   11 ar   
    22   10  136 1    
    23   11   12 ar   
    24   11  126 1    
    25   12   13 ar   
    26   12  137 1    
    27   13   14 ar   
    28   13   15 1    
    29   14  138 1    
    30   15   16 1    
    31   15  139 1    
    32   15  140 1    
    33   16   17 1    
    34   17   18 1    
    35   17  141 1    
    36   17  142 1    
    37   18   19 1    
    38   18   67 1    
    39   18  143 1    
    40   19   20 am   BACKBONE|DICT|INTERRES
    41   19  144 1    
    42   20   21 2    
    43   20   22 1    
    44   22   23 1    
    45   22   24 1    
    46   22  145 1    
    47   23  146 1    
    48   23  147 1    
    49   23  148 1    
    50   24   25 am   BACKBONE|DICT|INTERRES
    51   24  149 1    
    52   25   26 2    
    53   25   27 1    
    54   27   28 1    
    55   27   29 1    
    56   27  150 1    
    57   28  151 1    
    58   28  152 1    
    59   28  153 1    
    60   29   30 am   BACKBONE|DICT|INTERRES
    61   29  154 1    
    62   30   31 2    
    63   30   32 1    
    64   32   33 1    
    65   32   34 1    
    66   32  155 1    
    67   33  156 1    
    68   33  157 1    
    69   33  158 1    
    70   34   35 am   BACKBONE|DICT|INTERRES
    71   34  159 1    
    72   35   36 2    
    73   35   37 1    
    74   37   38 1    
    75   37   39 1    
    76   37  160 1    
    77   38  161 1    
    78   38  162 1    
    79   38  163 1    
    80   39   40 am   BACKBONE|DICT|INTERRES
    81   39  164 1    
    82   40   41 2    
    83   40   42 1    
    84   42   43 1    
    85   42   44 1    
    86   42  165 1    
    87   43  166 1    
    88   43  167 1    
    89   43  168 1    
    90   44   45 am   BACKBONE|DICT|INTERRES
    91   44  169 1    
    92   45   46 2    
    93   45   47 1    
    94   47   48 1    
    95   47   49 1    
    96   47  170 1    
    97   48  171 1    
    98   48  172 1    
    99   48  173 1    
   100   49   50 am   BACKBONE|DICT|INTERRES
   101   49  174 1    
   102   50   51 2    
   103   50   52 1    
   104   52   53 1    
   105   52   54 1    
   106   52  175 1    
   107   53  176 1    
   108   53  177 1    
   109   53  178 1    
   110   54   55 am   BACKBONE|DICT|INTERRES
   111   54  179 1    
   112   55   56 2    
   113   55   57 1    
   114   57   58 1    
   115   57   59 1    
   116   57  180 1    
   117   58  181 1    
   118   58  182 1    
   119   58  183 1    
   120   59   60 am   BACKBONE|DICT|INTERRES
   121   59  184 1    
   122   60   61 2    
   123   60   62 1    
   124   62   63 1    
   125   62   64 1    
   126   62  185 1    
   127   63  186 1    
   128   63  187 1    
   129   63  188 1    
   130   64   65 am   BACKBONE|DICT|INTERRES
   131   64  189 1    
   132   65   66 2    
   133   67   68 2    
   134   67   69 am   BACKBONE|DICT|INTERRES
   135   69   70 1    
   136   69  190 1    
   137   70   71 1    
   138   70   72 1    
   139   70  191 1    
   140   71  192 1    
   141   71  193 1    
   142   71  194 1    
   143   72   73 2    
   144   72   74 am   BACKBONE|DICT|INTERRES
   145   74   75 1    
   146   74  195 1    
   147   75   76 1    
   148   75   77 1    
   149   75  196 1    
   150   76  197 1    
   151   76  198 1    
   152   76  199 1    
   153   77   78 2    
   154   77   79 am   BACKBONE|DICT|INTERRES
   155   79   80 1    
   156   79  200 1    
   157   80   81 1    
   158   80   82 1    
   159   80  201 1    
   160   81  202 1    
   161   81  203 1    
   162   81  204 1    
   163   82   83 2    
   164   82   84 am   BACKBONE|DICT|INTERRES
   165   84   85 1    
   166   84  205 1    
   167   85   86 1    
   168   85   87 1    
   169   85  206 1    
   170   86  207 1    
   171   86  208 1    
   172   86  209 1    
   173   87   88 2    
   174   87   89 am   BACKBONE|DICT|INTERRES
   175   89   90 1    
   176   89  210 1    
   177   90   91 1    
   178   90   92 1    
   179   90  211 1    
   180   91  212 1    
   181   91  213 1    
   182   91  214 1    
   183   92   93 2    
   184   92   94 am   BACKBONE|DICT|INTERRES
   185   94   95 1    
   186   94  215 1    
   187   95   96 1    
   188   95   97 1    
   189   95  216 1    
   190   96  217 1    
   191   96  218 1    
   192   96  219 1    
   193   97   98 2    
   194   97   99 am   BACKBONE|DICT|INTERRES
   195   99  100 1    
   196   99  220 1    
   197  100  101 1    
   198  100  102 1    
   199  100  221 1    
   200  101  222 1    
   201  101  223 1    
   202  101  224 1    
   203  102  103 2    
   204  102  104 am   BACKBONE|DICT|INTERRES
   205  104  105 1    
   206  104  225 1    
   207  105  106 1    
   208  105  107 1    
   209  105  226 1    
   210  106  227 1    
   211  106  228 1    
   212  106  229 1    
   213  107  108 2    
   214  107  109 am   BACKBONE|DICT|INTERRES
   215  109  110 1    
   216  109  230 1    
   217  110  111 1    
   218  110  112 1    
   219  110  231 1    
   220  111  232 1    
   221  111  233 1    
   222  111  234 1    
   223  112  113 2    
   224  112  114 am   BACKBONE|DICT|INTERRES
   225  114  115 1    
   226  114  235 1    
   227  115  116 1    
   228  115  117 1    
   229  115  236 1    
   230  116  237 1    
   231  116  238 1    
   232  116  239 1    
   233  117  118 2    
   234  117  119 am   BACKBONE|DICT|INTERRES
   235  119  120 1    
   236  119  240 1    
   237  120  121 1    
   238  120  124 1    
   239  120  241 1    
   240  121  122 am   BACKBONE|DICT|INTERRES
   241  121  123 2    
   242  122  242 1    
   243  122  243 1    
   244  124  125 1    
   245  124  244 1    
   246  124  245 1    
   247  125  126 1    
   248  126  246 1    
   249  126  247 1    
@<TRIPOS>SUBSTRUCTURE
     1 UNK         1 GROUP             0       ****    0 ROOT    
