@<TRIPOS>MOLECULE
3R540
247   249    1
SMALL
USER_CHARGES


@<TRIPOS>ATOM
      1 CA          4.1365  -16.7092  -47.1609 C.3       0 UNK        -0.1800 
      2 C           3.0822  -15.7347  -47.6662 C.2       0 UNK         0.5000 
      3 O           3.4015  -14.8370  -48.4446 O.2       0 UNK        -0.5000 
      4 N           1.8288  -15.9203  -47.2292 N.am      1 UNK        -0.5000 
      5 CA          0.6550  -15.1151  -47.5980 C.3       1 UNK         0.1400 
      6 C6          0.3152  -15.2150  -49.1120 C.3       23 UNK        -0.0398 
      7 S7         -1.4658  -15.0285  -49.4611 S.3       23 UNK        -0.2404 
      8 C8         -2.0462  -16.7410  -49.2612 C.3       23 UNK        -0.0205 
      9 C9         -3.4912  -16.8861  -49.7125 C.ar      23 UNK        -0.0193 
     10 C10        -3.7842  -17.4564  -50.9540 C.ar      23 UNK        -0.1150 
     11 C11        -5.1054  -17.5959  -51.3897 C.ar      23 UNK        -0.0193 
     12 C12        -6.1396  -17.1366  -50.5633 C.ar      23 UNK        -0.1150 
     13 C13        -5.8633  -16.5561  -49.3221 C.ar      23 UNK        -0.0193 
     14 C14        -4.5358  -16.4404  -48.8981 C.ar      23 UNK        -0.1150 
     15 C15        -7.0027  -16.0167  -48.4662 C.3       23 UNK        -0.0205 
     16 S16        -7.1358  -16.8371  -46.8463 S.3       23 UNK        -0.2404 
     17 C17        -7.4009  -18.5842  -47.3126 C.3       23 UNK        -0.0398 
     18 CA         -6.1205  -19.4378  -47.1395 C.3       11 UNK         0.1400 
     19 N          -5.5437  -19.2903  -45.7940 N.am      11 UNK        -0.5000 
     20 C          -4.3486  -19.7492  -45.4104 C.2       10 UNK         0.5000 
     21 O          -3.6786  -20.5395  -46.0755 O.2       10 UNK        -0.5000 
     22 CA         -3.8192  -19.2626  -44.0501 C.3       10 UNK         0.1400 
     23 CB         -4.0918  -20.3161  -42.9669 C.3       10 UNK        -0.1800 
     24 N          -2.3819  -18.9929  -44.1101 N.am      10 UNK        -0.5000 
     25 C          -1.8162  -18.0605  -44.8933 C.2       9 UNK         0.5000 
     26 O          -2.4608  -17.2359  -45.5422 O.2       9 UNK        -0.5000 
     27 CA         -0.2769  -18.0218  -44.9794 C.3       9 UNK         0.1400 
     28 CB          0.2662  -16.8088  -44.2093 C.3       9 UNK        -0.1800 
     29 N           0.3900  -19.2277  -44.4887 N.am      9 UNK        -0.5000 
     30 C           0.3101  -20.4418  -45.0539 C.2       8 UNK         0.5000 
     31 O          -0.2559  -20.6505  -46.1255 O.2       8 UNK        -0.5000 
     32 CA          0.9474  -21.6291  -44.2991 C.3       8 UNK         0.1400 
     33 CB          2.2639  -22.0424  -44.9737 C.3       8 UNK        -0.1800 
     34 N           1.1987  -21.3721  -42.8788 N.am      8 UNK        -0.5000 
     35 C           0.2678  -21.0641  -41.9636 C.2       7 UNK         0.5000 
     36 O          -0.9405  -21.0669  -42.1995 O.2       7 UNK        -0.5000 
     37 CA          0.7647  -20.6159  -40.5721 C.3       7 UNK         0.1400 
     38 CB          0.5917  -21.7530  -39.5535 C.3       7 UNK        -0.1800 
     39 N           2.1546  -20.1386  -40.5190 N.am      7 UNK        -0.5000 
     40 C           2.6858  -19.1482  -41.2512 C.2       6 UNK         0.5000 
     41 O           2.0693  -18.5506  -42.1367 O.2       6 UNK        -0.5000 
     42 CA          4.1711  -18.8296  -40.9784 C.3       6 UNK         0.1400 
     43 CB          5.0650  -19.9968  -41.4320 C.3       6 UNK        -0.1800 
     44 N           4.6289  -17.6163  -41.6571 N.am      6 UNK        -0.5000 
     45 C           4.2378  -16.3683  -41.3715 C.2       5 UNK         0.5000 
     46 O           3.4893  -16.0830  -40.4326 O.2       5 UNK        -0.5000 
     47 CA          4.7943  -15.2713  -42.3018 C.3       5 UNK         0.1400 
     48 CB          4.3398  -15.4817  -43.7569 C.3       5 UNK        -0.1800 
     49 N           4.3897  -13.9331  -41.8733 N.am      5 UNK        -0.5000 
     50 C           5.0298  -13.2056  -40.9472 C.2       4 UNK         0.5000 
     51 O           6.0509  -13.5877  -40.3725 O.2       4 UNK        -0.5000 
     52 CA          4.4699  -11.8053  -40.6196 C.3       4 UNK         0.1400 
     53 CB          5.4004  -10.7141  -41.1737 C.3       4 UNK        -0.1800 
     54 N           3.1258  -11.5788  -41.1516 N.am      4 UNK        -0.5000 
     55 C           1.9895  -11.9796  -40.5662 C.2       3 UNK         0.5000 
     56 O           1.9448  -12.5439  -39.4728 O.2       3 UNK        -0.5000 
     57 CA          0.6804  -11.7082  -41.3371 C.3       3 UNK         0.1400 
     58 CB          0.0039  -10.4315  -40.8135 C.3       3 UNK        -0.1800 
     59 N           0.8574  -11.5928  -42.7903 N.am      3 UNK        -0.5000 
     60 C           1.2432  -12.5971  -43.5870 C.2       2 UNK         0.5000 
     61 O           1.5294  -13.7234  -43.1748 O.2       2 UNK        -0.5000 
     62 CA          1.3739  -12.2842  -45.0823 C.3       2 UNK         0.1400 
     63 CB          2.7393  -11.6454  -45.3902 C.3       2 UNK        -0.1800 
     64 N           1.2418  -13.5336  -45.8215 N.am      2 UNK        -0.5000 
     65 C           0.7516  -13.6657  -47.0594 C.2       1 UNK         0.5000 
     66 O           0.3941  -12.7096  -47.7496 O.2       1 UNK        -0.5000 
     67 C          -6.3752  -20.8985  -47.5735 C.2       11 UNK         0.5000 
     68 O          -6.4543  -21.1614  -48.7721 O.2       11 UNK        -0.5000 
     69 N          -6.4799  -21.8213  -46.6067 N.am      12 UNK        -0.5000 
     70 CA         -6.5815  -23.2618  -46.8464 C.3       12 UNK         0.1400 
     71 CB         -7.1054  -23.9425  -45.5725 C.3       12 UNK        -0.1800 
     72 C          -5.2449  -23.8965  -47.2843 C.2       12 UNK         0.5000 
     73 O          -5.2614  -24.8949  -48.0049 O.2       12 UNK        -0.5000 
     74 N          -4.1209  -23.3189  -46.8388 N.am      13 UNK        -0.5000 
     75 CA         -2.7646  -23.7341  -47.1995 C.3       13 UNK         0.1400 
     76 CB         -1.8623  -23.6263  -45.9627 C.3       13 UNK        -0.1800 
     77 C          -2.2151  -22.8885  -48.3608 C.2       13 UNK         0.5000 
     78 O          -1.4955  -23.4193  -49.2072 O.2       13 UNK        -0.5000 
     79 N          -2.5852  -21.5993  -48.3909 N.am      14 UNK        -0.5000 
     80 CA         -2.3927  -20.6318  -49.4745 C.3       14 UNK         0.1400 
     81 CB         -3.3012  -21.0122  -50.6544 C.3       14 UNK        -0.1800 
     82 C          -0.9211  -20.4459  -49.8978 C.2       14 UNK         0.5000 
     83 O          -0.6310  -20.2841  -51.0857 O.2       14 UNK        -0.5000 
     84 N          -0.0144  -20.5173  -48.9118 N.am      15 UNK        -0.5000 
     85 CA          1.4463  -20.4808  -49.0341 C.3       15 UNK         0.1400 
     86 CB          1.9107  -19.0709  -49.4499 C.3       15 UNK        -0.1800 
     87 C           2.0222  -21.5917  -49.9407 C.2       15 UNK         0.5000 
     88 O           3.1095  -21.4214  -50.4943 O.2       15 UNK        -0.5000 
     89 N           1.2684  -22.6905  -50.1103 N.am      16 UNK        -0.5000 
     90 CA          1.4727  -23.8350  -51.0074 C.3       16 UNK         0.1400 
     91 CB          2.7801  -24.5823  -50.6853 C.3       16 UNK        -0.1800 
     92 C           1.3792  -23.4909  -52.5087 C.2       16 UNK         0.5000 
     93 O           0.7770  -24.2517  -53.2656 O.2       16 UNK        -0.5000 
     94 N           1.9564  -22.3552  -52.9169 N.am      17 UNK        -0.5000 
     95 CA          2.0368  -21.8729  -54.2947 C.3       17 UNK         0.1400 
     96 CB          2.9162  -20.6138  -54.3286 C.3       17 UNK        -0.1800 
     97 C           0.6712  -21.5911  -54.9476 C.2       17 UNK         0.5000 
     98 O           0.5228  -21.8279  -56.1471 O.2       17 UNK        -0.5000 
     99 N          -0.2967  -21.1046  -54.1588 N.am      18 UNK        -0.5000 
    100 CA        -1.6445  -20.7651  -54.6210 C.3       18 UNK         0.1400 
    101 CB        -1.9743  -19.3287  -54.1885 C.3       18 UNK        -0.1800 
    102 C         -2.7016  -21.7773  -54.1393 C.2       18 UNK         0.5000 
    103 O         -3.8987  -21.5150  -54.2754 O.2       18 UNK        -0.5000 
    104 N         -2.2663  -22.9353  -53.6172 N.am      19 UNK        -0.5000 
    105 CA        -3.1412  -24.0221  -53.1604 C.3       19 UNK         0.1400 
    106 CB        -2.3091  -25.0794  -52.4231 C.3       19 UNK        -0.1800 
    107 C         -3.9536  -24.6680  -54.2977 C.2       19 UNK         0.5000 
    108 O         -5.0433  -25.1810  -54.0483 O.2       19 UNK        -0.5000 
    109 N         -3.4423  -24.5833  -55.5331 N.am      20 UNK        -0.5000 
    110 CA        -4.1434  -24.9853  -56.7528 C.3       20 UNK         0.1400 
    111 CB        -3.1504  -24.9642  -57.9248 C.3       20 UNK        -0.1800 
    112 C         -5.3716  -24.1058  -57.0701 C.2       20 UNK         0.5000 
    113 O         -6.2806  -24.5738  -57.7567 O.2       20 UNK        -0.5000 
    114 N         -5.3791  -22.8607  -56.5726 N.am      21 UNK        -0.5000 
    115 CA        -6.4789  -21.9137  -56.7258 C.3       21 UNK         0.1400 
    116 CB        -5.9129  -20.5008  -56.9512 C.3       21 UNK        -0.1800 
    117 C         -7.4069  -21.9455  -55.5015 C.2       21 UNK         0.5000 
    118 O         -8.6163  -22.1118  -55.6678 O.2       21 UNK        -0.5000 
    119 N         -6.8324  -21.7694  -54.3042 N.am      22 UNK        -0.5000 
    120 CA        -7.5861  -21.5768  -53.0508 C.3       22 UNK         0.1400 
    121 C         -7.8048  -22.8664  -52.2102 C.2       22 UNK         0.5000 
    122 N         -7.2280  -24.0096  -52.5544 N.am      22 UNK        -0.7600 
    123 O         -8.5496  -22.8405  -51.2344 O.2       22 UNK        -0.5000 
    124 C124       -6.9851  -20.4348  -52.1925 C.3       23 UNK        -0.0398 
    125 S125       -7.0429  -18.8325  -53.0667 S.3       23 UNK        -0.2404 
    126 C126       -5.3604  -18.1869  -52.7787 C.3       23 UNK        -0.0205 
    127 H127        4.5237  -17.3029  -47.9889 H         1 UNK         0.0600 
    128 H128        3.7348  -17.3916  -46.4113 H         1 UNK         0.0600 
    129 H129        4.9683  -16.1640  -46.7150 H         1 UNK         0.0600 
    130 H130        1.6531  -16.6809  -46.5911 H         1 UNK         0.3000 
    131 H131       -0.1720  -15.5678  -47.0495 H         1 UNK         0.0600 
    132 H132        0.8711  -14.4745  -49.6896 H         1 UNK         0.0800 
    133 H133        0.6309  -16.1797  -49.5095 H         1 UNK         0.0800 
    134 H134       -1.9546  -17.0409  -48.2166 H         1 UNK         0.0800 
    135 H135       -1.4034  -17.4101  -49.8351 H         1 UNK         0.0800 
    136 H136       -2.9747  -17.7822  -51.5906 H         1 UNK         0.1150 
    137 H137       -7.1666  -17.2056  -50.8898 H         1 UNK         0.1150 
    138 H138       -4.3142  -15.9904  -47.9401 H         1 UNK         0.1150 
    139 H139       -6.8449  -14.9494  -48.3056 H         1 UNK         0.0800 
    140 H140       -7.9581  -16.1075  -48.9855 H         1 UNK         0.0800 
    141 H141       -7.7608  -18.6320  -48.3422 H         1 UNK         0.0800 
    142 H142       -8.2069  -18.9779  -46.6910 H         1 UNK         0.0800 
    143 H143       -5.3727  -19.0522  -47.8356 H         1 UNK         0.0600 
    144 H144       -6.0360  -18.6508  -45.1865 H         1 UNK         0.3000 
    145 H145       -4.3274  -18.3353  -43.7781 H         1 UNK         0.0600 
    146 H146       -3.7325  -19.9830  -41.9930 H         1 UNK         0.0600 
    147 H147       -5.1602  -20.5127  -42.8703 H         1 UNK         0.0600 
    148 H148       -3.6019  -21.2636  -43.1968 H         1 UNK         0.0600 
    149 H149       -1.7832  -19.6452  -43.6184 H         1 UNK         0.3000 
    150 H150       -0.0226  -17.9097  -46.0347 H         1 UNK         0.0600 
    151 H151       -0.1797  -15.8786  -44.5624 H         1 UNK         0.0600 
    152 H152        1.3455  -16.7224  -44.3217 H         1 UNK         0.0600 
    153 H153        0.0517  -16.8845  -43.1425 H         1 UNK         0.0600 
    154 H154        0.9078  -19.1266  -43.6199 H         1 UNK         0.3000 
    155 H155        0.2518  -22.4668  -44.3603 H         1 UNK         0.0600 
    156 H156        3.0042  -21.2422  -44.9343 H         1 UNK         0.0600 
    157 H157        2.1038  -22.2921  -46.0235 H         1 UNK         0.0600 
    158 H158        2.6936  -22.9228  -44.4955 H         1 UNK         0.0600 
    159 H159        2.1656  -21.3316  -42.5941 H         1 UNK         0.3000 
    160 H160        0.1283  -19.7838  -40.2647 H         1 UNK         0.0600 
    161 H161        1.2350  -22.6022  -39.7872 H         1 UNK         0.0600 
    162 H162       -0.4375  -22.1147  -39.5403 H         1 UNK         0.0600 
    163 H163        0.8282  -21.4187  -38.5432 H         1 UNK         0.0600 
    164 H164        2.7417  -20.5894  -39.8320 H         1 UNK         0.3000 
    165 H165        4.2943  -18.6866  -39.9029 H         1 UNK         0.0600 
    166 H166        6.1161  -19.7896  -41.2298 H         1 UNK         0.0600 
    167 H167        4.8162  -20.9192  -40.9061 H         1 UNK         0.0600 
    168 H168        4.9619  -20.1905  -42.5007 H         1 UNK         0.0600 
    169 H169        5.2269  -17.7610  -42.4567 H         1 UNK         0.3000 
    170 H170        5.8842  -15.3369  -42.2782 H         1 UNK         0.0600 
    171 H171        3.2556  -15.5328  -43.8347 H         1 UNK         0.0600 
    172 H172        4.6845  -14.6731  -44.4019 H         1 UNK         0.0600 
    173 H173        4.7389  -16.4105  -44.1647 H         1 UNK         0.0600 
    174 H174        3.5032  -13.6019  -42.2322 H         1 UNK         0.3000 
    175 H175        4.4442  -11.7095  -39.5321 H         1 UNK         0.0600 
    176 H176        5.4717  -10.7600  -42.2611 H         1 UNK         0.0600 
    177 H177        5.0477   -9.7191  -40.9012 H         1 UNK         0.0600 
    178 H178        6.4099  -10.8193  -40.7739 H         1 UNK         0.0600 
    179 H179        3.0648  -11.1125  -42.0444 H         1 UNK         0.3000 
    180 H180        0.0120  -12.5509  -41.1468 H         1 UNK         0.0600 
    181 H181       -0.9642  -10.2735  -41.2894 H         1 UNK         0.0600 
    182 H182        0.6172   -9.5479  -40.9951 H         1 UNK         0.0600 
    183 H183       -0.1712  -10.4943  -39.7385 H         1 UNK         0.0600 
    184 H184        0.6510  -10.6915  -43.1975 H         1 UNK         0.3000 
    185 H185        0.5710  -11.5997  -45.3650 H         1 UNK         0.0600 
    186 H186        3.5630  -12.3013  -45.1039 H         1 UNK         0.0600 
    187 H187        2.8418  -11.4277  -46.4535 H         1 UNK         0.0600 
    188 H188        2.8642  -10.7042  -44.8536 H         1 UNK         0.0600 
    189 H189        1.4894  -14.3545  -45.2849 H         1 UNK         0.3000 
    190 H190       -6.4132  -21.5201  -45.6458 H         1 UNK         0.3000 
    191 H191       -7.3064  -23.4308  -47.6460 H         1 UNK         0.0600 
    192 H192       -7.2179  -25.0171  -45.7224 H         1 UNK         0.0600 
    193 H193       -8.0827  -23.5511  -45.2893 H         1 UNK         0.0600 
    194 H194       -6.4276  -23.7978  -44.7302 H         1 UNK         0.0600 
    195 H195       -4.1923  -22.4585  -46.3080 H         1 UNK         0.3000 
    196 H196       -2.7633  -24.7767  -47.5241 H         1 UNK         0.0600 
    197 H197       -1.9150  -22.6336  -45.5160 H         1 UNK         0.0600 
    198 H198       -2.1565  -24.3472  -45.2000 H         1 UNK         0.0600 
    199 H199       -0.8201  -23.8246  -46.2165 H         1 UNK         0.0600 
    200 H200       -3.0720  -21.2358  -47.5728 H         1 UNK         0.3000 
    201 H201       -2.7287  -19.6704  -49.0863 H         1 UNK         0.0600 
    202 H202       -3.2808  -20.2578  -51.4376 H         1 UNK         0.0600 
    203 H203       -4.3347  -21.1200  -50.3320 H         1 UNK         0.0600 
    204 H204       -2.9897  -21.9563  -51.0954 H         1 UNK         0.0600 
    205 H205       -0.3514  -20.6581  -47.9601 H         1 UNK         0.3000 
    206 H206        1.8400  -20.6758  -48.0361 H         1 UNK         0.0600 
    207 H207        2.9971  -18.9851  -49.4117 H         1 UNK         0.0600 
    208 H208        1.5034  -18.3170  -48.7782 H         1 UNK         0.0600 
    209 H209        1.5970  -18.8230  -50.4643 H         1 UNK         0.0600 
    210 H210        0.3671  -22.7039  -49.6424 H         1 UNK         0.3000 
    211 H211        0.6486  -24.5178  -50.7951 H         1 UNK         0.0600 
    212 H212        2.8588  -25.4955  -51.2765 H         1 UNK         0.0600 
    213 H213        2.8204  -24.8706  -49.6349 H         1 UNK         0.0600 
    214 H214        3.6620  -23.9795  -50.9028 H         1 UNK         0.0600 
    215 H215        2.4417  -21.8094  -52.2103 H         1 UNK         0.3000 
    216 H216        2.5281  -22.6488  -54.8852 H         1 UNK         0.0600 
    217 H217        2.4945  -19.8137  -53.7185 H         1 UNK         0.0600 
    218 H218        3.0185  -20.2338  -55.3460 H         1 UNK         0.0600 
    219 H219        3.9199  -20.8237  -53.9581 H         1 UNK         0.0600 
    220 H220       -0.1078  -20.9435  -53.1751 H         1 UNK         0.3000 
    221 H221       -1.6891  -20.7859  -55.7114 H         1 UNK         0.0600 
    222 H222       -1.2288  -18.6267  -54.5620 H         1 UNK         0.0600 
    223 H223       -2.0055  -19.2322  -53.1053 H         1 UNK         0.0600 
    224 H224       -2.9388  -19.0107  -54.5849 H         1 UNK         0.0600 
    225 H225       -1.2697  -23.0978  -53.5568 H         1 UNK         0.3000 
    226 H226       -3.8606  -23.6031  -52.4545 H         1 UNK         0.0600 
    227 H227       -1.5932  -25.5640  -53.0877 H         1 UNK         0.0600 
    228 H228       -1.7556  -24.6378  -51.5953 H         1 UNK         0.0600 
    229 H229       -2.9492  -25.8579  -52.0061 H         1 UNK         0.0600 
    230 H230       -2.5355  -24.1555  -55.6483 H         1 UNK         0.3000 
    231 H231       -4.4969  -26.0099  -56.6198 H         1 UNK         0.0600 
    232 H232       -2.7481  -23.9645  -58.0934 H         1 UNK         0.0600 
    233 H233       -3.6309  -25.2851  -58.8500 H         1 UNK         0.0600 
    234 H234       -2.3126  -25.6382  -57.7449 H         1 UNK         0.0600 
    235 H235       -4.6195  -22.5678  -55.9718 H         1 UNK         0.3000 
    236 H236       -7.0739  -22.1710  -57.6048 H         1 UNK         0.0600 
    237 H237       -5.3018  -20.1629  -56.1138 H         1 UNK         0.0600 
    238 H238       -5.2966  -20.4640  -57.8495 H         1 UNK         0.0600 
    239 H239       -6.7180  -19.7763  -57.0793 H         1 UNK         0.0600 
    240 H240       -5.8259  -21.6433  -54.2496 H         1 UNK         0.3000 
    241 H241       -8.5973  -21.2552  -53.3076 H         1 UNK         0.0600 
    242 H242       -7.4049  -24.8280  -51.9951 H         1 UNK         0.3800 
    243 H243       -6.6027  -24.0868  -53.3465 H         1 UNK         0.3800 
    244 H244       -5.9585  -20.6752  -51.9184 H         1 UNK         0.0800 
    245 H245       -7.5322  -20.3167  -51.2554 H         1 UNK         0.0800 
    246 H246       -4.6488  -18.9873  -52.9798 H         1 UNK         0.0800 
    247 H247       -5.1642  -17.4090  -53.5173 H         1 UNK         0.0800 
@<TRIPOS>BOND
     1    1    2 1    
     2    1  127 1    
     3    1  128 1    
     4    1  129 1    
     5    2    3 2    
     6    2    4 am   BACKBONE|DICT|INTERRES
     7    4    5 1    
     8    4  130 1    
     9    5    6 1    
    10    5   65 1    
    11    5  131 1    
    12    6    7 1    
    13    6  132 1    
    14    6  133 1    
    15    7    8 1    
    16    8    9 1    
    17    8  134 1    
    18    8  135 1    
    19    9   10 ar   
    20    9   14 ar   
    21   10   11 ar   
    22   10  136 1    
    23   11   12 ar   
    24   11  126 1    
    25   12   13 ar   
    26   12  137 1    
    27   13   14 ar   
    28   13   15 1    
    29   14  138 1    
    30   15   16 1    
    31   15  139 1    
    32   15  140 1    
    33   16   17 1    
    34   17   18 1    
    35   17  141 1    
    36   17  142 1    
    37   18   19 1    
    38   18   67 1    
    39   18  143 1    
    40   19   20 am   BACKBONE|DICT|INTERRES
    41   19  144 1    
    42   20   21 2    
    43   20   22 1    
    44   22   23 1    
    45   22   24 1    
    46   22  145 1    
    47   23  146 1    
    48   23  147 1    
    49   23  148 1    
    50   24   25 am   BACKBONE|DICT|INTERRES
    51   24  149 1    
    52   25   26 2    
    53   25   27 1    
    54   27   28 1    
    55   27   29 1    
    56   27  150 1    
    57   28  151 1    
    58   28  152 1    
    59   28  153 1    
    60   29   30 am   BACKBONE|DICT|INTERRES
    61   29  154 1    
    62   30   31 2    
    63   30   32 1    
    64   32   33 1    
    65   32   34 1    
    66   32  155 1    
    67   33  156 1    
    68   33  157 1    
    69   33  158 1    
    70   34   35 am   BACKBONE|DICT|INTERRES
    71   34  159 1    
    72   35   36 2    
    73   35   37 1    
    74   37   38 1    
    75   37   39 1    
    76   37  160 1    
    77   38  161 1    
    78   38  162 1    
    79   38  163 1    
    80   39   40 am   BACKBONE|DICT|INTERRES
    81   39  164 1    
    82   40   41 2    
    83   40   42 1    
    84   42   43 1    
    85   42   44 1    
    86   42  165 1    
    87   43  166 1    
    88   43  167 1    
    89   43  168 1    
    90   44   45 am   BACKBONE|DICT|INTERRES
    91   44  169 1    
    92   45   46 2    
    93   45   47 1    
    94   47   48 1    
    95   47   49 1    
    96   47  170 1    
    97   48  171 1    
    98   48  172 1    
    99   48  173 1    
   100   49   50 am   BACKBONE|DICT|INTERRES
   101   49  174 1    
   102   50   51 2    
   103   50   52 1    
   104   52   53 1    
   105   52   54 1    
   106   52  175 1    
   107   53  176 1    
   108   53  177 1    
   109   53  178 1    
   110   54   55 am   BACKBONE|DICT|INTERRES
   111   54  179 1    
   112   55   56 2    
   113   55   57 1    
   114   57   58 1    
   115   57   59 1    
   116   57  180 1    
   117   58  181 1    
   118   58  182 1    
   119   58  183 1    
   120   59   60 am   BACKBONE|DICT|INTERRES
   121   59  184 1    
   122   60   61 2    
   123   60   62 1    
   124   62   63 1    
   125   62   64 1    
   126   62  185 1    
   127   63  186 1    
   128   63  187 1    
   129   63  188 1    
   130   64   65 am   BACKBONE|DICT|INTERRES
   131   64  189 1    
   132   65   66 2    
   133   67   68 2    
   134   67   69 am   BACKBONE|DICT|INTERRES
   135   69   70 1    
   136   69  190 1    
   137   70   71 1    
   138   70   72 1    
   139   70  191 1    
   140   71  192 1    
   141   71  193 1    
   142   71  194 1    
   143   72   73 2    
   144   72   74 am   BACKBONE|DICT|INTERRES
   145   74   75 1    
   146   74  195 1    
   147   75   76 1    
   148   75   77 1    
   149   75  196 1    
   150   76  197 1    
   151   76  198 1    
   152   76  199 1    
   153   77   78 2    
   154   77   79 am   BACKBONE|DICT|INTERRES
   155   79   80 1    
   156   79  200 1    
   157   80   81 1    
   158   80   82 1    
   159   80  201 1    
   160   81  202 1    
   161   81  203 1    
   162   81  204 1    
   163   82   83 2    
   164   82   84 am   BACKBONE|DICT|INTERRES
   165   84   85 1    
   166   84  205 1    
   167   85   86 1    
   168   85   87 1    
   169   85  206 1    
   170   86  207 1    
   171   86  208 1    
   172   86  209 1    
   173   87   88 2    
   174   87   89 am   BACKBONE|DICT|INTERRES
   175   89   90 1    
   176   89  210 1    
   177   90   91 1    
   178   90   92 1    
   179   90  211 1    
   180   91  212 1    
   181   91  213 1    
   182   91  214 1    
   183   92   93 2    
   184   92   94 am   BACKBONE|DICT|INTERRES
   185   94   95 1    
   186   94  215 1    
   187   95   96 1    
   188   95   97 1    
   189   95  216 1    
   190   96  217 1    
   191   96  218 1    
   192   96  219 1    
   193   97   98 2    
   194   97   99 am   BACKBONE|DICT|INTERRES
   195   99  100 1    
   196   99  220 1    
   197  100  101 1    
   198  100  102 1    
   199  100  221 1    
   200  101  222 1    
   201  101  223 1    
   202  101  224 1    
   203  102  103 2    
   204  102  104 am   BACKBONE|DICT|INTERRES
   205  104  105 1    
   206  104  225 1    
   207  105  106 1    
   208  105  107 1    
   209  105  226 1    
   210  106  227 1    
   211  106  228 1    
   212  106  229 1    
   213  107  108 2    
   214  107  109 am   BACKBONE|DICT|INTERRES
   215  109  110 1    
   216  109  230 1    
   217  110  111 1    
   218  110  112 1    
   219  110  231 1    
   220  111  232 1    
   221  111  233 1    
   222  111  234 1    
   223  112  113 2    
   224  112  114 am   BACKBONE|DICT|INTERRES
   225  114  115 1    
   226  114  235 1    
   227  115  116 1    
   228  115  117 1    
   229  115  236 1    
   230  116  237 1    
   231  116  238 1    
   232  116  239 1    
   233  117  118 2    
   234  117  119 am   BACKBONE|DICT|INTERRES
   235  119  120 1    
   236  119  240 1    
   237  120  121 1    
   238  120  124 1    
   239  120  241 1    
   240  121  122 am   BACKBONE|DICT|INTERRES
   241  121  123 2    
   242  122  242 1    
   243  122  243 1    
   244  124  125 1    
   245  124  244 1    
   246  124  245 1    
   247  125  126 1    
   248  126  246 1    
   249  126  247 1    
@<TRIPOS>SUBSTRUCTURE
     1 UNK         1 GROUP             0       ****    0 ROOT    
