@<TRIPOS>MOLECULE
3R540
247   249    1
SMALL
USER_CHARGES


@<TRIPOS>ATOM
      1 CA         -1.7551  -13.4099  -42.0583 C.3       0 UNK        -0.1800 
      2 C          -1.9916  -13.3584  -43.5606 C.2       0 UNK         0.5000 
      3 O          -3.0292  -12.8631  -44.0011 O.2       0 UNK        -0.5000 
      4 N          -1.0376  -13.8668  -44.3504 N.am      1 UNK        -0.5000 
      5 CA         -1.1012  -13.9781  -45.8120 C.3       1 UNK         0.1400 
      6 C6         -0.1435  -15.0886  -46.3094 C.3       23 UNK        -0.0398 
      7 S7         -0.7432  -15.9330  -47.8077 S.3       23 UNK        -0.2404 
      8 C8          0.6643  -15.6951  -48.9340 C.3       23 UNK        -0.0205 
      9 C9          0.6238  -16.7091  -50.0648 C.ar      23 UNK        -0.0193 
     10 C10         0.0822  -16.3683  -51.3066 C.ar      23 UNK        -0.1150 
     11 C11         0.0324  -17.3102  -52.3383 C.ar      23 UNK        -0.0193 
     12 C12         0.5188  -18.6023  -52.1168 C.ar      23 UNK        -0.1150 
     13 C13         1.0591  -18.9592  -50.8776 C.ar      23 UNK        -0.0193 
     14 C14         1.1231  -17.9988  -49.8618 C.ar      23 UNK        -0.1150 
     15 C15         1.5722  -20.3812  -50.6569 C.3       23 UNK        -0.0205 
     16 S16         1.0888  -21.1048  -49.0511 S.3       23 UNK        -0.2404 
     17 C17        -0.7180  -20.8604  -49.0847 C.3       23 UNK        -0.0398 
     18 CA         -1.4739  -21.8595  -48.1808 C.3       11 UNK         0.1400 
     19 N          -1.1297  -21.7239  -46.7607 N.am      11 UNK        -0.5000 
     20 C          -1.5833  -22.5280  -45.7847 C.2       10 UNK         0.5000 
     21 O          -2.2949  -23.5110  -45.9964 O.2       10 UNK        -0.5000 
     22 CA         -1.2516  -22.1483  -44.3263 C.3       10 UNK         0.1400 
     23 CB         -0.0340  -22.9418  -43.8318 C.3       10 UNK        -0.1800 
     24 N          -0.9996  -20.7202  -44.1272 N.am      10 UNK        -0.5000 
     25 C          -1.8463  -19.7230  -44.4243 C.2       9 UNK         0.5000 
     26 O          -3.0022  -19.9055  -44.8050 O.2       9 UNK        -0.5000 
     27 CA         -1.2919  -18.2854  -44.3571 C.3       9 UNK         0.1400 
     28 CB         -1.8445  -17.5368  -43.1359 C.3       9 UNK        -0.1800 
     29 N           0.1735  -18.2097  -44.3535 N.am      9 UNK        -0.5000 
     30 C           0.9703  -18.6249  -45.3509 C.2       8 UNK         0.5000 
     31 O           0.5456  -19.1586  -46.3739 O.2       8 UNK        -0.5000 
     32 CA          2.4879  -18.4452  -45.1677 C.3       8 UNK         0.1400 
     33 CB          2.9919  -17.2357  -45.9663 C.3       8 UNK        -0.1800 
     34 N           2.8734  -18.2822  -43.7658 N.am      8 UNK        -0.5000 
     35 C           2.9730  -19.2863  -42.8836 C.2       7 UNK         0.5000 
     36 O           2.7535  -20.4655  -43.1610 O.2       7 UNK        -0.5000 
     37 CA          3.3603  -18.8978  -41.4442 C.3       7 UNK         0.1400 
     38 CB          4.8879  -18.8404  -41.2928 C.3       7 UNK        -0.1800 
     39 N           2.7863  -17.6126  -41.0385 N.am      7 UNK        -0.5000 
     40 C           1.4825  -17.4122  -40.8013 C.2       6 UNK         0.5000 
     41 O           0.6382  -18.3054  -40.8508 O.2       6 UNK        -0.5000 
     42 CA          1.0412  -15.9709  -40.4858 C.3       6 UNK         0.1400 
     43 CB          1.0139  -15.7323  -38.9693 C.3       6 UNK        -0.1800 
     44 N           1.8812  -14.9496  -41.1177 N.am      6 UNK        -0.5000 
     45 C           1.9451  -14.7235  -42.4347 C.2       5 UNK         0.5000 
     46 O           1.2931  -15.3567  -43.2678 O.2       5 UNK        -0.5000 
     47 CA          2.8311  -13.5507  -42.8864 C.3       5 UNK         0.1400 
     48 CB          3.4419  -13.7913  -44.2770 C.3       5 UNK        -0.1800 
     49 N           2.0415  -12.3245  -42.9294 N.am      5 UNK        -0.5000 
     50 C           1.6843  -11.5883  -41.8681 C.2       4 UNK         0.5000 
     51 O           2.0315  -11.8504  -40.7155 O.2       4 UNK        -0.5000 
     52 CA          0.7618  -10.3798  -42.1416 C.3       4 UNK         0.1400 
     53 CB          0.9985   -9.2106  -41.1630 C.3       4 UNK        -0.1800 
     54 N           0.7862   -9.9285  -43.5400 N.am      4 UNK        -0.5000 
     55 C           1.8006   -9.3509  -44.2038 C.2       3 UNK         0.5000 
     56 O           2.8810   -9.0680  -43.6851 O.2       3 UNK        -0.5000 
     57 CA          1.5890   -9.0790  -45.7101 C.3       3 UNK         0.1400 
     58 CB          2.8241   -9.4902  -46.5306 C.3       3 UNK        -0.1800 
     59 N           0.4274   -9.7864  -46.2529 N.am      3 UNK        -0.5000 
     60 C          -0.8333   -9.3444  -46.2803 C.2       2 UNK         0.5000 
     61 O          -1.1770   -8.2434  -45.8508 O.2       2 UNK        -0.5000 
     62 CA         -1.8970  -10.3109  -46.8389 C.3       2 UNK         0.1400 
     63 CB         -1.9091  -10.2958  -48.3792 C.3       2 UNK        -0.1800 
     64 N          -1.8101  -11.6837  -46.3147 N.am      2 UNK        -0.5000 
     65 C          -0.8646  -12.6154  -46.5042 C.2       1 UNK         0.5000 
     66 O           0.1683  -12.4153  -47.1461 O.2       1 UNK        -0.5000 
     67 C          -2.9908  -21.7457  -48.4341 C.2       11 UNK         0.5000 
     68 O          -3.4922  -22.4300  -49.3219 O.2       11 UNK        -0.5000 
     69 N          -3.7072  -20.9403  -47.6338 N.am      12 UNK        -0.5000 
     70 CA         -5.1607  -20.7853  -47.7272 C.3       12 UNK         0.1400 
     71 CB         -5.6060  -19.5718  -46.8985 C.3       12 UNK        -0.1800 
     72 C          -5.9291  -22.0507  -47.3014 C.2       12 UNK         0.5000 
     73 O          -7.0119  -22.3043  -47.8295 O.2       12 UNK        -0.5000 
     74 N          -5.3538  -22.8235  -46.3699 N.am      13 UNK        -0.5000 
     75 CA         -5.8912  -24.1041  -45.9152 C.3       13 UNK         0.1400 
     76 CB         -5.3997  -24.3856  -44.4864 C.3       13 UNK        -0.1800 
     77 C          -5.5005  -25.2482  -46.8665 C.2       13 UNK         0.5000 
     78 O          -6.3426  -26.0894  -47.1820 O.2       13 UNK        -0.5000 
     79 N          -4.2331  -25.2587  -47.3032 N.am      14 UNK        -0.5000 
     80 CA         -3.6703  -26.2625  -48.2079 C.3       14 UNK         0.1400 
     81 CB         -2.1415  -26.1269  -48.2046 C.3       14 UNK        -0.1800 
     82 C          -4.2165  -26.1652  -49.6444 C.2       14 UNK         0.5000 
     83 O          -4.4088  -27.1957  -50.2918 O.2       14 UNK        -0.5000 
     84 N          -4.4479  -24.9324  -50.1162 N.am      15 UNK        -0.5000 
     85 CA         -4.9257  -24.5655  -51.4475 C.3       15 UNK         0.1400 
     86 CB         -6.4198  -24.9240  -51.6011 C.3       15 UNK        -0.1800 
     87 C          -4.0094  -25.1357  -52.5479 C.2       15 UNK         0.5000 
     88 O          -2.8225  -24.8031  -52.5769 O.2       15 UNK        -0.5000 
     89 N          -4.5524  -26.0076  -53.4066 N.am      16 UNK        -0.5000 
     90 CA         -3.8485  -26.6796  -54.5009 C.3       16 UNK         0.1400 
     91 CB         -4.8601  -27.5106  -55.3042 C.3       16 UNK        -0.1800 
     92 C          -2.6609  -27.5582  -54.0565 C.2       16 UNK         0.5000 
     93 O          -1.7594  -27.7912  -54.8622 O.2       16 UNK        -0.5000 
     94 N          -2.6589  -28.0134  -52.7932 N.am      17 UNK        -0.5000 
     95 CA         -1.5473  -28.7591  -52.1983 C.3       17 UNK         0.1400 
     96 CB         -2.0217  -29.4698  -50.9219 C.3       17 UNK        -0.1800 
     97 C          -0.3172  -27.8745  -51.9110 C.2       17 UNK         0.5000 
     98 O           0.7969  -28.3986  -51.8752 O.2       17 UNK        -0.5000 
     99 N          -0.5276  -26.5617  -51.7318 N.am      18 UNK        -0.5000 
    100 CA         0.5400  -25.5665  -51.6580 C.3       18 UNK         0.1400 
    101 CB         0.1364  -24.4174  -50.7193 C.3       18 UNK        -0.1800 
    102 C          0.8686  -25.0542  -53.0678 C.2       18 UNK         0.5000 
    103 O          2.0024  -25.2117  -53.5213 O.2       18 UNK        -0.5000 
    104 N         -0.1422  -24.4868  -53.7373 N.am      19 UNK        -0.5000 
    105 CA        -0.1015  -23.9771  -55.1084 C.3       19 UNK         0.1400 
    106 CB         0.9434  -22.8523  -55.2821 C.3       19 UNK        -0.1800 
    107 C         -1.4962  -23.4629  -55.4810 C.2       19 UNK         0.5000 
    108 O         -2.0774  -23.9077  -56.4707 O.2       19 UNK        -0.5000 
    109 N         -2.0111  -22.5538  -54.6497 N.am      20 UNK        -0.5000 
    110 CA        -3.3342  -21.9529  -54.7144 C.3       20 UNK         0.1400 
    111 CB        -3.3858  -20.8892  -55.8260 C.3       20 UNK        -0.1800 
    112 C         -3.6254  -21.3387  -53.3382 C.2       20 UNK         0.5000 
    113 O         -2.6923  -21.1068  -52.5640 O.2       20 UNK        -0.5000 
    114 N         -4.9116  -21.0979  -53.0530 N.am      21 UNK        -0.5000 
    115 CA        -5.3616  -20.5159  -51.7862 C.3       21 UNK         0.1400 
    116 CB        -6.8683  -20.7593  -51.6136 C.3       21 UNK        -0.1800 
    117 C         -5.0246  -19.0190  -51.6588 C.2       21 UNK         0.5000 
    118 O         -4.7101  -18.5622  -50.5603 O.2       21 UNK        -0.5000 
    119 N         -5.0908  -18.2979  -52.7874 N.am      22 UNK        -0.5000 
    120 CA        -4.7099  -16.8803  -52.9432 C.3       22 UNK         0.1400 
    121 C         -5.5760  -15.8629  -52.1358 C.2       22 UNK         0.5000 
    122 N         -6.7663  -16.2282  -51.6753 N.am      22 UNK        -0.7600 
    123 O         -5.1872  -14.7120  -51.9547 O.2       22 UNK        -0.5000 
    124 C124       -3.1827  -16.6521  -52.7595 C.3       23 UNK        -0.0398 
    125 S125       -2.2004  -17.6237  -53.9527 S.3       23 UNK        -0.2404 
    126 C126       -0.5379  -16.9333  -53.6969 C.3       23 UNK        -0.0205 
    127 H127       -2.0478  -12.4672  -41.5962 H         1 UNK         0.0600 
    128 H128       -2.3518  -14.2066  -41.6141 H         1 UNK         0.0600 
    129 H129       -0.7092  -13.5927  -41.8185 H         1 UNK         0.0600 
    130 H130       -0.2166  -14.2885  -43.9268 H         1 UNK         0.3000 
    131 H131       -2.1198  -14.2851  -46.0608 H         1 UNK         0.0600 
    132 H132        0.8754  -14.7239  -46.4410 H         1 UNK         0.0800 
    133 H133       -0.0644  -15.8626  -45.5508 H         1 UNK         0.0800 
    134 H134        0.6476  -14.6756  -49.3229 H         1 UNK         0.0800 
    135 H135        1.6034  -15.8027  -48.3912 H         1 UNK         0.0800 
    136 H136       -0.3038  -15.3715  -51.4679 H         1 UNK         0.1150 
    137 H137        0.4670  -19.3318  -52.9130 H         1 UNK         0.1150 
    138 H138        1.5349  -18.2643  -48.8984 H         1 UNK         0.1150 
    139 H139        1.2157  -21.0414  -51.4493 H         1 UNK         0.0800 
    140 H140        2.6604  -20.3751  -50.7258 H         1 UNK         0.0800 
    141 H141       -0.9358  -19.8328  -48.7872 H         1 UNK         0.0800 
    142 H142       -1.0522  -20.9591  -50.1204 H         1 UNK         0.0800 
    143 H143       -1.1800  -22.8657  -48.4825 H         1 UNK         0.0600 
    144 H144       -0.5425  -20.9310  -46.5215 H         1 UNK         0.3000 
    145 H145       -2.1141  -22.4201  -43.7146 H         1 UNK         0.0600 
    146 H146        0.1599  -22.7511  -42.7761 H         1 UNK         0.0600 
    147 H147       -0.1939  -24.0151  -43.9441 H         1 UNK         0.0600 
    148 H148        0.8671  -22.6826  -44.3896 H         1 UNK         0.0600 
    149 H149       -0.0679  -20.4680  -43.8297 H         1 UNK         0.3000 
    150 H150       -1.6410  -17.7700  -45.2541 H         1 UNK         0.0600 
    151 H151       -2.9312  -17.4593  -43.1879 H         1 UNK         0.0600 
    152 H152       -1.4486  -16.5231  -43.0781 H         1 UNK         0.0600 
    153 H153       -1.5994  -18.0488  -42.2058 H         1 UNK         0.0600 
    154 H154        0.6021  -17.7710  -43.5507 H         1 UNK         0.3000 
    155 H155        2.9744  -19.3389  -45.5647 H         1 UNK         0.0600 
    156 H156        2.7791  -17.3571  -47.0281 H         1 UNK         0.0600 
    157 H157        2.5185  -16.3120  -45.6362 H         1 UNK         0.0600 
    158 H158        4.0705  -17.1158  -45.8651 H         1 UNK         0.0600 
    159 H159        3.0346  -17.3383  -43.4479 H         1 UNK         0.3000 
    160 H160        2.9799  -19.6730  -40.7753 H         1 UNK         0.0600 
    161 H161        5.3430  -19.7922  -41.5701 H         1 UNK         0.0600 
    162 H162        5.3286  -18.0691  -41.9257 H         1 UNK         0.0600 
    163 H163        5.1742  -18.6333  -40.2615 H         1 UNK         0.0600 
    164 H164        3.4182  -16.8296  -40.9592 H         1 UNK         0.3000 
    165 H165        0.0241  -15.8533  -40.8656 H         1 UNK         0.0600 
    166 H166        2.0092  -15.8138  -38.5306 H         1 UNK         0.0600 
    167 H167        0.6226  -14.7423  -38.7337 H         1 UNK         0.0600 
    168 H168        0.3736  -16.4609  -38.4702 H         1 UNK         0.0600 
    169 H169        2.3888  -14.3336  -40.4968 H         1 UNK         0.3000 
    170 H170        3.6495  -13.4325  -42.1729 H         1 UNK         0.0600 
    171 H171        4.0189  -14.7166  -44.2962 H         1 UNK         0.0600 
    172 H172        2.6781  -13.8605  -45.0519 H         1 UNK         0.0600 
    173 H173        4.1189  -12.9822  -44.5519 H         1 UNK         0.0600 
    174 H174        1.7097  -12.0368  -43.8371 H         1 UNK         0.3000 
    175 H175       -0.2525  -10.7399  -41.9675 H         1 UNK         0.0600 
    176 H176        0.3408   -8.3702  -41.3853 H         1 UNK         0.0600 
    177 H177        0.7965   -9.5152  -40.1355 H         1 UNK         0.0600 
    178 H178        2.0272   -8.8514  -41.1970 H         1 UNK         0.0600 
    179 H179       -0.0578  -10.0998  -44.0671 H         1 UNK         0.3000 
    180 H180        1.4446   -8.0032  -45.8274 H         1 UNK         0.0600 
    181 H181        2.6770   -9.2871  -47.5915 H         1 UNK         0.0600 
    182 H182        3.7103   -8.9366  -46.2177 H         1 UNK         0.0600 
    183 H183        3.0429  -10.5533  -46.4206 H         1 UNK         0.0600 
    184 H184        0.5924  -10.7196  -46.6258 H         1 UNK         0.3000 
    185 H185       -2.8647   -9.9334  -46.5045 H         1 UNK         0.0600 
    186 H186       -2.7053  -10.9276  -48.7729 H         1 UNK         0.0600 
    187 H187       -2.0792   -9.2864  -48.7558 H         1 UNK         0.0600 
    188 H188       -0.9657  -10.6438  -48.8009 H         1 UNK         0.0600 
    189 H189       -2.5591  -11.9433  -45.6781 H         1 UNK         0.3000 
    190 H190       -3.2481  -20.4507  -46.8746 H         1 UNK         0.3000 
    191 H191       -5.4129  -20.5842  -48.7683 H         1 UNK         0.0600 
    192 H192       -6.6718  -19.3822  -47.0315 H         1 UNK         0.0600 
    193 H193       -5.0752  -18.6694  -47.2032 H         1 UNK         0.0600 
    194 H194       -5.4327  -19.7233  -45.8330 H         1 UNK         0.0600 
    195 H195       -4.4441  -22.5606  -46.0172 H         1 UNK         0.3000 
    196 H196       -6.9815  -24.0457  -45.8877 H         1 UNK         0.0600 
    197 H197       -5.8078  -25.3258  -44.1133 H         1 UNK         0.0600 
    198 H198       -5.7150  -23.5996  -43.8001 H         1 UNK         0.0600 
    199 H199       -4.3129  -24.4578  -44.4355 H         1 UNK         0.0600 
    200 H200       -3.5898  -24.5568  -46.9479 H         1 UNK         0.3000 
    201 H201       -3.9261  -27.2520  -47.8235 H         1 UNK         0.0600 
    202 H202       -1.7319  -26.3050  -47.2102 H         1 UNK         0.0600 
    203 H203       -1.8382  -25.1283  -48.5145 H         1 UNK         0.0600 
    204 H204       -1.6737  -26.8400  -48.8835 H         1 UNK         0.0600 
    205 H205       -4.1743  -24.1372  -49.5441 H         1 UNK         0.3000 
    206 H206       -4.8382  -23.4820  -51.5123 H         1 UNK         0.0600 
    207 H207       -7.0128  -24.4351  -50.8278 H         1 UNK         0.0600 
    208 H208       -6.8108  -24.5875  -52.5621 H         1 UNK         0.0600 
    209 H209       -6.5991  -25.9966  -51.5195 H         1 UNK         0.0600 
    210 H210       -5.5244  -26.2521  -53.2850 H         1 UNK         0.3000 
    211 H211       -3.4480  -25.9048  -55.1566 H         1 UNK         0.0600 
    212 H212       -5.3195  -28.2866  -54.6906 H         1 UNK         0.0600 
    213 H213       -4.3783  -28.0029  -56.1501 H         1 UNK         0.0600 
    214 H214       -5.6559  -26.8835  -55.7066 H         1 UNK         0.0600 
    215 H215       -3.4281  -27.7738  -52.1778 H         1 UNK         0.3000 
    216 H216       -1.2371  -29.5282  -52.9091 H         1 UNK         0.0600 
    217 H217       -1.2340  -30.1063  -50.5171 H         1 UNK         0.0600 
    218 H218       -2.8840  -30.1064  -51.1204 H         1 UNK         0.0600 
    219 H219       -2.2992  -28.7626  -50.1419 H         1 UNK         0.0600 
    220 H220       -1.4685  -26.2011  -51.8376 H         1 UNK         0.3000 
    221 H221        1.4462  -26.0180  -51.2482 H         1 UNK         0.0600 
    222 H222       -0.8429  -24.0031  -50.9606 H         1 UNK         0.0600 
    223 H223        0.1158  -24.7550  -49.6843 H         1 UNK         0.0600 
    224 H224        0.8591  -23.6029  -50.7722 H         1 UNK         0.0600 
    225 H225       -1.0597  -24.4623  -53.2969 H         1 UNK         0.3000 
    226 H226        0.1461  -24.8038  -55.7769 H         1 UNK         0.0600 
    227 H227        1.9619  -23.2326  -55.2127 H         1 UNK         0.0600 
    228 H228        0.8507  -22.3811  -56.2615 H         1 UNK         0.0600 
    229 H229        0.8271  -22.0713  -54.5299 H         1 UNK         0.0600 
    230 H230       -1.4871  -22.2632  -53.8323 H         1 UNK         0.3000 
    231 H231       -4.0710  -22.7345  -54.9109 H         1 UNK         0.0600 
    232 H232       -4.3558  -20.3918  -55.8531 H         1 UNK         0.0600 
    233 H233       -3.2238  -21.3331  -56.8081 H         1 UNK         0.0600 
    234 H234       -2.6258  -20.1213  -55.6786 H         1 UNK         0.0600 
    235 H235       -5.6234  -21.3084  -53.7377 H         1 UNK         0.3000 
    236 H236       -4.8454  -21.0336  -50.9787 H         1 UNK         0.0600 
    237 H237       -7.4477  -20.2936  -52.4114 H         1 UNK         0.0600 
    238 H238       -7.0968  -21.8252  -51.6090 H         1 UNK         0.0600 
    239 H239       -7.2234  -20.3505  -50.6666 H         1 UNK         0.0600 
    240 H240       -5.3645  -18.7693  -53.6362 H         1 UNK         0.3000 
    241 H241       -4.9383  -16.6406  -53.9822 H         1 UNK         0.0600 
    242 H242       -7.3267  -15.5632  -51.1658 H         1 UNK         0.3800 
    243 H243       -7.1067  -17.1646  -51.8215 H         1 UNK         0.3800 
    244 H244       -2.8729  -16.9094  -51.7456 H         1 UNK         0.0800 
    245 H245       -2.9295  -15.6004  -52.9022 H         1 UNK         0.0800 
    246 H246        0.1223  -17.3094  -54.4797 H         1 UNK         0.0800 
    247 H247       -0.5687  -15.8496  -53.8202 H         1 UNK         0.0800 
@<TRIPOS>BOND
     1    1    2 1    
     2    1  127 1    
     3    1  128 1    
     4    1  129 1    
     5    2    3 2    
     6    2    4 am   BACKBONE|DICT|INTERRES
     7    4    5 1    
     8    4  130 1    
     9    5    6 1    
    10    5   65 1    
    11    5  131 1    
    12    6    7 1    
    13    6  132 1    
    14    6  133 1    
    15    7    8 1    
    16    8    9 1    
    17    8  134 1    
    18    8  135 1    
    19    9   10 ar   
    20    9   14 ar   
    21   10   11 ar   
    22   10  136 1    
    23   11   12 ar   
    24   11  126 1    
    25   12   13 ar   
    26   12  137 1    
    27   13   14 ar   
    28   13   15 1    
    29   14  138 1    
    30   15   16 1    
    31   15  139 1    
    32   15  140 1    
    33   16   17 1    
    34   17   18 1    
    35   17  141 1    
    36   17  142 1    
    37   18   19 1    
    38   18   67 1    
    39   18  143 1    
    40   19   20 am   BACKBONE|DICT|INTERRES
    41   19  144 1    
    42   20   21 2    
    43   20   22 1    
    44   22   23 1    
    45   22   24 1    
    46   22  145 1    
    47   23  146 1    
    48   23  147 1    
    49   23  148 1    
    50   24   25 am   BACKBONE|DICT|INTERRES
    51   24  149 1    
    52   25   26 2    
    53   25   27 1    
    54   27   28 1    
    55   27   29 1    
    56   27  150 1    
    57   28  151 1    
    58   28  152 1    
    59   28  153 1    
    60   29   30 am   BACKBONE|DICT|INTERRES
    61   29  154 1    
    62   30   31 2    
    63   30   32 1    
    64   32   33 1    
    65   32   34 1    
    66   32  155 1    
    67   33  156 1    
    68   33  157 1    
    69   33  158 1    
    70   34   35 am   BACKBONE|DICT|INTERRES
    71   34  159 1    
    72   35   36 2    
    73   35   37 1    
    74   37   38 1    
    75   37   39 1    
    76   37  160 1    
    77   38  161 1    
    78   38  162 1    
    79   38  163 1    
    80   39   40 am   BACKBONE|DICT|INTERRES
    81   39  164 1    
    82   40   41 2    
    83   40   42 1    
    84   42   43 1    
    85   42   44 1    
    86   42  165 1    
    87   43  166 1    
    88   43  167 1    
    89   43  168 1    
    90   44   45 am   BACKBONE|DICT|INTERRES
    91   44  169 1    
    92   45   46 2    
    93   45   47 1    
    94   47   48 1    
    95   47   49 1    
    96   47  170 1    
    97   48  171 1    
    98   48  172 1    
    99   48  173 1    
   100   49   50 am   BACKBONE|DICT|INTERRES
   101   49  174 1    
   102   50   51 2    
   103   50   52 1    
   104   52   53 1    
   105   52   54 1    
   106   52  175 1    
   107   53  176 1    
   108   53  177 1    
   109   53  178 1    
   110   54   55 am   BACKBONE|DICT|INTERRES
   111   54  179 1    
   112   55   56 2    
   113   55   57 1    
   114   57   58 1    
   115   57   59 1    
   116   57  180 1    
   117   58  181 1    
   118   58  182 1    
   119   58  183 1    
   120   59   60 am   BACKBONE|DICT|INTERRES
   121   59  184 1    
   122   60   61 2    
   123   60   62 1    
   124   62   63 1    
   125   62   64 1    
   126   62  185 1    
   127   63  186 1    
   128   63  187 1    
   129   63  188 1    
   130   64   65 am   BACKBONE|DICT|INTERRES
   131   64  189 1    
   132   65   66 2    
   133   67   68 2    
   134   67   69 am   BACKBONE|DICT|INTERRES
   135   69   70 1    
   136   69  190 1    
   137   70   71 1    
   138   70   72 1    
   139   70  191 1    
   140   71  192 1    
   141   71  193 1    
   142   71  194 1    
   143   72   73 2    
   144   72   74 am   BACKBONE|DICT|INTERRES
   145   74   75 1    
   146   74  195 1    
   147   75   76 1    
   148   75   77 1    
   149   75  196 1    
   150   76  197 1    
   151   76  198 1    
   152   76  199 1    
   153   77   78 2    
   154   77   79 am   BACKBONE|DICT|INTERRES
   155   79   80 1    
   156   79  200 1    
   157   80   81 1    
   158   80   82 1    
   159   80  201 1    
   160   81  202 1    
   161   81  203 1    
   162   81  204 1    
   163   82   83 2    
   164   82   84 am   BACKBONE|DICT|INTERRES
   165   84   85 1    
   166   84  205 1    
   167   85   86 1    
   168   85   87 1    
   169   85  206 1    
   170   86  207 1    
   171   86  208 1    
   172   86  209 1    
   173   87   88 2    
   174   87   89 am   BACKBONE|DICT|INTERRES
   175   89   90 1    
   176   89  210 1    
   177   90   91 1    
   178   90   92 1    
   179   90  211 1    
   180   91  212 1    
   181   91  213 1    
   182   91  214 1    
   183   92   93 2    
   184   92   94 am   BACKBONE|DICT|INTERRES
   185   94   95 1    
   186   94  215 1    
   187   95   96 1    
   188   95   97 1    
   189   95  216 1    
   190   96  217 1    
   191   96  218 1    
   192   96  219 1    
   193   97   98 2    
   194   97   99 am   BACKBONE|DICT|INTERRES
   195   99  100 1    
   196   99  220 1    
   197  100  101 1    
   198  100  102 1    
   199  100  221 1    
   200  101  222 1    
   201  101  223 1    
   202  101  224 1    
   203  102  103 2    
   204  102  104 am   BACKBONE|DICT|INTERRES
   205  104  105 1    
   206  104  225 1    
   207  105  106 1    
   208  105  107 1    
   209  105  226 1    
   210  106  227 1    
   211  106  228 1    
   212  106  229 1    
   213  107  108 2    
   214  107  109 am   BACKBONE|DICT|INTERRES
   215  109  110 1    
   216  109  230 1    
   217  110  111 1    
   218  110  112 1    
   219  110  231 1    
   220  111  232 1    
   221  111  233 1    
   222  111  234 1    
   223  112  113 2    
   224  112  114 am   BACKBONE|DICT|INTERRES
   225  114  115 1    
   226  114  235 1    
   227  115  116 1    
   228  115  117 1    
   229  115  236 1    
   230  116  237 1    
   231  116  238 1    
   232  116  239 1    
   233  117  118 2    
   234  117  119 am   BACKBONE|DICT|INTERRES
   235  119  120 1    
   236  119  240 1    
   237  120  121 1    
   238  120  124 1    
   239  120  241 1    
   240  121  122 am   BACKBONE|DICT|INTERRES
   241  121  123 2    
   242  122  242 1    
   243  122  243 1    
   244  124  125 1    
   245  124  244 1    
   246  124  245 1    
   247  125  126 1    
   248  126  246 1    
   249  126  247 1    
@<TRIPOS>SUBSTRUCTURE
     1 UNK         1 GROUP             0       ****    0 ROOT    
