@<TRIPOS>MOLECULE
3R540
247   249    1
SMALL
USER_CHARGES


@<TRIPOS>ATOM
      1 CA          5.0724  -15.5642  -51.4560 C.3       0 UNK        -0.1800 
      2 C           3.9276  -14.5686  -51.3367 C.2       0 UNK         0.5000 
      3 O           3.8080  -13.6687  -52.1676 O.2       0 UNK        -0.5000 
      4 N           3.0884  -14.7300  -50.3054 N.am      1 UNK        -0.5000 
      5 CA          1.8891  -13.9253  -50.0309 C.3       1 UNK         0.1400 
      6 C6          0.8351  -14.0076  -51.1722 C.3       23 UNK        -0.0398 
      7 S7         -0.9179  -14.0796  -50.6466 S.3       23 UNK        -0.2404 
      8 C8         -1.0197  -15.4369  -49.4212 C.3       23 UNK        -0.0205 
      9 C9         -0.1233  -16.6304  -49.7281 C.ar      23 UNK        -0.0193 
     10 C10        -0.2509  -17.3316  -50.9299 C.ar      23 UNK        -0.1150 
     11 C11         0.6048  -18.3974  -51.2234 C.ar      23 UNK        -0.0193 
     12 C12         1.5850  -18.7675  -50.2985 C.ar      23 UNK        -0.1150 
     13 C13         1.6939  -18.1034  -49.0722 C.ar      23 UNK        -0.0193 
     14 C14         0.8362  -17.0361  -48.7959 C.ar      23 UNK        -0.1150 
     15 C15         2.7316  -18.5246  -48.0372 C.3       23 UNK        -0.0205 
     16 S16         2.7437  -20.3166  -47.6924 S.3       23 UNK        -0.2404 
     17 C17         0.9944  -20.6456  -47.2954 C.3       23 UNK        -0.0398 
     18 CA          0.7543  -22.1389  -46.9950 C.3       11 UNK         0.1400 
     19 N           1.4242  -22.5631  -45.7672 N.am      11 UNK        -0.5000 
     20 C           1.6595  -23.8368  -45.4298 C.2       10 UNK         0.5000 
     21 O           1.3719  -24.7966  -46.1426 O.2       10 UNK        -0.5000 
     22 CA          2.2803  -24.0730  -44.0408 C.3       10 UNK         0.1400 
     23 CB          3.8133  -24.0612  -44.1256 C.3       10 UNK        -0.1800 
     24 N           1.8451  -23.0806  -43.0564 N.am      10 UNK        -0.5000 
     25 C           0.5847  -22.9106  -42.6404 C.2       9 UNK         0.5000 
     26 O          -0.3541  -23.6121  -43.0194 O.2       9 UNK        -0.5000 
     27 CA          0.3146  -21.7314  -41.6906 C.3       9 UNK         0.1400 
     28 CB          0.7320  -22.0589  -40.2456 C.3       9 UNK        -0.1800 
     29 N           0.8827  -20.4561  -42.1451 N.am      9 UNK        -0.5000 
     30 C           2.1614  -20.0600  -42.2314 C.2       8 UNK         0.5000 
     31 O           3.1260  -20.7832  -41.9804 O.2       8 UNK        -0.5000 
     32 CA          2.3991  -18.6021  -42.6775 C.3       8 UNK         0.1400 
     33 CB          2.5519  -18.5188  -44.2026 C.3       8 UNK        -0.1800 
     34 N           1.3227  -17.7021  -42.2597 N.am      8 UNK        -0.5000 
     35 C           1.0668  -17.3565  -40.9894 C.2       7 UNK         0.5000 
     36 O           1.7851  -17.6590  -40.0361 O.2       7 UNK        -0.5000 
     37 CA         -0.2404  -16.5843  -40.7424 C.3       7 UNK         0.1400 
     38 CB         -0.0521  -15.0784  -40.9881 C.3       7 UNK        -0.1800 
     39 N          -1.3244  -17.0993  -41.5828 N.am      7 UNK        -0.5000 
     40 C          -1.9859  -18.2407  -41.3388 C.2       6 UNK         0.5000 
     41 O          -1.8020  -18.9340  -40.3387 O.2       6 UNK        -0.5000 
     42 CA         -3.0127  -18.7046  -42.3893 C.3       6 UNK         0.1400 
     43 CB         -4.4247  -18.2363  -42.0081 C.3       6 UNK        -0.1800 
     44 N          -2.7063  -18.2374  -43.7416 N.am      6 UNK        -0.5000 
     45 C          -1.7317  -18.7268  -44.5201 C.2       5 UNK         0.5000 
     46 O          -1.0000  -19.6637  -44.2006 O.2       5 UNK        -0.5000 
     47 CA         -1.5136  -18.0178  -45.8697 C.3       5 UNK         0.1400 
     48 CB         -2.3928  -18.6469  -46.9601 C.3       5 UNK        -0.1800 
     49 N          -1.7496  -16.5727  -45.8148 N.am      5 UNK        -0.5000 
     50 C          -1.0564  -15.7312  -45.0365 C.2       4 UNK         0.5000 
     51 O          -0.1871  -16.0991  -44.2421 O.2       4 UNK        -0.5000 
     52 CA         -1.4430  -14.2431  -45.1168 C.3       4 UNK         0.1400 
     53 CB         -2.5444  -13.9301  -44.0924 C.3       4 UNK        -0.1800 
     54 N          -0.3064  -13.3515  -44.8778 N.am      4 UNK        -0.5000 
     55 C           0.7973  -13.3115  -45.6331 C.2       3 UNK         0.5000 
     56 O           0.9697  -14.0151  -46.6336 O.2       3 UNK        -0.5000 
     57 CA          1.8926  -12.3236  -45.2012 C.3       3 UNK         0.1400 
     58 CB          2.7020  -12.8866  -44.0214 C.3       3 UNK        -0.1800 
     59 N           2.7763  -12.1389  -46.3437 N.am      3 UNK        -0.5000 
     60 C           3.1480  -10.9798  -46.8955 C.2       2 UNK         0.5000 
     61 O           2.9600   -9.8775  -46.3798 O.2       2 UNK        -0.5000 
     62 CA          3.8176  -11.0784  -48.2830 C.3       2 UNK         0.1400 
     63 CB          5.3479  -11.0614  -48.1488 C.3       2 UNK        -0.1800 
     64 N           3.4139  -12.2911  -49.0037 N.am      2 UNK        -0.5000 
     65 C           2.2060  -12.4876  -49.5558 C.2       1 UNK         0.5000 
     66 O           1.3560  -11.6007  -49.6478 O.2       1 UNK        -0.5000 
     67 C          -0.7485  -22.4820  -46.9608 C.2       11 UNK         0.5000 
     68 O          -1.2734  -22.9688  -47.9614 O.2       11 UNK        -0.5000 
     69 N          -1.4146  -22.2828  -45.8127 N.am      12 UNK        -0.5000 
     70 CA         -2.8067  -22.6954  -45.6046 C.3       12 UNK         0.1400 
     71 CB         -3.3513  -22.1219  -44.2896 C.3       12 UNK        -0.1800 
     72 C          -2.9843  -24.2229  -45.6571 C.2       12 UNK         0.5000 
     73 O          -3.9507  -24.6955  -46.2549 O.2       12 UNK        -0.5000 
     74 N          -2.0167  -24.9674  -45.1020 N.am      13 UNK        -0.5000 
     75 CA         -1.9326  -26.4284  -45.2029 C.3       13 UNK         0.1400 
     76 CB         -0.8204  -26.9423  -44.2768 C.3       13 UNK        -0.1800 
     77 C          -1.7217  -26.9267  -46.6498 C.2       13 UNK         0.5000 
     78 O          -2.2002  -28.0070  -46.9952 O.2       13 UNK        -0.5000 
     79 N          -1.0584  -26.1096  -47.4795 N.am      14 UNK        -0.5000 
     80 CA         -0.8852  -26.3026  -48.9218 C.3       14 UNK         0.1400 
     81 CB          0.4390  -25.6508  -49.3556 C.3       14 UNK        -0.1800 
     82 C          -2.0752  -25.7718  -49.7559 C.2       14 UNK         0.5000 
     83 O          -1.9814  -25.7469  -50.9836 O.2       14 UNK        -0.5000 
     84 N          -3.1674  -25.3703  -49.0877 N.am      15 UNK        -0.5000 
     85 CA         -4.4454  -24.9025  -49.6321 C.3       15 UNK         0.1400 
     86 CB         -5.0766  -25.9429  -50.5817 C.3       15 UNK        -0.1800 
     87 C          -4.4084  -23.4873  -50.2417 C.2       15 UNK         0.5000 
     88 O          -5.3460  -23.1143  -50.9463 O.2       15 UNK        -0.5000 
     89 N          -3.3876  -22.6781  -49.9220 N.am      16 UNK        -0.5000 
     90 CA         -3.2862  -21.2808  -50.3664 C.3       16 UNK         0.1400 
     91 CB         -1.8453  -20.7879  -50.2079 C.3       16 UNK        -0.1800 
     92 C          -4.2644  -20.3252  -49.6504 C.2       16 UNK         0.5000 
     93 O          -4.3272  -19.1449  -49.9964 O.2       16 UNK        -0.5000 
     94 N          -5.0210  -20.8391  -48.6715 N.am      17 UNK        -0.5000 
     95 CA         -6.1167  -20.1605  -47.9843 C.3       17 UNK         0.1400 
     96 CB         -6.3819  -20.8819  -46.6509 C.3       17 UNK        -0.1800 
     97 C          -7.3713  -20.0670  -48.8821 C.2       17 UNK         0.5000 
     98 O          -8.4048  -20.6619  -48.5754 O.2       17 UNK        -0.5000 
     99 N          -7.2337  -19.3306  -49.9914 N.am      18 UNK        -0.5000 
    100 CA        -8.2406  -18.9433  -50.9863 C.3       18 UNK         0.1400 
    101 CB        -9.4131  -18.1903  -50.3248 C.3       18 UNK        -0.1800 
    102 C         -8.7440  -20.0591  -51.9264 C.2       18 UNK         0.5000 
    103 O         -9.4145  -19.7314  -52.9073 O.2       18 UNK        -0.5000 
    104 N         -8.4208  -21.3336  -51.6619 N.am      19 UNK        -0.5000 
    105 CA        -8.7050  -22.4448  -52.5763 C.3       19 UNK         0.1400 
    106 CB        -8.6703  -23.7821  -51.8204 C.3       19 UNK        -0.1800 
    107 C         -7.7343  -22.4213  -53.7718 C.2       19 UNK         0.5000 
    108 O         -8.1754  -22.3854  -54.9215 O.2       19 UNK        -0.5000 
    109 N         -6.4347  -22.3656  -53.4654 N.am      20 UNK        -0.5000 
    110 CA        -5.3671  -21.9391  -54.3651 C.3       20 UNK         0.1400 
    111 CB        -4.1843  -22.9127  -54.2247 C.3       20 UNK        -0.1800 
    112 C         -4.9503  -20.5036  -53.9901 C.2       20 UNK         0.5000 
    113 O         -5.3936  -19.9773  -52.9655 O.2       20 UNK        -0.5000 
    114 N         -4.0940  -19.8909  -54.8124 N.am      21 UNK        -0.5000 
    115 CA        -3.5473  -18.5552  -54.5910 C.3       21 UNK         0.1400 
    116 CB        -4.5526  -17.4902  -55.0671 C.3       21 UNK        -0.1800 
    117 C         -2.2070  -18.4203  -55.3270 C.2       21 UNK         0.5000 
    118 O         -1.9545  -19.1592  -56.2824 O.2       21 UNK        -0.5000 
    119 N         -1.3886  -17.4680  -54.8682 N.am      22 UNK        -0.5000 
    120 CA        -0.0731  -17.1188  -55.4351 C.3       22 UNK         0.1400 
    121 C         -0.1043  -15.8131  -56.2861 C.2       22 UNK         0.5000 
    122 N         -1.2454  -15.1607  -56.4757 N.am      22 UNK        -0.7600 
    123 O          0.9245  -15.3907  -56.8067 O.2       22 UNK        -0.5000 
    124 C124        1.0113  -17.0519  -54.3230 C.3       23 UNK        -0.0398 
    125 S125        1.6055  -18.7009  -53.8130 S.3       23 UNK        -0.2404 
    126 C126        0.4334  -19.1903  -52.5099 C.3       23 UNK        -0.0205 
    127 H127        5.0471  -16.3093  -50.6603 H         1 UNK         0.0600 
    128 H128        6.0294  -15.0447  -51.4067 H         1 UNK         0.0600 
    129 H129        5.0150  -16.0871  -52.4108 H         1 UNK         0.0600 
    130 H130        3.2414  -15.4991  -49.6684 H         1 UNK         0.3000 
    131 H131        1.4643  -14.3926  -49.1475 H         1 UNK         0.0600 
    132 H132        0.9566  -13.1803  -51.8734 H         1 UNK         0.0800 
    133 H133        1.0078  -14.9028  -51.7683 H         1 UNK         0.0800 
    134 H134       -0.7873  -15.0266  -48.4379 H         1 UNK         0.0800 
    135 H135       -2.0533  -15.7807  -49.3660 H         1 UNK         0.0800 
    136 H136       -1.0134  -17.0398  -51.6375 H         1 UNK         0.1150 
    137 H137        2.2449  -19.5941  -50.5217 H         1 UNK         0.1150 
    138 H138        0.9222  -16.5097  -47.8549 H         1 UNK         0.1150 
    139 H139        3.7197  -18.2301  -48.3923 H         1 UNK         0.0800 
    140 H140        2.5723  -17.9942  -47.0976 H         1 UNK         0.0800 
    141 H141        0.3907  -20.3218  -48.1422 H         1 UNK         0.0800 
    142 H142        0.7005  -20.0349  -46.4448 H         1 UNK         0.0800 
    143 H143        1.1825  -22.7122  -47.8204 H         1 UNK         0.0600 
    144 H144        1.7042  -21.8371  -45.1257 H         1 UNK         0.3000 
    145 H145        1.9599  -25.0572  -43.6938 H         1 UNK         0.0600 
    146 H146        4.2630  -24.2968  -43.1609 H         1 UNK         0.0600 
    147 H147        4.1915  -23.0885  -44.4433 H         1 UNK         0.0600 
    148 H148        4.1707  -24.8034  -44.8407 H         1 UNK         0.0600 
    149 H149        2.5455  -22.4362  -42.6985 H         1 UNK         0.3000 
    150 H150       -0.7659  -21.5784  -41.6874 H         1 UNK         0.0600 
    151 H151        0.2190  -22.9521  -39.8871 H         1 UNK         0.0600 
    152 H152        0.4749  -21.2426  -39.5703 H         1 UNK         0.0600 
    153 H153        1.8031  -22.2421  -40.1583 H         1 UNK         0.0600 
    154 H154        0.1918  -19.8069  -42.5017 H         1 UNK         0.3000 
    155 H155        3.3301  -18.2621  -42.2193 H         1 UNK         0.0600 
    156 H156        3.3358  -19.1881  -44.5594 H         1 UNK         0.0600 
    157 H157        2.8172  -17.5087  -44.5155 H         1 UNK         0.0600 
    158 H158        1.6274  -18.7902  -44.7104 H         1 UNK         0.0600 
    159 H159        0.7184  -17.3370  -42.9896 H         1 UNK         0.3000 
    160 H160       -0.5173  -16.7189  -39.6944 H         1 UNK         0.0600 
    161 H161        0.2648  -14.8639  -42.0083 H         1 UNK         0.0600 
    162 H162        0.7085  -14.6710  -40.3212 H         1 UNK         0.0600 
    163 H163       -0.9751  -14.5299  -40.8001 H         1 UNK         0.0600 
    164 H164       -1.4830  -16.6188  -42.4566 H         1 UNK         0.3000 
    165 H165       -3.0051  -19.7961  -42.3873 H         1 UNK         0.0600 
    166 H166       -5.1692  -18.6247  -42.7034 H         1 UNK         0.0600 
    167 H167       -4.6975  -18.5880  -41.0122 H         1 UNK         0.0600 
    168 H168       -4.5016  -17.1483  -42.0049 H         1 UNK         0.0600 
    169 H169       -3.2601  -17.4702  -44.0923 H         1 UNK         0.3000 
    170 H170       -0.4688  -18.1567  -46.1481 H         1 UNK         0.0600 
    171 H171       -3.4525  -18.4616  -46.7822 H         1 UNK         0.0600 
    172 H172       -2.1438  -18.2526  -47.9457 H         1 UNK         0.0600 
    173 H173       -2.2556  -19.7275  -47.0005 H         1 UNK         0.0600 
    174 H174       -2.4681  -16.2078  -46.4230 H         1 UNK         0.3000 
    175 H175       -1.8242  -14.0361  -46.1189 H         1 UNK         0.0600 
    176 H176       -2.2049  -14.1004  -43.0700 H         1 UNK         0.0600 
    177 H177       -2.8700  -12.8924  -44.1682 H         1 UNK         0.0600 
    178 H178       -3.4233  -14.5554  -44.2547 H         1 UNK         0.0600 
    179 H179       -0.3616  -12.7640  -44.0592 H         1 UNK         0.3000 
    180 H180        1.4240  -11.3792  -44.9165 H         1 UNK         0.0600 
    181 H181        2.0708  -13.0274  -43.1431 H         1 UNK         0.0600 
    182 H182        3.5070  -12.2084  -43.7383 H         1 UNK         0.0600 
    183 H183        3.1473  -13.8527  -44.2634 H         1 UNK         0.0600 
    184 H184        2.9024  -12.9796  -46.8908 H         1 UNK         0.3000 
    185 H185        3.5129  -10.2064  -48.8655 H         1 UNK         0.0600 
    186 H186        5.8297  -11.0808  -49.1266 H         1 UNK         0.0600 
    187 H187        5.6842  -10.1575  -47.6393 H         1 UNK         0.0600 
    188 H188        5.7124  -11.9156  -47.5767 H         1 UNK         0.0600 
    189 H189        4.0653  -13.0624  -48.9973 H         1 UNK         0.3000 
    190 H190       -0.9413  -21.8639  -45.0235 H         1 UNK         0.3000 
    191 H191       -3.4021  -22.2770  -46.4187 H         1 UNK         0.0600 
    192 H192       -2.6988  -22.3420  -43.4450 H         1 UNK         0.0600 
    193 H193       -4.3367  -22.5296  -44.0601 H         1 UNK         0.0600 
    194 H194       -3.4670  -21.0425  -44.3598 H         1 UNK         0.0600 
    195 H195       -1.2861  -24.4996  -44.5744 H         1 UNK         0.3000 
    196 H196       -2.8813  -26.8385  -44.8505 H         1 UNK         0.0600 
    197 H197       -0.9819  -26.6195  -43.2480 H         1 UNK         0.0600 
    198 H198        0.1611  -26.5874  -44.5887 H         1 UNK         0.0600 
    199 H199       -0.7881  -28.0324  -44.2756 H         1 UNK         0.0600 
    200 H200       -0.6638  -25.2592  -47.0986 H         1 UNK         0.3000 
    201 H201       -0.8091  -27.3726  -49.1248 H         1 UNK         0.0600 
    202 H202        1.2752  -26.0231  -48.7635 H         1 UNK         0.0600 
    203 H203        0.4099  -24.5670  -49.2493 H         1 UNK         0.0600 
    204 H204        0.6606  -25.8698  -50.4007 H         1 UNK         0.0600 
    205 H205       -3.1287  -25.3895  -48.0756 H         1 UNK         0.3000 
    206 H206       -5.1083  -24.8230  -48.7698 H         1 UNK         0.0600 
    207 H207       -5.0753  -26.9377  -50.1364 H         1 UNK         0.0600 
    208 H208       -6.1139  -25.6920  -50.8033 H         1 UNK         0.0600 
    209 H209       -4.5487  -25.9979  -51.5340 H         1 UNK         0.0600 
    210 H210       -2.6499  -23.0140  -49.3075 H         1 UNK         0.3000 
    211 H211       -3.5265  -21.2473  -51.4294 H         1 UNK         0.0600 
    212 H212       -1.7280  -19.8168  -50.6854 H         1 UNK         0.0600 
    213 H213       -1.1286  -21.4721  -50.6620 H         1 UNK         0.0600 
    214 H214       -1.5857  -20.6606  -49.1604 H         1 UNK         0.0600 
    215 H215       -4.9167  -21.8232  -48.4794 H         1 UNK         0.3000 
    216 H216       -5.8077  -19.1393  -47.7517 H         1 UNK         0.0600 
    217 H217       -6.6481  -21.9287  -46.8026 H         1 UNK         0.0600 
    218 H218       -5.5046  -20.8476  -46.0055 H         1 UNK         0.0600 
    219 H219       -7.1999  -20.4090  -46.1061 H         1 UNK         0.0600 
    220 H220       -6.2974  -18.9827  -50.1815 H         1 UNK         0.3000 
    221 H221       -7.7282  -18.2321  -51.6361 H         1 UNK         0.0600 
    222 H222      -10.0118  -18.8452  -49.6914 H         1 UNK         0.0600 
    223 H223       -9.0562  -17.3624  -49.7121 H         1 UNK         0.0600 
    224 H224      -10.0814  -17.7700  -51.0773 H         1 UNK         0.0600 
    225 H225       -7.8693  -21.5338  -50.8401 H         1 UNK         0.3000 
    226 H226       -9.7166  -22.3233  -52.9701 H         1 UNK         0.0600 
    227 H227       -9.4402  -23.8147  -51.0495 H         1 UNK         0.0600 
    228 H228       -8.8524  -24.6172  -52.4978 H         1 UNK         0.0600 
    229 H229       -7.7117  -23.9561  -51.3368 H         1 UNK         0.0600 
    230 H230       -6.1668  -22.4174  -52.4853 H         1 UNK         0.3000 
    231 H231       -5.7101  -21.9406  -55.4016 H         1 UNK         0.0600 
    232 H232       -3.3862  -22.6683  -54.9263 H         1 UNK         0.0600 
    233 H233       -4.4935  -23.9374  -54.4314 H         1 UNK         0.0600 
    234 H234       -3.7565  -22.8920  -53.2224 H         1 UNK         0.0600 
    235 H235       -3.7157  -20.3702  -55.6201 H         1 UNK         0.3000 
    236 H236       -3.3568  -18.4208  -53.5234 H         1 UNK         0.0600 
    237 H237       -4.7715  -17.5938  -56.1306 H         1 UNK         0.0600 
    238 H238       -5.4949  -17.5637  -54.5237 H         1 UNK         0.0600 
    239 H239       -4.1676  -16.4830  -54.9054 H         1 UNK         0.0600 
    240 H240       -1.6959  -16.8900  -54.1000 H         1 UNK         0.3000 
    241 H241        0.2298  -17.8921  -56.1434 H         1 UNK         0.0600 
    242 H242       -2.1086  -15.5022  -56.0869 H         1 UNK         0.3800 
    243 H243       -1.2470  -14.3230  -57.0368 H         1 UNK         0.3800 
    244 H244        1.8969  -16.5166  -54.6693 H         1 UNK         0.0800 
    245 H245        0.6530  -16.4927  -53.4602 H         1 UNK         0.0800 
    246 H246        0.5854  -20.2492  -52.2961 H         1 UNK         0.0800 
    247 H247       -0.5892  -19.1109  -52.8757 H         1 UNK         0.0800 
@<TRIPOS>BOND
     1    1    2 1    
     2    1  127 1    
     3    1  128 1    
     4    1  129 1    
     5    2    3 2    
     6    2    4 am   BACKBONE|DICT|INTERRES
     7    4    5 1    
     8    4  130 1    
     9    5    6 1    
    10    5   65 1    
    11    5  131 1    
    12    6    7 1    
    13    6  132 1    
    14    6  133 1    
    15    7    8 1    
    16    8    9 1    
    17    8  134 1    
    18    8  135 1    
    19    9   10 ar   
    20    9   14 ar   
    21   10   11 ar   
    22   10  136 1    
    23   11   12 ar   
    24   11  126 1    
    25   12   13 ar   
    26   12  137 1    
    27   13   14 ar   
    28   13   15 1    
    29   14  138 1    
    30   15   16 1    
    31   15  139 1    
    32   15  140 1    
    33   16   17 1    
    34   17   18 1    
    35   17  141 1    
    36   17  142 1    
    37   18   19 1    
    38   18   67 1    
    39   18  143 1    
    40   19   20 am   BACKBONE|DICT|INTERRES
    41   19  144 1    
    42   20   21 2    
    43   20   22 1    
    44   22   23 1    
    45   22   24 1    
    46   22  145 1    
    47   23  146 1    
    48   23  147 1    
    49   23  148 1    
    50   24   25 am   BACKBONE|DICT|INTERRES
    51   24  149 1    
    52   25   26 2    
    53   25   27 1    
    54   27   28 1    
    55   27   29 1    
    56   27  150 1    
    57   28  151 1    
    58   28  152 1    
    59   28  153 1    
    60   29   30 am   BACKBONE|DICT|INTERRES
    61   29  154 1    
    62   30   31 2    
    63   30   32 1    
    64   32   33 1    
    65   32   34 1    
    66   32  155 1    
    67   33  156 1    
    68   33  157 1    
    69   33  158 1    
    70   34   35 am   BACKBONE|DICT|INTERRES
    71   34  159 1    
    72   35   36 2    
    73   35   37 1    
    74   37   38 1    
    75   37   39 1    
    76   37  160 1    
    77   38  161 1    
    78   38  162 1    
    79   38  163 1    
    80   39   40 am   BACKBONE|DICT|INTERRES
    81   39  164 1    
    82   40   41 2    
    83   40   42 1    
    84   42   43 1    
    85   42   44 1    
    86   42  165 1    
    87   43  166 1    
    88   43  167 1    
    89   43  168 1    
    90   44   45 am   BACKBONE|DICT|INTERRES
    91   44  169 1    
    92   45   46 2    
    93   45   47 1    
    94   47   48 1    
    95   47   49 1    
    96   47  170 1    
    97   48  171 1    
    98   48  172 1    
    99   48  173 1    
   100   49   50 am   BACKBONE|DICT|INTERRES
   101   49  174 1    
   102   50   51 2    
   103   50   52 1    
   104   52   53 1    
   105   52   54 1    
   106   52  175 1    
   107   53  176 1    
   108   53  177 1    
   109   53  178 1    
   110   54   55 am   BACKBONE|DICT|INTERRES
   111   54  179 1    
   112   55   56 2    
   113   55   57 1    
   114   57   58 1    
   115   57   59 1    
   116   57  180 1    
   117   58  181 1    
   118   58  182 1    
   119   58  183 1    
   120   59   60 am   BACKBONE|DICT|INTERRES
   121   59  184 1    
   122   60   61 2    
   123   60   62 1    
   124   62   63 1    
   125   62   64 1    
   126   62  185 1    
   127   63  186 1    
   128   63  187 1    
   129   63  188 1    
   130   64   65 am   BACKBONE|DICT|INTERRES
   131   64  189 1    
   132   65   66 2    
   133   67   68 2    
   134   67   69 am   BACKBONE|DICT|INTERRES
   135   69   70 1    
   136   69  190 1    
   137   70   71 1    
   138   70   72 1    
   139   70  191 1    
   140   71  192 1    
   141   71  193 1    
   142   71  194 1    
   143   72   73 2    
   144   72   74 am   BACKBONE|DICT|INTERRES
   145   74   75 1    
   146   74  195 1    
   147   75   76 1    
   148   75   77 1    
   149   75  196 1    
   150   76  197 1    
   151   76  198 1    
   152   76  199 1    
   153   77   78 2    
   154   77   79 am   BACKBONE|DICT|INTERRES
   155   79   80 1    
   156   79  200 1    
   157   80   81 1    
   158   80   82 1    
   159   80  201 1    
   160   81  202 1    
   161   81  203 1    
   162   81  204 1    
   163   82   83 2    
   164   82   84 am   BACKBONE|DICT|INTERRES
   165   84   85 1    
   166   84  205 1    
   167   85   86 1    
   168   85   87 1    
   169   85  206 1    
   170   86  207 1    
   171   86  208 1    
   172   86  209 1    
   173   87   88 2    
   174   87   89 am   BACKBONE|DICT|INTERRES
   175   89   90 1    
   176   89  210 1    
   177   90   91 1    
   178   90   92 1    
   179   90  211 1    
   180   91  212 1    
   181   91  213 1    
   182   91  214 1    
   183   92   93 2    
   184   92   94 am   BACKBONE|DICT|INTERRES
   185   94   95 1    
   186   94  215 1    
   187   95   96 1    
   188   95   97 1    
   189   95  216 1    
   190   96  217 1    
   191   96  218 1    
   192   96  219 1    
   193   97   98 2    
   194   97   99 am   BACKBONE|DICT|INTERRES
   195   99  100 1    
   196   99  220 1    
   197  100  101 1    
   198  100  102 1    
   199  100  221 1    
   200  101  222 1    
   201  101  223 1    
   202  101  224 1    
   203  102  103 2    
   204  102  104 am   BACKBONE|DICT|INTERRES
   205  104  105 1    
   206  104  225 1    
   207  105  106 1    
   208  105  107 1    
   209  105  226 1    
   210  106  227 1    
   211  106  228 1    
   212  106  229 1    
   213  107  108 2    
   214  107  109 am   BACKBONE|DICT|INTERRES
   215  109  110 1    
   216  109  230 1    
   217  110  111 1    
   218  110  112 1    
   219  110  231 1    
   220  111  232 1    
   221  111  233 1    
   222  111  234 1    
   223  112  113 2    
   224  112  114 am   BACKBONE|DICT|INTERRES
   225  114  115 1    
   226  114  235 1    
   227  115  116 1    
   228  115  117 1    
   229  115  236 1    
   230  116  237 1    
   231  116  238 1    
   232  116  239 1    
   233  117  118 2    
   234  117  119 am   BACKBONE|DICT|INTERRES
   235  119  120 1    
   236  119  240 1    
   237  120  121 1    
   238  120  124 1    
   239  120  241 1    
   240  121  122 am   BACKBONE|DICT|INTERRES
   241  121  123 2    
   242  122  242 1    
   243  122  243 1    
   244  124  125 1    
   245  124  244 1    
   246  124  245 1    
   247  125  126 1    
   248  126  246 1    
   249  126  247 1    
@<TRIPOS>SUBSTRUCTURE
     1 UNK         1 GROUP             0       ****    0 ROOT    
