@<TRIPOS>MOLECULE
3R540
247   249    1
SMALL
USER_CHARGES


@<TRIPOS>ATOM
      1 CA         -1.6436  -13.3146  -49.7508 C.3       0 UNK        -0.1800 
      2 C          -0.1882  -12.8920  -49.8880 C.2       0 UNK         0.5000 
      3 O           0.1439  -12.1029  -50.7724 O.2       0 UNK        -0.5000 
      4 N           0.6741  -13.4171  -49.0130 N.am      1 UNK        -0.5000 
      5 CA          2.1090  -13.1179  -48.9519 C.3       1 UNK         0.1400 
      6 C6          2.9293  -14.3669  -48.5444 C.3       23 UNK        -0.0398 
      7 S7          2.9424  -15.6557  -49.8361 S.3       23 UNK        -0.2404 
      8 C8          1.5272  -16.6842  -49.3421 C.3       23 UNK        -0.0205 
      9 C9          1.4239  -17.9305  -50.2044 C.ar      23 UNK        -0.0193 
     10 C10         0.7965  -17.8704  -51.4522 C.ar      23 UNK        -0.1150 
     11 C11         0.7266  -19.0053  -52.2646 C.ar      23 UNK        -0.0193 
     12 C12         1.2756  -20.2079  -51.8129 C.ar      23 UNK        -0.1150 
     13 C13         1.8812  -20.2913  -50.5564 C.ar      23 UNK        -0.0193 
     14 C14         1.9618  -19.1425  -49.7613 C.ar      23 UNK        -0.1150 
     15 C15         2.4918  -21.6114  -50.0971 C.3       23 UNK        -0.0205 
     16 S16         2.0517  -22.0634  -48.3875 S.3       23 UNK        -0.2404 
     17 C17         0.2827  -22.4900  -48.5314 C.3       23 UNK        -0.0398 
     18 CA         -0.1342  -23.5081  -47.4430 C.3       11 UNK         0.1400 
     19 N           0.0471  -22.9901  -46.0830 N.am      11 UNK        -0.5000 
     20 C          -0.0420  -23.7274  -44.9673 C.2       10 UNK         0.5000 
     21 O          -0.2629  -24.9374  -44.9616 O.2       10 UNK        -0.5000 
     22 CA          0.0741  -22.9760  -43.6321 C.3       10 UNK         0.1400 
     23 CB          1.5435  -22.7217  -43.2626 C.3       10 UNK        -0.1800 
     24 N          -0.6602  -21.7121  -43.6689 N.am      10 UNK        -0.5000 
     25 C          -1.9975  -21.6233  -43.6652 C.2       9 UNK         0.5000 
     26 O          -2.7440  -22.5983  -43.5777 O.2       9 UNK        -0.5000 
     27 CA         -2.6014  -20.2162  -43.8264 C.3       9 UNK         0.1400 
     28 CB         -2.6833  -19.5004  -42.4701 C.3       9 UNK        -0.1800 
     29 N          -1.8476  -19.3830  -44.7627 N.am      9 UNK        -0.5000 
     30 C          -1.7829  -19.5939  -46.0845 C.2       8 UNK         0.5000 
     31 O          -2.3707  -20.5071  -46.6604 O.2       8 UNK        -0.5000 
     32 CA         -0.8735  -18.6507  -46.8931 C.3       8 UNK         0.1400 
     33 CB         -1.6593  -17.4040  -47.3274 C.3       8 UNK        -0.1800 
     34 N           0.3482  -18.2413  -46.1900 N.am      8 UNK        -0.5000 
     35 C           1.2659  -19.0769  -45.6772 C.2       7 UNK         0.5000 
     36 O           1.1363  -20.2994  -45.6611 O.2       7 UNK        -0.5000 
     37 CA          2.5360  -18.4533  -45.0704 C.3       7 UNK         0.1400 
     38 CB          3.7046  -18.5632  -46.0619 C.3       7 UNK        -0.1800 
     39 N           2.3648  -17.0492  -44.6932 N.am      7 UNK        -0.5000 
     40 C           1.7293  -16.6239  -43.5910 C.2       6 UNK         0.5000 
     41 O           1.2301  -17.3755  -42.7550 O.2       6 UNK        -0.5000 
     42 CA          1.5699  -15.0984  -43.4450 C.3       6 UNK         0.1400 
     43 CB          2.8818  -14.4600  -42.9635 C.3       6 UNK        -0.1800 
     44 N           1.1821  -14.5127  -44.7337 N.am      6 UNK        -0.5000 
     45 C          -0.0453  -14.4759  -45.2790 C.2       5 UNK         0.5000 
     46 O          -0.1805  -14.3790  -46.4962 O.2       5 UNK        -0.5000 
     47 CA         -1.3020  -14.4396  -44.3880 C.3       5 UNK         0.1400 
     48 CB         -1.6343  -15.7986  -43.7317 C.3       5 UNK        -0.1800 
     49 N          -1.1589  -13.3535  -43.4223 N.am      5 UNK        -0.5000 
     50 C          -2.0449  -12.9591  -42.5007 C.2       4 UNK         0.5000 
     51 O          -3.1272  -13.5073  -42.2916 O.2       4 UNK        -0.5000 
     52 CA         -1.6478  -11.7106  -41.6922 C.3       4 UNK         0.1400 
     53 CB         -0.5138  -12.0324  -40.7047 C.3       4 UNK        -0.1800 
     54 N          -1.2351  -10.6127  -42.5689 N.am      4 UNK        -0.5000 
     55 C          -2.0781   -9.8907  -43.3222 C.2       3 UNK         0.5000 
     56 O          -3.3029  -10.0163  -43.2919 O.2       3 UNK        -0.5000 
     57 CA         -1.4481   -8.8603  -44.2810 C.3       3 UNK         0.1400 
     58 CB         -1.2904   -7.5007  -43.5830 C.3       3 UNK        -0.1800 
     59 N          -0.1512   -9.2761  -44.8254 N.am      3 UNK        -0.5000 
     60 C           0.0320  -10.3299  -45.6315 C.2       2 UNK         0.5000 
     61 O          -0.8777  -11.0792  -45.9977 O.2       2 UNK        -0.5000 
     62 CA          1.4747  -10.6053  -46.0812 C.3       2 UNK         0.1400 
     63 CB          2.3644  -11.0039  -44.8886 C.3       2 UNK        -0.1800 
     64 N           1.4477  -11.6806  -47.0655 N.am      2 UNK        -0.5000 
     65 C           2.3860  -11.9501  -47.9804 C.2       1 UNK         0.5000 
     66 O           3.4390  -11.3190  -48.0787 O.2       1 UNK        -0.5000 
     67 C          -1.5668  -24.0336  -47.6719 C.2       11 UNK         0.5000 
     68 O          -1.7244  -25.0677  -48.3216 O.2       11 UNK        -0.5000 
     69 N          -2.5713  -23.3580  -47.0919 N.am      12 UNK        -0.5000 
     70 CA         -3.9643  -23.8045  -47.0522 C.3       12 UNK         0.1400 
     71 CB         -4.8572  -22.6989  -46.4651 C.3       12 UNK        -0.1800 
     72 C          -4.1364  -25.0990  -46.2396 C.2       12 UNK         0.5000 
     73 O          -4.7477  -26.0453  -46.7345 O.2       12 UNK        -0.5000 
     74 N          -3.5802  -25.1227  -45.0186 N.am      13 UNK        -0.5000 
     75 CA         -3.6470  -26.2547  -44.0896 C.3       13 UNK         0.1400 
     76 CB         -3.0586  -25.8395  -42.7328 C.3       13 UNK        -0.1800 
     77 C          -2.9498  -27.5208  -44.6199 C.2       13 UNK         0.5000 
     78 O          -3.4730  -28.6224  -44.4482 O.2       13 UNK        -0.5000 
     79 N          -1.8000  -27.3370  -45.2809 N.am      14 UNK        -0.5000 
     80 CA         -1.0440  -28.3943  -45.9529 C.3       14 UNK         0.1400 
     81 CB          0.3857  -27.8887  -46.2048 C.3       14 UNK        -0.1800 
     82 C          -1.6796  -28.8541  -47.2803 C.2       14 UNK         0.5000 
     83 O          -1.2955  -29.9073  -47.7904 O.2       14 UNK        -0.5000 
     84 N          -2.6016  -28.0465  -47.8290 N.am      15 UNK        -0.5000 
     85 CA         -3.2092  -28.1567  -49.1605 C.3       15 UNK         0.1400 
     86 CB         -4.1126  -29.4031  -49.2566 C.3       15 UNK        -0.1800 
     87 C          -2.1552  -28.0750  -50.2866 C.2       15 UNK         0.5000 
     88 O          -2.2611  -28.7697  -51.2990 O.2       15 UNK        -0.5000 
     89 N          -1.1393  -27.2313  -50.0675 N.am      16 UNK        -0.5000 
     90 CA         -0.0010  -27.0277  -50.9591 C.3       16 UNK         0.1400 
     91 CB          1.1898  -26.5250  -50.1274 C.3       16 UNK        -0.1800 
     92 C          -0.3160  -26.0370  -52.0916 C.2       16 UNK         0.5000 
     93 O           0.3194  -26.1026  -53.1446 O.2       16 UNK        -0.5000 
     94 N          -1.2789  -25.1384  -51.8585 N.am      17 UNK        -0.5000 
     95 CA         -1.7190  -24.1051  -52.7869 C.3       17 UNK         0.1400 
     96 CB         -0.7085  -22.9460  -52.7900 C.3       17 UNK        -0.1800 
     97 C          -3.1148  -23.6204  -52.3723 C.2       17 UNK         0.5000 
     98 O          -3.6024  -23.9851  -51.2977 O.2       17 UNK        -0.5000 
     99 N          -3.7253  -22.7844  -53.2208 N.am      18 UNK        -0.5000 
    100 CA        -5.0561  -22.1936  -53.0495 C.3       18 UNK         0.1400 
    101 CB        -5.5682  -21.7337  -54.4274 C.3       18 UNK        -0.1800 
    102 C         -5.0900  -21.0566  -52.0031 C.2       18 UNK         0.5000 
    103 O         -5.5850  -19.9662  -52.2923 O.2       18 UNK        -0.5000 
    104 N         -4.5661  -21.3327  -50.8022 N.am      19 UNK        -0.5000 
    105 CA        -4.4719  -20.4400  -49.6465 C.3       19 UNK         0.1400 
    106 CB        -5.8709  -20.2438  -49.0176 C.3       19 UNK        -0.1800 
    107 C         -3.7488  -19.1227  -49.9946 C.2       19 UNK         0.5000 
    108 O         -2.5545  -19.1564  -50.2847 O.2       19 UNK        -0.5000 
    109 N         -4.4774  -18.0000  -49.9564 N.am      20 UNK        -0.5000 
    110 CA        -4.0006  -16.6729  -50.3442 C.3       20 UNK         0.1400 
    111 CB        -4.5179  -15.6539  -49.3147 C.3       20 UNK        -0.1800 
    112 C         -4.4646  -16.2721  -51.7583 C.2       20 UNK         0.5000 
    113 O         -3.9411  -15.2994  -52.3035 O.2       20 UNK        -0.5000 
    114 N         -5.4332  -17.0008  -52.3374 N.am      21 UNK        -0.5000 
    115 CA        -6.0606  -16.6810  -53.6262 C.3       21 UNK         0.1400 
    116 CB        -7.3312  -17.5262  -53.8059 C.3       21 UNK        -0.1800 
    117 C         -5.1143  -16.8549  -54.8283 C.2       21 UNK         0.5000 
    118 O         -5.3271  -16.2279  -55.8668 O.2       21 UNK        -0.5000 
    119 N         -4.0722  -17.6733  -54.6514 N.am      22 UNK        -0.5000 
    120 CA        -2.9263  -17.8018  -55.5604 C.3       22 UNK         0.1400 
    121 C         -1.9644  -16.5738  -55.5798 C.2       22 UNK         0.5000 
    122 N         -2.0875  -15.6003  -54.6833 N.am      22 UNK        -0.7600 
    123 O         -1.0898  -16.4988  -56.4384 O.2       22 UNK        -0.5000 
    124 C124       -2.1637  -19.1306  -55.3193 C.3       23 UNK        -0.0398 
    125 S125       -1.6730  -19.3892  -53.5783 S.3       23 UNK        -0.2404 
    126 C126        0.0842  -18.9286  -53.6401 C.3       23 UNK        -0.0205 
    127 H127       -1.7831  -14.0217  -48.9322 H         1 UNK         0.0600 
    128 H128       -1.9850  -13.7887  -50.6713 H         1 UNK         0.0600 
    129 H129       -2.2717  -12.4449  -49.5588 H         1 UNK         0.0600 
    130 H130        0.3164  -13.9949  -48.2562 H         1 UNK         0.3000 
    131 H131        2.4562  -12.7953  -49.9360 H         1 UNK         0.0600 
    132 H132        2.5641  -14.7880  -47.6071 H         1 UNK         0.0800 
    133 H133        3.9719  -14.0960  -48.3669 H         1 UNK         0.0800 
    134 H134        1.6243  -16.9583  -48.2925 H         1 UNK         0.0800 
    135 H135        0.6096  -16.1043  -49.4348 H         1 UNK         0.0800 
    136 H136        0.3774  -16.9358  -51.7979 H         1 UNK         0.1150 
    137 H137        1.2401  -21.0780  -52.4507 H         1 UNK         0.1150 
    138 H138        2.4499  -19.1928  -48.7989 H         1 UNK         0.1150 
    139 H139        2.2068  -22.4276  -50.7631 H         1 UNK         0.0800 
    140 H140        3.5770  -21.5266  -50.1633 H         1 UNK         0.0800 
    141 H141        0.1043  -22.9034  -49.5255 H         1 UNK         0.0800 
    142 H142       -0.3097  -21.5761  -48.4624 H         1 UNK         0.0800 
    143 H143        0.5250  -24.3738  -47.5363 H         1 UNK         0.0600 
    144 H144        0.2941  -22.0076  -45.9985 H         1 UNK         0.3000 
    145 H145       -0.3632  -23.6046  -42.8535 H         1 UNK         0.0600 
    146 H146        1.6259  -22.2065  -42.3055 H         1 UNK         0.0600 
    147 H147        2.0875  -23.6627  -43.1733 H         1 UNK         0.0600 
    148 H148        2.0566  -22.1201  -44.0128 H         1 UNK         0.0600 
    149 H149       -0.1145  -20.8776  -43.8316 H         1 UNK         0.3000 
    150 H150       -3.6159  -20.3326  -44.2138 H         1 UNK         0.0600 
    151 H151       -3.1833  -18.5361  -42.5630 H         1 UNK         0.0600 
    152 H152       -1.6938  -19.3252  -42.0454 H         1 UNK         0.0600 
    153 H153       -3.2506  -20.0919  -41.7502 H         1 UNK         0.0600 
    154 H154       -1.3051  -18.6309  -44.3667 H         1 UNK         0.3000 
    155 H155       -0.5680  -19.1880  -47.7934 H         1 UNK         0.0600 
    156 H156       -2.5887  -17.6873  -47.8167 H         1 UNK         0.0600 
    157 H157       -1.9298  -16.7689  -46.4866 H         1 UNK         0.0600 
    158 H158       -1.0964  -16.7994  -48.0354 H         1 UNK         0.0600 
    159 H159        0.5360  -17.2521  -46.1525 H         1 UNK         0.3000 
    160 H160        2.7896  -19.0309  -44.1787 H         1 UNK         0.0600 
    161 H161        4.6376  -18.2294  -45.6078 H         1 UNK         0.0600 
    162 H162        3.5355  -17.9641  -46.9572 H         1 UNK         0.0600 
    163 H163        3.8520  -19.5962  -46.3813 H         1 UNK         0.0600 
    164 H164        2.7720  -16.3698  -45.3161 H         1 UNK         0.3000 
    165 H165        0.8213  -14.9040  -42.6784 H         1 UNK         0.0600 
    166 H166        2.7495  -13.3996  -42.7513 H         1 UNK         0.0600 
    167 H167        3.2276  -14.9287  -42.0410 H         1 UNK         0.0600 
    168 H168        3.6801  -14.5578  -43.7000 H         1 UNK         0.0600 
    169 H169        1.9554  -14.3377  -45.3546 H         1 UNK         0.3000 
    170 H170       -2.1334  -14.1774  -45.0455 H         1 UNK         0.0600 
    171 H171       -1.2074  -15.8984  -42.7346 H         1 UNK         0.0600 
    172 H172       -2.7125  -15.9215  -43.6286 H         1 UNK         0.0600 
    173 H173       -1.2731  -16.6361  -44.3241 H         1 UNK         0.0600 
    174 H174       -0.3179  -12.8066  -43.5350 H         1 UNK         0.3000 
    175 H175       -2.5182  -11.3899  -41.1155 H         1 UNK         0.0600 
    176 H176       -0.2849  -11.1715  -40.0763 H         1 UNK         0.0600 
    177 H177        0.4037  -12.3261  -41.2162 H         1 UNK         0.0600 
    178 H178       -0.7960  -12.8511  -40.0414 H         1 UNK         0.0600 
    179 H179       -0.2465  -10.4247  -42.6404 H         1 UNK         0.3000 
    180 H180       -2.1355   -8.7330  -45.1201 H         1 UNK         0.0600 
    181 H181       -0.9313   -6.7400  -44.2764 H         1 UNK         0.0600 
    182 H182       -0.5892   -7.5544  -42.7492 H         1 UNK         0.0600 
    183 H183       -2.2451   -7.1520  -43.1868 H         1 UNK         0.0600 
    184 H184        0.6443   -8.7080  -44.5714 H         1 UNK         0.3000 
    185 H185        1.8657   -9.7000  -46.5501 H         1 UNK         0.0600 
    186 H186        3.3694  -11.2766  -45.2109 H         1 UNK         0.0600 
    187 H187        2.4690  -10.1810  -44.1810 H         1 UNK         0.0600 
    188 H188        1.9461  -11.8500  -44.3459 H         1 UNK         0.0600 
    189 H189        0.5753  -12.1982  -47.0809 H         1 UNK         0.3000 
    190 H190       -2.3685  -22.4719  -46.6397 H         1 UNK         0.3000 
    191 H191       -4.2823  -23.9961  -48.0795 H         1 UNK         0.0600 
    192 H192       -4.7147  -21.7509  -46.9759 H         1 UNK         0.0600 
    193 H193       -5.9113  -22.9633  -46.5557 H         1 UNK         0.0600 
    194 H194       -4.6552  -22.5268  -45.4084 H         1 UNK         0.0600 
    195 H195       -3.1191  -24.2865  -44.6749 H         1 UNK         0.3000 
    196 H196       -4.7012  -26.4974  -43.9415 H         1 UNK         0.0600 
    197 H197       -3.1144  -26.6586  -42.0148 H         1 UNK         0.0600 
    198 H198       -3.6044  -24.9970  -42.3078 H         1 UNK         0.0600 
    199 H199       -2.0113  -25.5495  -42.8205 H         1 UNK         0.0600 
    200 H200       -1.3975  -26.4028  -45.3113 H         1 UNK         0.3000 
    201 H201       -0.9915  -29.2617  -45.2917 H         1 UNK         0.0600 
    202 H202        0.8762  -27.6112  -45.2715 H         1 UNK         0.0600 
    203 H203        0.3917  -27.0150  -46.8581 H         1 UNK         0.0600 
    204 H204        0.9982  -28.6573  -46.6779 H         1 UNK         0.0600 
    205 H205       -2.8522  -27.2106  -47.3167 H         1 UNK         0.3000 
    206 H206       -3.8451  -27.2777  -49.2766 H         1 UNK         0.0600 
    207 H207       -4.8415  -29.4228  -48.4463 H         1 UNK         0.0600 
    208 H208       -4.6698  -29.4092  -50.1940 H         1 UNK         0.0600 
    209 H209       -3.5368  -30.3279  -49.2134 H         1 UNK         0.0600 
    210 H210       -1.1899  -26.6326  -49.2476 H         1 UNK         0.3000 
    211 H211        0.2739  -27.9828  -51.4116 H         1 UNK         0.0600 
    212 H212        0.9785  -25.5610  -49.6637 H         1 UNK         0.0600 
    213 H213        2.0764  -26.4011  -50.7505 H         1 UNK         0.0600 
    214 H214        1.4445  -27.2303  -49.3361 H         1 UNK         0.0600 
    215 H215       -1.8012  -25.1746  -50.9908 H         1 UNK         0.3000 
    216 H216       -1.7913  -24.5347  -53.7881 H         1 UNK         0.0600 
    217 H217       -0.9435  -22.2265  -53.5733 H         1 UNK         0.0600 
    218 H218        0.3067  -23.2954  -52.9774 H         1 UNK         0.0600 
    219 H219       -0.7112  -22.4128  -51.8386 H         1 UNK         0.0600 
    220 H220       -3.2303  -22.5041  -54.0546 H         1 UNK         0.3000 
    221 H221       -5.7316  -22.9723  -52.6894 H         1 UNK         0.0600 
    222 H222       -4.9532  -20.9323  -54.8381 H         1 UNK         0.0600 
    223 H223       -5.5734  -22.5558  -55.1431 H         1 UNK         0.0600 
    224 H224       -6.5906  -21.3593  -54.3603 H         1 UNK         0.0600 
    225 H225       -4.1608  -22.2570  -50.6870 H         1 UNK         0.3000 
    226 H226       -3.8370  -20.9486  -48.9213 H         1 UNK         0.0600 
    227 H227       -6.3109  -21.2028  -48.7442 H         1 UNK         0.0600 
    228 H228       -5.8128  -19.6469  -48.1064 H         1 UNK         0.0600 
    229 H229       -6.5678  -19.7537  -49.6983 H         1 UNK         0.0600 
    230 H230       -5.4513  -18.0706  -49.7000 H         1 UNK         0.3000 
    231 H231       -2.9088  -16.6423  -50.3375 H         1 UNK         0.0600 
    232 H232       -5.6067  -15.6618  -49.2534 H         1 UNK         0.0600 
    233 H233       -4.2161  -14.6395  -49.5765 H         1 UNK         0.0600 
    234 H234       -4.1256  -15.8603  -48.3192 H         1 UNK         0.0600 
    235 H235       -5.7245  -17.8692  -51.9045 H         1 UNK         0.3000 
    236 H236       -6.3577  -15.6306  -53.5972 H         1 UNK         0.0600 
    237 H237       -8.0111  -17.4056  -52.9624 H         1 UNK         0.0600 
    238 H238       -7.8719  -17.2265  -54.7044 H         1 UNK         0.0600 
    239 H239       -7.1017  -18.5871  -53.9054 H         1 UNK         0.0600 
    240 H240       -3.9843  -18.1500  -53.7646 H         1 UNK         0.3000 
    241 H241       -3.3328  -17.8557  -56.5721 H         1 UNK         0.0600 
    242 H242       -1.4580  -14.8151  -54.7250 H         1 UNK         0.3800 
    243 H243       -2.7986  -15.6283  -53.9617 H         1 UNK         0.3800 
    244 H244       -2.8070  -19.9647  -55.6005 H         1 UNK         0.0800 
    245 H245       -1.2921  -19.2099  -55.9714 H         1 UNK         0.0800 
    246 H246        0.1853  -17.9189  -54.0400 H         1 UNK         0.0800 
    247 H247        0.6082  -19.5894  -54.3323 H         1 UNK         0.0800 
@<TRIPOS>BOND
     1    1    2 1    
     2    1  127 1    
     3    1  128 1    
     4    1  129 1    
     5    2    3 2    
     6    2    4 am   BACKBONE|DICT|INTERRES
     7    4    5 1    
     8    4  130 1    
     9    5    6 1    
    10    5   65 1    
    11    5  131 1    
    12    6    7 1    
    13    6  132 1    
    14    6  133 1    
    15    7    8 1    
    16    8    9 1    
    17    8  134 1    
    18    8  135 1    
    19    9   10 ar   
    20    9   14 ar   
    21   10   11 ar   
    22   10  136 1    
    23   11   12 ar   
    24   11  126 1    
    25   12   13 ar   
    26   12  137 1    
    27   13   14 ar   
    28   13   15 1    
    29   14  138 1    
    30   15   16 1    
    31   15  139 1    
    32   15  140 1    
    33   16   17 1    
    34   17   18 1    
    35   17  141 1    
    36   17  142 1    
    37   18   19 1    
    38   18   67 1    
    39   18  143 1    
    40   19   20 am   BACKBONE|DICT|INTERRES
    41   19  144 1    
    42   20   21 2    
    43   20   22 1    
    44   22   23 1    
    45   22   24 1    
    46   22  145 1    
    47   23  146 1    
    48   23  147 1    
    49   23  148 1    
    50   24   25 am   BACKBONE|DICT|INTERRES
    51   24  149 1    
    52   25   26 2    
    53   25   27 1    
    54   27   28 1    
    55   27   29 1    
    56   27  150 1    
    57   28  151 1    
    58   28  152 1    
    59   28  153 1    
    60   29   30 am   BACKBONE|DICT|INTERRES
    61   29  154 1    
    62   30   31 2    
    63   30   32 1    
    64   32   33 1    
    65   32   34 1    
    66   32  155 1    
    67   33  156 1    
    68   33  157 1    
    69   33  158 1    
    70   34   35 am   BACKBONE|DICT|INTERRES
    71   34  159 1    
    72   35   36 2    
    73   35   37 1    
    74   37   38 1    
    75   37   39 1    
    76   37  160 1    
    77   38  161 1    
    78   38  162 1    
    79   38  163 1    
    80   39   40 am   BACKBONE|DICT|INTERRES
    81   39  164 1    
    82   40   41 2    
    83   40   42 1    
    84   42   43 1    
    85   42   44 1    
    86   42  165 1    
    87   43  166 1    
    88   43  167 1    
    89   43  168 1    
    90   44   45 am   BACKBONE|DICT|INTERRES
    91   44  169 1    
    92   45   46 2    
    93   45   47 1    
    94   47   48 1    
    95   47   49 1    
    96   47  170 1    
    97   48  171 1    
    98   48  172 1    
    99   48  173 1    
   100   49   50 am   BACKBONE|DICT|INTERRES
   101   49  174 1    
   102   50   51 2    
   103   50   52 1    
   104   52   53 1    
   105   52   54 1    
   106   52  175 1    
   107   53  176 1    
   108   53  177 1    
   109   53  178 1    
   110   54   55 am   BACKBONE|DICT|INTERRES
   111   54  179 1    
   112   55   56 2    
   113   55   57 1    
   114   57   58 1    
   115   57   59 1    
   116   57  180 1    
   117   58  181 1    
   118   58  182 1    
   119   58  183 1    
   120   59   60 am   BACKBONE|DICT|INTERRES
   121   59  184 1    
   122   60   61 2    
   123   60   62 1    
   124   62   63 1    
   125   62   64 1    
   126   62  185 1    
   127   63  186 1    
   128   63  187 1    
   129   63  188 1    
   130   64   65 am   BACKBONE|DICT|INTERRES
   131   64  189 1    
   132   65   66 2    
   133   67   68 2    
   134   67   69 am   BACKBONE|DICT|INTERRES
   135   69   70 1    
   136   69  190 1    
   137   70   71 1    
   138   70   72 1    
   139   70  191 1    
   140   71  192 1    
   141   71  193 1    
   142   71  194 1    
   143   72   73 2    
   144   72   74 am   BACKBONE|DICT|INTERRES
   145   74   75 1    
   146   74  195 1    
   147   75   76 1    
   148   75   77 1    
   149   75  196 1    
   150   76  197 1    
   151   76  198 1    
   152   76  199 1    
   153   77   78 2    
   154   77   79 am   BACKBONE|DICT|INTERRES
   155   79   80 1    
   156   79  200 1    
   157   80   81 1    
   158   80   82 1    
   159   80  201 1    
   160   81  202 1    
   161   81  203 1    
   162   81  204 1    
   163   82   83 2    
   164   82   84 am   BACKBONE|DICT|INTERRES
   165   84   85 1    
   166   84  205 1    
   167   85   86 1    
   168   85   87 1    
   169   85  206 1    
   170   86  207 1    
   171   86  208 1    
   172   86  209 1    
   173   87   88 2    
   174   87   89 am   BACKBONE|DICT|INTERRES
   175   89   90 1    
   176   89  210 1    
   177   90   91 1    
   178   90   92 1    
   179   90  211 1    
   180   91  212 1    
   181   91  213 1    
   182   91  214 1    
   183   92   93 2    
   184   92   94 am   BACKBONE|DICT|INTERRES
   185   94   95 1    
   186   94  215 1    
   187   95   96 1    
   188   95   97 1    
   189   95  216 1    
   190   96  217 1    
   191   96  218 1    
   192   96  219 1    
   193   97   98 2    
   194   97   99 am   BACKBONE|DICT|INTERRES
   195   99  100 1    
   196   99  220 1    
   197  100  101 1    
   198  100  102 1    
   199  100  221 1    
   200  101  222 1    
   201  101  223 1    
   202  101  224 1    
   203  102  103 2    
   204  102  104 am   BACKBONE|DICT|INTERRES
   205  104  105 1    
   206  104  225 1    
   207  105  106 1    
   208  105  107 1    
   209  105  226 1    
   210  106  227 1    
   211  106  228 1    
   212  106  229 1    
   213  107  108 2    
   214  107  109 am   BACKBONE|DICT|INTERRES
   215  109  110 1    
   216  109  230 1    
   217  110  111 1    
   218  110  112 1    
   219  110  231 1    
   220  111  232 1    
   221  111  233 1    
   222  111  234 1    
   223  112  113 2    
   224  112  114 am   BACKBONE|DICT|INTERRES
   225  114  115 1    
   226  114  235 1    
   227  115  116 1    
   228  115  117 1    
   229  115  236 1    
   230  116  237 1    
   231  116  238 1    
   232  116  239 1    
   233  117  118 2    
   234  117  119 am   BACKBONE|DICT|INTERRES
   235  119  120 1    
   236  119  240 1    
   237  120  121 1    
   238  120  124 1    
   239  120  241 1    
   240  121  122 am   BACKBONE|DICT|INTERRES
   241  121  123 2    
   242  122  242 1    
   243  122  243 1    
   244  124  125 1    
   245  124  244 1    
   246  124  245 1    
   247  125  126 1    
   248  126  246 1    
   249  126  247 1    
@<TRIPOS>SUBSTRUCTURE
     1 UNK         1 GROUP             0       ****    0 ROOT    
