@<TRIPOS>MOLECULE
3R540
247   249    1
SMALL
USER_CHARGES


@<TRIPOS>ATOM
      1 CA          1.4903  -15.8900  -49.8447 C.3       0 UNK        -0.1800 
      2 C           0.8690  -14.6832  -50.5371 C.2       0 UNK         0.5000 
      3 O           0.8775  -14.6249  -51.7642 O.2       0 UNK        -0.5000 
      4 N           0.3217  -13.7003  -49.8125 N.am      1 UNK        -0.5000 
      5 CA          0.2466  -13.5889  -48.3510 C.3       1 UNK         0.1400 
      6 C6         -1.2037  -13.7740  -47.8267 C.3       23 UNK        -0.0398 
      7 S7         -1.6426  -15.5364  -47.6986 S.3       23 UNK        -0.2404 
      8 C8         -2.6414  -15.8080  -49.1877 C.3       23 UNK        -0.0205 
      9 C9         -2.7796  -17.2965  -49.4617 C.ar      23 UNK        -0.0193 
     10 C10        -1.8109  -17.9522  -50.2248 C.ar      23 UNK        -0.1150 
     11 C11        -1.9133  -19.3214  -50.4749 C.ar      23 UNK        -0.0193 
     12 C12        -3.0039  -20.0317  -49.9693 C.ar      23 UNK        -0.1150 
     13 C13        -3.9887  -19.3910  -49.2108 C.ar      23 UNK        -0.0193 
     14 C14        -3.8647  -18.0202  -48.9558 C.ar      23 UNK        -0.1150 
     15 C15        -5.2073  -20.1543  -48.6935 C.3       23 UNK        -0.0205 
     16 S16        -4.8367  -21.8129  -48.0186 S.3       23 UNK        -0.2404 
     17 C17        -3.6210  -21.4192  -46.7178 C.3       23 UNK        -0.0398 
     18 CA         -2.2088  -21.9558  -47.0669 C.3       11 UNK         0.1400 
     19 N          -1.1489  -20.9993  -46.7452 N.am      11 UNK        -0.5000 
     20 C           0.0547  -21.0042  -47.3305 C.2       10 UNK         0.5000 
     21 O           0.3998  -21.8332  -48.1727 O.2       10 UNK        -0.5000 
     22 CA          1.0466  -19.9205  -46.8834 C.3       10 UNK         0.1400 
     23 CB          0.7100  -18.5818  -47.5497 C.3       10 UNK        -0.1800 
     24 N           1.1154  -19.7362  -45.4332 N.am      10 UNK        -0.5000 
     25 C           1.5874  -20.6550  -44.5791 C.2       9 UNK         0.5000 
     26 O           1.8523  -21.8125  -44.9010 O.2       9 UNK        -0.5000 
     27 CA          1.7993  -20.2069  -43.1260 C.3       9 UNK         0.1400 
     28 CB          2.9212  -19.1609  -43.0307 C.3       9 UNK        -0.1800 
     29 N           0.5643  -19.6505  -42.5862 N.am      9 UNK        -0.5000 
     30 C          -0.2713  -20.3084  -41.7711 C.2       8 UNK         0.5000 
     31 O          -0.0199  -21.4039  -41.2690 O.2       8 UNK        -0.5000 
     32 CA         -1.6351  -19.6491  -41.4818 C.3       8 UNK         0.1400 
     33 CB         -1.6247  -18.9595  -40.1095 C.3       8 UNK        -0.1800 
     34 N          -2.0462  -18.6911  -42.5124 N.am      8 UNK        -0.5000 
     35 C          -2.3364  -19.0292  -43.7776 C.2       7 UNK         0.5000 
     36 O          -2.3122  -20.1872  -44.1916 O.2       7 UNK        -0.5000 
     37 CA         -2.6468  -17.8944  -44.7703 C.3       7 UNK         0.1400 
     38 CB         -4.1626  -17.7130  -44.9340 C.3       7 UNK        -0.1800 
     39 N          -2.0463  -16.6087  -44.4177 N.am      7 UNK        -0.5000 
     40 C          -0.7339  -16.3592  -44.3160 C.2       6 UNK         0.5000 
     41 O           0.1365  -17.2260  -44.4404 O.2       6 UNK        -0.5000 
     42 CA         -0.3204  -14.9001  -44.0229 C.3       6 UNK         0.1400 
     43 CB         -1.5030  -13.9467  -43.7404 C.3       6 UNK        -0.1800 
     44 N           0.6621  -14.8021  -42.9434 N.am      6 UNK        -0.5000 
     45 C           0.5688  -15.3166  -41.7074 C.2       5 UNK         0.5000 
     46 O          -0.3974  -15.9646  -41.3041 O.2       5 UNK        -0.5000 
     47 CA          1.7546  -15.0640  -40.7548 C.3       5 UNK         0.1400 
     48 CB          2.6768  -16.2910  -40.7150 C.3       5 UNK        -0.1800 
     49 N           2.5465  -13.8874  -41.1211 N.am      5 UNK        -0.5000 
     50 C           2.1495  -12.6195  -40.9442 C.2       4 UNK         0.5000 
     51 O           1.1054  -12.3039  -40.3726 O.2       4 UNK        -0.5000 
     52 CA          3.0619  -11.5169  -41.5188 C.3       4 UNK         0.1400 
     53 CB          4.0159  -10.9917  -40.4350 C.3       4 UNK        -0.1800 
     54 N           3.8473  -11.9274  -42.6896 N.am      4 UNK        -0.5000 
     55 C           3.3315  -12.3035  -43.8673 C.2       3 UNK         0.5000 
     56 O           2.1242  -12.4385  -44.0758 O.2       3 UNK        -0.5000 
     57 CA          4.3352  -12.6387  -44.9844 C.3       3 UNK         0.1400 
     58 CB          4.6487  -14.1435  -44.9780 C.3       3 UNK        -0.1800 
     59 N           3.8117  -12.2719  -46.2999 N.am      3 UNK        -0.5000 
     60 C           3.6215  -11.0169  -46.7333 C.2       2 UNK         0.5000 
     61 O           3.9644  -10.0167  -46.1013 O.2       2 UNK        -0.5000 
     62 CA          2.9366  -10.8488  -48.1055 C.3       2 UNK         0.1400 
     63 CB          3.9859  -10.6362  -49.2078 C.3       2 UNK        -0.1800 
     64 N           2.0962  -11.9945  -48.4641 N.am      2 UNK        -0.5000 
     65 C           0.8915  -12.2517  -47.9338 C.2       1 UNK         0.5000 
     66 O           0.3129  -11.4859  -47.1625 O.2       1 UNK        -0.5000 
     67 C          -1.9326  -23.3286  -46.4280 C.2       11 UNK         0.5000 
     68 O          -2.3095  -24.3483  -47.0037 O.2       11 UNK        -0.5000 
     69 N          -1.2388  -23.3387  -45.2802 N.am      12 UNK        -0.5000 
     70 CA         -0.7434  -24.5499  -44.6288 C.3       12 UNK         0.1400 
     71 CB         -0.2403  -24.2147  -43.2175 C.3       12 UNK        -0.1800 
     72 C           0.3503  -25.2382  -45.4651 C.2       12 UNK         0.5000 
     73 O           0.2782  -26.4493  -45.6721 O.2       12 UNK        -0.5000 
     74 N           1.3056  -24.4496  -45.9802 N.am      13 UNK        -0.5000 
     75 CA          2.3689  -24.9023  -46.8812 C.3       13 UNK         0.1400 
     76 CB          3.3769  -23.7637  -47.0981 C.3       13 UNK        -0.1800 
     77 C           1.8351  -25.4213  -48.2300 C.2       13 UNK         0.5000 
     78 O           2.3466  -26.4171  -48.7428 O.2       13 UNK        -0.5000 
     79 N           0.7941  -24.7634  -48.7587 N.am      14 UNK        -0.5000 
     80 CA          0.0791  -25.1679  -49.9722 C.3       14 UNK         0.1400 
     81 CB         -0.6496  -23.9464  -50.5490 C.3       14 UNK        -0.1800 
     82 C          -0.9008  -26.3428  -49.7595 C.2       14 UNK         0.5000 
     83 O          -1.4557  -26.8377  -50.7412 O.2       14 UNK        -0.5000 
     84 N          -1.0928  -26.7673  -48.5012 N.am      15 UNK        -0.5000 
     85 CA         -1.9614  -27.8544  -48.0428 C.3       15 UNK         0.1400 
     86 CB         -1.4470  -29.2174  -48.5523 C.3       15 UNK        -0.1800 
     87 C          -3.4505  -27.6021  -48.3580 C.2       15 UNK         0.5000 
     88 O          -4.1224  -28.4764  -48.9083 O.2       15 UNK        -0.5000 
     89 N          -3.9259  -26.4050  -47.9830 N.am      16 UNK        -0.5000 
     90 CA         -5.2816  -25.8763  -48.1542 C.3       16 UNK         0.1400 
     91 CB         -6.3170  -26.7216  -47.3828 C.3       16 UNK        -0.1800 
     92 C          -5.6313  -25.6970  -49.6426 C.2       16 UNK         0.5000 
     93 O          -6.3746  -26.4976  -50.2149 O.2       16 UNK        -0.5000 
     94 N          -5.0541  -24.6501  -50.2457 N.am      17 UNK        -0.5000 
     95 CA         -5.2694  -24.2584  -51.6388 C.3       17 UNK         0.1400 
     96 CB         -4.3270  -23.0944  -51.9759 C.3       17 UNK        -0.1800 
     97 C          -6.7269  -23.8459  -51.9238 C.2       17 UNK         0.5000 
     98 O          -7.4132  -23.3333  -51.0360 O.2       17 UNK        -0.5000 
     99 N          -7.1567  -24.0426  -53.1766 N.am      18 UNK        -0.5000 
    100 CA        -8.4924  -23.6843  -53.6637 C.3       18 UNK         0.1400 
    101 CB        -8.7372  -24.3915  -55.0059 C.3       18 UNK        -0.1800 
    102 C         -8.7105  -22.1642  -53.8095 C.2       18 UNK         0.5000 
    103 O         -9.8581  -21.7164  -53.8146 O.2       18 UNK        -0.5000 
    104 N         -7.6178  -21.4023  -53.9248 N.am      19 UNK        -0.5000 
    105 CA        -7.5925  -19.9489  -54.0149 C.3       19 UNK         0.1400 
    106 CB        -7.8195  -19.5121  -55.4738 C.3       19 UNK        -0.1800 
    107 C         -6.2364  -19.4529  -53.4976 C.2       19 UNK         0.5000 
    108 O         -5.2699  -20.2172  -53.4766 O.2       19 UNK        -0.5000 
    109 N         -6.1781  -18.1668  -53.1367 N.am      20 UNK        -0.5000 
    110 CA        -4.9865  -17.4785  -52.6291 C.3       20 UNK         0.1400 
    111 CB        -5.4470  -16.2764  -51.7870 C.3       20 UNK        -0.1800 
    112 C         -3.9935  -17.0438  -53.7312 C.2       20 UNK         0.5000 
    113 O         -3.0687  -16.2820  -53.4462 O.2       20 UNK        -0.5000 
    114 N         -4.1897  -17.5208  -54.9698 N.am      21 UNK        -0.5000 
    115 CA        -3.3900  -17.2110  -56.1614 C.3       21 UNK         0.1400 
    116 CB        -4.0248  -17.9100  -57.3735 C.3       21 UNK        -0.1800 
    117 C         -1.8951  -17.5782  -56.0468 C.2       21 UNK         0.5000 
    118 O         -1.0689  -16.9827  -56.7394 O.2       21 UNK        -0.5000 
    119 N         -1.5769  -18.5286  -55.1613 N.am      22 UNK        -0.5000 
    120 CA        -0.2185  -18.8659  -54.7104 C.3       22 UNK         0.1400 
    121 C          0.4742  -17.7782  -53.8327 C.2       22 UNK         0.5000 
    122 N         -0.2178  -16.7489  -53.3593 N.am      22 UNK        -0.7600 
    123 O          1.6747  -17.8662  -53.5910 O.2       22 UNK        -0.5000 
    124 C124       -0.1670  -20.2701  -54.0441 C.3       23 UNK        -0.0398 
    125 S125       -1.5387  -20.5995  -52.8811 S.3       23 UNK        -0.2404 
    126 C126       -0.8523  -20.0352  -51.2943 C.3       23 UNK        -0.0205 
    127 H127        2.3937  -15.6060  -49.3056 H         1 UNK         0.0600 
    128 H128        1.7562  -16.6568  -50.5730 H         1 UNK         0.0600 
    129 H129        0.7835  -16.3301  -49.1458 H         1 UNK         0.0600 
    130 H130       -0.0588  -12.9065  -50.3090 H         1 UNK         0.3000 
    131 H131        0.8738  -14.3406  -47.8699 H         1 UNK         0.0600 
    132 H132       -1.9241  -13.2423  -48.4502 H         1 UNK         0.0800 
    133 H133       -1.3182  -13.3674  -46.8213 H         1 UNK         0.0800 
    134 H134       -2.1767  -15.3167  -50.0440 H         1 UNK         0.0800 
    135 H135       -3.6219  -15.3483  -49.0565 H         1 UNK         0.0800 
    136 H136       -0.9742  -17.3948  -50.6204 H         1 UNK         0.1150 
    137 H137       -3.0830  -21.0876  -50.1780 H         1 UNK         0.1150 
    138 H138       -4.6172  -17.5106  -48.3709 H         1 UNK         0.1150 
    139 H139       -5.7181  -19.5767  -47.9217 H         1 UNK         0.0800 
    140 H140       -5.9159  -20.2660  -49.5152 H         1 UNK         0.0800 
    141 H141       -3.9834  -21.8008  -45.7612 H         1 UNK         0.0800 
    142 H142       -3.5950  -20.3363  -46.6007 H         1 UNK         0.0800 
    143 H143       -2.1629  -22.1103  -48.1461 H         1 UNK         0.0600 
    144 H144       -1.3397  -20.3550  -45.9886 H         1 UNK         0.3000 
    145 H145        2.0385  -20.2247  -47.2244 H         1 UNK         0.0600 
    146 H146        1.4451  -17.8185  -47.2949 H         1 UNK         0.0600 
    147 H147        0.7020  -18.6829  -48.6356 H         1 UNK         0.0600 
    148 H148       -0.2714  -18.2156  -47.2476 H         1 UNK         0.0600 
    149 H149        0.8847  -18.8084  -45.0856 H         1 UNK         0.3000 
    150 H150        2.1127  -21.0819  -42.5527 H         1 UNK         0.0600 
    151 H151        3.8350  -19.5223  -43.5041 H         1 UNK         0.0600 
    152 H152        3.1614  -18.9464  -41.9899 H         1 UNK         0.0600 
    153 H153        2.6482  -18.2219  -43.5138 H         1 UNK         0.0600 
    154 H154        0.2649  -18.7620  -42.9704 H         1 UNK         0.3000 
    155 H155       -2.3821  -20.4451  -41.4539 H         1 UNK         0.0600 
    156 H156       -0.8479  -18.1978  -40.0460 H         1 UNK         0.0600 
    157 H157       -1.4347  -19.6820  -39.3149 H         1 UNK         0.0600 
    158 H158       -2.5824  -18.4851  -39.8950 H         1 UNK         0.0600 
    159 H159       -2.0325  -17.7127  -42.2569 H         1 UNK         0.3000 
    160 H160       -2.2377  -18.1898  -45.7384 H         1 UNK         0.0600 
    161 H161       -4.6265  -17.3581  -44.0130 H         1 UNK         0.0600 
    162 H162       -4.6468  -18.6524  -45.2034 H         1 UNK         0.0600 
    163 H163       -4.3885  -16.9960  -45.7238 H         1 UNK         0.0600 
    164 H164       -2.6867  -15.8395  -44.2872 H         1 UNK         0.3000 
    165 H165        0.1814  -14.5458  -44.9244 H         1 UNK         0.0600 
    166 H166       -2.0600  -14.2397  -42.8496 H         1 UNK         0.0600 
    167 H167       -1.1460  -12.9283  -43.5837 H         1 UNK         0.0600 
    168 H168       -2.2002  -13.9105  -44.5780 H         1 UNK         0.0600 
    169 H169        1.4735  -14.2384  -43.1632 H         1 UNK         0.3000 
    170 H170        1.3452  -14.9122  -39.7538 H         1 UNK         0.0600 
    171 H171        2.1188  -17.1922  -40.4563 H         1 UNK         0.0600 
    172 H172        3.1543  -16.4631  -41.6800 H         1 UNK         0.0600 
    173 H173        3.4620  -16.1703  -39.9685 H         1 UNK         0.0600 
    174 H174        3.4273  -14.0542  -41.5847 H         1 UNK         0.3000 
    175 H175        2.4151  -10.6939  -41.8300 H         1 UNK         0.0600 
    176 H176        4.7129  -11.7628  -40.1044 H         1 UNK         0.0600 
    177 H177        4.5981  -10.1443  -40.7977 H         1 UNK         0.0600 
    178 H178        3.4628  -10.6516  -39.5583 H         1 UNK         0.0600 
    179 H179        4.8509  -11.8630  -42.5955 H         1 UNK         0.3000 
    180 H180        5.2598  -12.0832  -44.8133 H         1 UNK         0.0600 
    181 H181        5.3756  -14.3984  -45.7495 H         1 UNK         0.0600 
    182 H182        3.7536  -14.7436  -45.1489 H         1 UNK         0.0600 
    183 H183        5.0721  -14.4519  -44.0212 H         1 UNK         0.0600 
    184 H184        3.4806  -13.0285  -46.8774 H         1 UNK         0.3000 
    185 H185        2.3094   -9.9560  -48.0555 H         1 UNK         0.0600 
    186 H186        3.5127  -10.4548  -50.1730 H         1 UNK         0.0600 
    187 H187        4.6137   -9.7718  -48.9876 H         1 UNK         0.0600 
    188 H188        4.6427  -11.5007  -49.3120 H         1 UNK         0.0600 
    189 H189        2.4829  -12.6473  -49.1303 H         1 UNK         0.3000 
    190 H190       -0.9678  -22.4547  -44.8741 H         1 UNK         0.3000 
    191 H191       -1.5785  -25.2471  -44.5320 H         1 UNK         0.0600 
    192 H192        0.1072  -25.1122  -42.7046 H         1 UNK         0.0600 
    193 H193       -1.0343  -23.7803  -42.6098 H         1 UNK         0.0600 
    194 H194        0.5888  -23.5074  -43.2365 H         1 UNK         0.0600 
    195 H195        1.3263  -23.4670  -45.7200 H         1 UNK         0.3000 
    196 H196        2.8896  -25.7282  -46.3922 H         1 UNK         0.0600 
    197 H197        2.9058  -22.8890  -47.5478 H         1 UNK         0.0600 
    198 H198        3.8275  -23.4523  -46.1556 H         1 UNK         0.0600 
    199 H199        4.1868  -24.0777  -47.7578 H         1 UNK         0.0600 
    200 H200        0.4834  -23.9062  -48.3139 H         1 UNK         0.3000 
    201 H201        0.8138  -25.4952  -50.7106 H         1 UNK         0.0600 
    202 H202       -1.4223  -23.5798  -49.8732 H         1 UNK         0.0600 
    203 H203       -1.1252  -24.1898  -51.4993 H         1 UNK         0.0600 
    204 H204        0.0496  -23.1335  -50.7405 H         1 UNK         0.0600 
    205 H205       -0.5999  -26.2784  -47.7654 H         1 UNK         0.3000 
    206 H206       -1.8815  -27.8649  -46.9549 H         1 UNK         0.0600 
    207 H207       -0.4019  -29.3687  -48.2819 H         1 UNK         0.0600 
    208 H208       -2.0171  -30.0373  -48.1141 H         1 UNK         0.0600 
    209 H209       -1.5293  -29.3053  -49.6360 H         1 UNK         0.0600 
    210 H210       -3.2621  -25.7408  -47.5847 H         1 UNK         0.3000 
    211 H211       -5.2813  -24.8832  -47.7023 H         1 UNK         0.0600 
    212 H212       -7.3072  -26.2693  -47.4467 H         1 UNK         0.0600 
    213 H213       -6.0587  -26.7909  -46.3262 H         1 UNK         0.0600 
    214 H214       -6.3988  -27.7355  -47.7747 H         1 UNK         0.0600 
    215 H215       -4.4860  -24.0275  -49.6907 H         1 UNK         0.3000 
    216 H216       -5.0123  -25.1141  -52.2664 H         1 UNK         0.0600 
    217 H217       -3.2942  -23.3233  -51.7200 H         1 UNK         0.0600 
    218 H218       -4.6135  -22.1855  -51.4461 H         1 UNK         0.0600 
    219 H219       -4.3511  -22.8662  -53.0420 H         1 UNK         0.0600 
    220 H220       -6.5318  -24.4602  -53.8513 H         1 UNK         0.3000 
    221 H221       -9.2283  -24.0525  -52.9456 H         1 UNK         0.0600 
    222 H222       -8.6598  -25.4740  -54.9021 H         1 UNK         0.0600 
    223 H223       -8.0215  -24.0733  -55.7650 H         1 UNK         0.0600 
    224 H224       -9.7364  -24.1741  -55.3858 H         1 UNK         0.0600 
    225 H225       -6.7021  -21.8284  -53.8600 H         1 UNK         0.3000 
    226 H226       -8.3756  -19.5324  -53.3777 H         1 UNK         0.0600 
    227 H227       -7.0516  -19.9133  -56.1366 H         1 UNK         0.0600 
    228 H228       -8.7879  -19.8512  -55.8420 H         1 UNK         0.0600 
    229 H229       -7.8018  -18.4257  -55.5684 H         1 UNK         0.0600 
    230 H230       -7.0116  -17.6017  -53.2156 H         1 UNK         0.3000 
    231 H231       -4.4428  -18.1616  -51.9736 H         1 UNK         0.0600 
    232 H232       -6.0214  -15.5655  -52.3818 H         1 UNK         0.0600 
    233 H233       -4.5978  -15.7380  -51.3665 H         1 UNK         0.0600 
    234 H234       -6.0680  -16.5976  -50.9505 H         1 UNK         0.0600 
    235 H235       -4.9586  -18.1598  -55.1027 H         1 UNK         0.3000 
    236 H236       -3.4446  -16.1322  -56.3193 H         1 UNK         0.0600 
    237 H237       -5.0543  -17.5843  -57.5238 H         1 UNK         0.0600 
    238 H238       -3.4766  -17.6820  -58.2887 H         1 UNK         0.0600 
    239 H239       -4.0288  -18.9943  -57.2543 H         1 UNK         0.0600 
    240 H240       -2.3221  -18.9620  -54.6343 H         1 UNK         0.3000 
    241 H241        0.3990  -18.9262  -55.6085 H         1 UNK         0.0600 
    242 H242        0.2594  -16.0302  -52.8227 H         1 UNK         0.3800 
    243 H243       -1.2166  -16.6585  -53.5215 H         1 UNK         0.3800 
    244 H244       -0.2361  -21.0270  -54.8263 H         1 UNK         0.0800 
    245 H245        0.7908  -20.4548  -53.5542 H         1 UNK         0.0800 
    246 H246        0.0034  -19.3799  -51.4584 H         1 UNK         0.0800 
    247 H247       -0.4778  -20.8900  -50.7323 H         1 UNK         0.0800 
@<TRIPOS>BOND
     1    1    2 1    
     2    1  127 1    
     3    1  128 1    
     4    1  129 1    
     5    2    3 2    
     6    2    4 am   BACKBONE|DICT|INTERRES
     7    4    5 1    
     8    4  130 1    
     9    5    6 1    
    10    5   65 1    
    11    5  131 1    
    12    6    7 1    
    13    6  132 1    
    14    6  133 1    
    15    7    8 1    
    16    8    9 1    
    17    8  134 1    
    18    8  135 1    
    19    9   10 ar   
    20    9   14 ar   
    21   10   11 ar   
    22   10  136 1    
    23   11   12 ar   
    24   11  126 1    
    25   12   13 ar   
    26   12  137 1    
    27   13   14 ar   
    28   13   15 1    
    29   14  138 1    
    30   15   16 1    
    31   15  139 1    
    32   15  140 1    
    33   16   17 1    
    34   17   18 1    
    35   17  141 1    
    36   17  142 1    
    37   18   19 1    
    38   18   67 1    
    39   18  143 1    
    40   19   20 am   BACKBONE|DICT|INTERRES
    41   19  144 1    
    42   20   21 2    
    43   20   22 1    
    44   22   23 1    
    45   22   24 1    
    46   22  145 1    
    47   23  146 1    
    48   23  147 1    
    49   23  148 1    
    50   24   25 am   BACKBONE|DICT|INTERRES
    51   24  149 1    
    52   25   26 2    
    53   25   27 1    
    54   27   28 1    
    55   27   29 1    
    56   27  150 1    
    57   28  151 1    
    58   28  152 1    
    59   28  153 1    
    60   29   30 am   BACKBONE|DICT|INTERRES
    61   29  154 1    
    62   30   31 2    
    63   30   32 1    
    64   32   33 1    
    65   32   34 1    
    66   32  155 1    
    67   33  156 1    
    68   33  157 1    
    69   33  158 1    
    70   34   35 am   BACKBONE|DICT|INTERRES
    71   34  159 1    
    72   35   36 2    
    73   35   37 1    
    74   37   38 1    
    75   37   39 1    
    76   37  160 1    
    77   38  161 1    
    78   38  162 1    
    79   38  163 1    
    80   39   40 am   BACKBONE|DICT|INTERRES
    81   39  164 1    
    82   40   41 2    
    83   40   42 1    
    84   42   43 1    
    85   42   44 1    
    86   42  165 1    
    87   43  166 1    
    88   43  167 1    
    89   43  168 1    
    90   44   45 am   BACKBONE|DICT|INTERRES
    91   44  169 1    
    92   45   46 2    
    93   45   47 1    
    94   47   48 1    
    95   47   49 1    
    96   47  170 1    
    97   48  171 1    
    98   48  172 1    
    99   48  173 1    
   100   49   50 am   BACKBONE|DICT|INTERRES
   101   49  174 1    
   102   50   51 2    
   103   50   52 1    
   104   52   53 1    
   105   52   54 1    
   106   52  175 1    
   107   53  176 1    
   108   53  177 1    
   109   53  178 1    
   110   54   55 am   BACKBONE|DICT|INTERRES
   111   54  179 1    
   112   55   56 2    
   113   55   57 1    
   114   57   58 1    
   115   57   59 1    
   116   57  180 1    
   117   58  181 1    
   118   58  182 1    
   119   58  183 1    
   120   59   60 am   BACKBONE|DICT|INTERRES
   121   59  184 1    
   122   60   61 2    
   123   60   62 1    
   124   62   63 1    
   125   62   64 1    
   126   62  185 1    
   127   63  186 1    
   128   63  187 1    
   129   63  188 1    
   130   64   65 am   BACKBONE|DICT|INTERRES
   131   64  189 1    
   132   65   66 2    
   133   67   68 2    
   134   67   69 am   BACKBONE|DICT|INTERRES
   135   69   70 1    
   136   69  190 1    
   137   70   71 1    
   138   70   72 1    
   139   70  191 1    
   140   71  192 1    
   141   71  193 1    
   142   71  194 1    
   143   72   73 2    
   144   72   74 am   BACKBONE|DICT|INTERRES
   145   74   75 1    
   146   74  195 1    
   147   75   76 1    
   148   75   77 1    
   149   75  196 1    
   150   76  197 1    
   151   76  198 1    
   152   76  199 1    
   153   77   78 2    
   154   77   79 am   BACKBONE|DICT|INTERRES
   155   79   80 1    
   156   79  200 1    
   157   80   81 1    
   158   80   82 1    
   159   80  201 1    
   160   81  202 1    
   161   81  203 1    
   162   81  204 1    
   163   82   83 2    
   164   82   84 am   BACKBONE|DICT|INTERRES
   165   84   85 1    
   166   84  205 1    
   167   85   86 1    
   168   85   87 1    
   169   85  206 1    
   170   86  207 1    
   171   86  208 1    
   172   86  209 1    
   173   87   88 2    
   174   87   89 am   BACKBONE|DICT|INTERRES
   175   89   90 1    
   176   89  210 1    
   177   90   91 1    
   178   90   92 1    
   179   90  211 1    
   180   91  212 1    
   181   91  213 1    
   182   91  214 1    
   183   92   93 2    
   184   92   94 am   BACKBONE|DICT|INTERRES
   185   94   95 1    
   186   94  215 1    
   187   95   96 1    
   188   95   97 1    
   189   95  216 1    
   190   96  217 1    
   191   96  218 1    
   192   96  219 1    
   193   97   98 2    
   194   97   99 am   BACKBONE|DICT|INTERRES
   195   99  100 1    
   196   99  220 1    
   197  100  101 1    
   198  100  102 1    
   199  100  221 1    
   200  101  222 1    
   201  101  223 1    
   202  101  224 1    
   203  102  103 2    
   204  102  104 am   BACKBONE|DICT|INTERRES
   205  104  105 1    
   206  104  225 1    
   207  105  106 1    
   208  105  107 1    
   209  105  226 1    
   210  106  227 1    
   211  106  228 1    
   212  106  229 1    
   213  107  108 2    
   214  107  109 am   BACKBONE|DICT|INTERRES
   215  109  110 1    
   216  109  230 1    
   217  110  111 1    
   218  110  112 1    
   219  110  231 1    
   220  111  232 1    
   221  111  233 1    
   222  111  234 1    
   223  112  113 2    
   224  112  114 am   BACKBONE|DICT|INTERRES
   225  114  115 1    
   226  114  235 1    
   227  115  116 1    
   228  115  117 1    
   229  115  236 1    
   230  116  237 1    
   231  116  238 1    
   232  116  239 1    
   233  117  118 2    
   234  117  119 am   BACKBONE|DICT|INTERRES
   235  119  120 1    
   236  119  240 1    
   237  120  121 1    
   238  120  124 1    
   239  120  241 1    
   240  121  122 am   BACKBONE|DICT|INTERRES
   241  121  123 2    
   242  122  242 1    
   243  122  243 1    
   244  124  125 1    
   245  124  244 1    
   246  124  245 1    
   247  125  126 1    
   248  126  246 1    
   249  126  247 1    
@<TRIPOS>SUBSTRUCTURE
     1 UNK         1 GROUP             0       ****    0 ROOT    
