@<TRIPOS>MOLECULE
3R540
247   249    1
SMALL
USER_CHARGES


@<TRIPOS>ATOM
      1 CA         -3.4548  -14.7956  -43.8636 C.3       0 UNK        -0.1800 
      2 C          -3.3906  -13.7522  -44.9714 C.2       0 UNK         0.5000 
      3 O          -4.4193  -13.1871  -45.3416 O.2       0 UNK        -0.5000 
      4 N          -2.1860  -13.4964  -45.4887 N.am      1 UNK        -0.5000 
      5 CA         -1.8726  -12.4875  -46.4988 C.3       1 UNK         0.1400 
      6 C6         -1.6160  -13.1109  -47.8951 C.3       23 UNK        -0.0398 
      7 S7         -3.1565  -13.6266  -48.7238 S.3       23 UNK        -0.2404 
      8 C8         -3.0785  -15.4408  -48.5947 C.3       23 UNK        -0.0205 
      9 C9         -2.0185  -16.0478  -49.5046 C.ar      23 UNK        -0.0193 
     10 C10        -2.1671  -16.0005  -50.8947 C.ar      23 UNK        -0.1150 
     11 C11        -1.2096  -16.5826  -51.7311 C.ar      23 UNK        -0.0193 
     12 C12        -0.1072  -17.2315  -51.1678 C.ar      23 UNK        -0.1150 
     13 C13         0.0462  -17.2978  -49.7811 C.ar      23 UNK        -0.0193 
     14 C14        -0.9041  -16.6880  -48.9554 C.ar      23 UNK        -0.1150 
     15 C15         1.2271  -18.0468  -49.1781 C.3       23 UNK        -0.0205 
     16 S16         0.9322  -19.8452  -49.0981 S.3       23 UNK        -0.2404 
     17 C17        -0.6406  -19.9175  -48.1796 C.3       23 UNK        -0.0398 
     18 CA         -0.8716  -21.2690  -47.4691 C.3       11 UNK         0.1400 
     19 N           0.0349  -21.4892  -46.3362 N.am      11 UNK        -0.5000 
     20 C           0.1137  -22.6378  -45.6476 C.2       10 UNK         0.5000 
     21 O          -0.5130  -23.6543  -45.9464 O.2       10 UNK        -0.5000 
     22 CA          0.9831  -22.6392  -44.3767 C.3       10 UNK         0.1400 
     23 CB          2.4694  -22.8181  -44.7191 C.3       10 UNK        -0.1800 
     24 N           0.7939  -21.4330  -43.5691 N.am      10 UNK        -0.5000 
     25 C          -0.3574  -21.0974  -42.9681 C.2       9 UNK         0.5000 
     26 O          -1.3612  -21.8089  -42.9776 O.2       9 UNK        -0.5000 
     27 CA         -0.4199  -19.7139  -42.2921 C.3       9 UNK         0.1400 
     28 CB          0.1790  -19.7604  -40.8793 C.3       9 UNK        -0.1800 
     29 N           0.2477  -18.6783  -43.0814 N.am      9 UNK        -0.5000 
     30 C          -0.1468  -18.2861  -44.3005 C.2       8 UNK         0.5000 
     31 O          -1.1642  -18.6965  -44.8559 O.2       8 UNK        -0.5000 
     32 CA          0.7780  -17.3187  -45.0545 C.3       8 UNK         0.1400 
     33 CB          0.4620  -15.8603  -44.7055 C.3       8 UNK        -0.1800 
     34 N           2.1903  -17.6028  -44.8074 N.am      8 UNK        -0.5000 
     35 C           2.8285  -18.6802  -45.2847 C.2       7 UNK         0.5000 
     36 O           2.2942  -19.5184  -46.0090 O.2       7 UNK        -0.5000 
     37 CA          4.2895  -18.8763  -44.8393 C.3       7 UNK         0.1400 
     38 CB          5.2352  -18.0196  -45.6941 C.3       7 UNK        -0.1800 
     39 N           4.4899  -18.5594  -43.4240 N.am      7 UNK        -0.5000 
     40 C           3.9587  -19.2598  -42.4118 C.2       6 UNK         0.5000 
     41 O           3.3006  -20.2874  -42.5692 O.2       6 UNK        -0.5000 
     42 CA          4.1481  -18.6921  -40.9899 C.3       6 UNK         0.1400 
     43 CB          5.4295  -19.2527  -40.3557 C.3       6 UNK        -0.1800 
     44 N           4.1774  -17.2259  -40.9249 N.am      6 UNK        -0.5000 
     45 C           3.2067  -16.4126  -41.3646 C.2       5 UNK         0.5000 
     46 O           2.1750  -16.8242  -41.8997 O.2       5 UNK        -0.5000 
     47 CA          3.4675  -14.8982  -41.2257 C.3       5 UNK         0.1400 
     48 CB          4.7317  -14.4824  -41.9995 C.3       5 UNK        -0.1800 
     49 N           2.3555  -14.0870  -41.7197 N.am      5 UNK        -0.5000 
     50 C           1.1697  -13.9203  -41.1187 C.2       4 UNK         0.5000 
     51 O           0.8743  -14.4137  -40.0285 O.2       4 UNK        -0.5000 
     52 CA          0.1692  -13.0201  -41.8776 C.3       4 UNK         0.1400 
     53 CB         -1.0756  -12.6403  -41.0497 C.3       4 UNK        -0.1800 
     54 N           0.8176  -11.8310  -42.4459 N.am      4 UNK        -0.5000 
     55 C           1.4444  -10.8518  -41.7712 C.2       3 UNK         0.5000 
     56 O           1.4868  -10.7867  -40.5420 O.2       3 UNK        -0.5000 
     57 CA          2.1826   -9.7734  -42.5926 C.3       3 UNK         0.1400 
     58 CB          3.7033   -9.9191  -42.4171 C.3       3 UNK        -0.1800 
     59 N           1.8795   -9.8075  -44.0238 N.am      3 UNK        -0.5000 
     60 C           0.7515   -9.3557  -44.5848 C.2       2 UNK         0.5000 
     61 O          -0.1624   -8.8258  -43.9508 O.2       2 UNK        -0.5000 
     62 CA          0.5986   -9.5458  -46.1091 C.3       2 UNK         0.1400 
     63 CB          1.8961   -9.9796  -46.8299 C.3       2 UNK        -0.1800 
     64 N          -0.4934  -10.4704  -46.4285 N.am      2 UNK        -0.5000 
     65 C          -0.6229  -11.7375  -46.0099 C.2       1 UNK         0.5000 
     66 O           0.1953  -12.3173  -45.2869 O.2       1 UNK        -0.5000 
     67 C          -2.3519  -21.4006  -47.0549 C.2       11 UNK         0.5000 
     68 O          -3.1158  -22.0505  -47.7642 O.2       11 UNK        -0.5000 
     69 N          -2.7331  -20.8208  -45.9082 N.am      12 UNK        -0.5000 
     70 CA         -4.0842  -20.9136  -45.3500 C.3       12 UNK         0.1400 
     71 CB         -4.2142  -19.9685  -44.1462 C.3       12 UNK        -0.1800 
     72 C          -4.4822  -22.3533  -44.9697 C.2       12 UNK         0.5000 
     73 O          -5.6300  -22.7397  -45.1915 O.2       12 UNK        -0.5000 
     74 N          -3.5250  -23.1260  -44.4370 N.am      13 UNK        -0.5000 
     75 CA         -3.6808  -24.5464  -44.1232 C.3       13 UNK         0.1400 
     76 CB         -2.5065  -25.0123  -43.2490 C.3       13 UNK        -0.1800 
     77 C          -3.8104  -25.4227  -45.3839 C.2       13 UNK         0.5000 
     78 O          -4.6423  -26.3309  -45.4044 O.2       13 UNK        -0.5000 
     79 N          -3.0019  -25.1309  -46.4135 N.am      14 UNK        -0.5000 
     80 CA         -3.0495  -25.7922  -47.7207 C.3       14 UNK         0.1400 
     81 CB         -1.7843  -25.4374  -48.5162 C.3       14 UNK        -0.1800 
     82 C          -4.3140  -25.4400  -48.5280 C.2       14 UNK         0.5000 
     83 O          -4.8015  -26.2773  -49.2888 O.2       14 UNK        -0.5000 
     84 N          -4.8208  -24.2133  -48.3439 N.am      15 UNK        -0.5000 
     85 CA         -6.0023  -23.6303  -48.9761 C.3       15 UNK         0.1400 
     86 CB         -7.2866  -24.3145  -48.4573 C.3       15 UNK        -0.1800 
     87 C          -5.8538  -23.6219  -50.5090 C.2       15 UNK         0.5000 
     88 O          -4.9264  -22.9925  -51.0184 O.2       15 UNK        -0.5000 
     89 N          -6.7292  -24.3393  -51.2228 N.am      16 UNK        -0.5000 
     90 CA         -6.7178  -24.4732  -52.6817 C.3       16 UNK         0.1400 
     91 CB         -8.0075  -25.1868  -53.1173 C.3       16 UNK        -0.1800 
     92 C          -5.4780  -25.1974  -53.2513 C.2       16 UNK         0.5000 
     93 O          -5.2477  -25.1200  -54.4574 O.2       16 UNK        -0.5000 
     94 N          -4.7107  -25.8901  -52.3973 N.am      17 UNK        -0.5000 
     95 CA         -3.4721  -26.5757  -52.7659 C.3       17 UNK         0.1400 
     96 CB         -3.3442  -27.8559  -51.9227 C.3       17 UNK        -0.1800 
     97 C          -2.2180  -25.6907  -52.6085 C.2       17 UNK         0.5000 
     98 O          -1.1232  -26.1681  -52.9106 O.2       17 UNK        -0.5000 
     99 N          -2.3650  -24.4466  -52.1222 N.am      18 UNK        -0.5000 
    100 CA        -1.2513  -23.5228  -51.8755 C.3       18 UNK         0.1400 
    101 CB        -1.7596  -22.2895  -51.1161 C.3       18 UNK        -0.1800 
    102 C         -0.5061  -23.0935  -53.1543 C.2       18 UNK         0.5000 
    103 O          0.7184  -22.9607  -53.1277 O.2       18 UNK        -0.5000 
    104 N         -1.2505  -22.9044  -54.2473 N.am      19 UNK        -0.5000 
    105 CA        -0.7596  -22.5367  -55.5698 C.3       19 UNK         0.1400 
    106 CB        -0.4874  -21.0202  -55.6209 C.3       19 UNK        -0.1800 
    107 C         -1.7946  -22.9673  -56.6232 C.2       19 UNK         0.5000 
    108 O         -2.7727  -23.6416  -56.2936 O.2       19 UNK        -0.5000 
    109 N         -1.5675  -22.5682  -57.8812 N.am      20 UNK        -0.5000 
    110 CA        -2.5028  -22.7792  -58.9895 C.3       20 UNK         0.1400 
    111 CB        -1.7508  -22.5989  -60.3175 C.3       20 UNK        -0.1800 
    112 C         -3.7265  -21.8404  -58.9324 C.2       20 UNK         0.5000 
    113 O         -4.7759  -22.1869  -59.4766 O.2       20 UNK        -0.5000 
    114 N         -3.5650  -20.6737  -58.2934 N.am      21 UNK        -0.5000 
    115 CA        -4.5982  -19.6560  -58.1203 C.3       21 UNK         0.1400 
    116 CB        -4.0296  -18.2824  -58.5253 C.3       21 UNK        -0.1800 
    117 C         -5.1093  -19.6772  -56.6707 C.2       21 UNK         0.5000 
    118 O         -6.1969  -20.1969  -56.4173 O.2       21 UNK        -0.5000 
    119 N         -4.3216  -19.1042  -55.7525 N.am      22 UNK        -0.5000 
    120 CA        -4.5900  -19.0609  -54.3071 C.3       22 UNK         0.1400 
    121 C         -4.4820  -20.4423  -53.5985 C.2       22 UNK         0.5000 
    122 N         -5.0390  -20.5653  -52.4018 N.am      22 UNK        -0.7600 
    123 O         -3.8890  -21.3919  -54.1027 O.2       22 UNK        -0.5000 
    124 C124       -3.7391  -17.9683  -53.6016 C.3       23 UNK        -0.0398 
    125 S125       -1.9485  -18.0754  -53.9457 S.3       23 UNK        -0.2404 
    126 C126       -1.3512  -16.5076  -53.2433 C.3       23 UNK        -0.0205 
    127 H127       -3.9445  -15.6990  -44.2274 H         1 UNK         0.0600 
    128 H128       -4.0272  -14.4123  -43.0188 H         1 UNK         0.0600 
    129 H129       -2.4635  -15.0670  -43.5004 H         1 UNK         0.0600 
    130 H130       -1.3629  -13.9257  -45.0900 H         1 UNK         0.3000 
    131 H131       -2.6847  -11.7604  -46.5676 H         1 UNK         0.0600 
    132 H132       -0.9225  -13.9502  -47.8241 H         1 UNK         0.0800 
    133 H133       -1.1397  -12.3874  -48.5594 H         1 UNK         0.0800 
    134 H134       -2.9110  -15.7205  -47.5534 H         1 UNK         0.0800 
    135 H135       -4.0515  -15.8521  -48.8666 H         1 UNK         0.0800 
    136 H136       -3.0275  -15.5057  -51.3231 H         1 UNK         0.1150 
    137 H137        0.6251  -17.6994  -51.8111 H         1 UNK         0.1150 
    138 H138       -0.7915  -16.7322  -47.8823 H         1 UNK         0.1150 
    139 H139        2.1197  -17.8654  -49.7783 H         1 UNK         0.0800 
    140 H140        1.4575  -17.6700  -48.1826 H         1 UNK         0.0800 
    141 H141       -0.6742  -19.1062  -47.4533 H         1 UNK         0.0800 
    142 H142       -1.4354  -19.7188  -48.9021 H         1 UNK         0.0800 
    143 H143       -0.6774  -22.0638  -48.1923 H         1 UNK         0.0600 
    144 H144        0.6351  -20.7145  -46.0723 H         1 UNK         0.3000 
    145 H145        0.6761  -23.4932  -43.7693 H         1 UNK         0.0600 
    146 H146        3.0764  -22.8819  -43.8159 H         1 UNK         0.0600 
    147 H147        2.6299  -23.7364  -45.2851 H         1 UNK         0.0600 
    148 H148        2.8510  -21.9932  -45.3198 H         1 UNK         0.0600 
    149 H149        1.6001  -20.8265  -43.4581 H         1 UNK         0.3000 
    150 H150       -1.4710  -19.4328  -42.2026 H         1 UNK         0.0600 
    151 H151       -0.3801  -20.4493  -40.2451 H         1 UNK         0.0600 
    152 H152        0.1489  -18.7799  -40.4034 H         1 UNK         0.0600 
    153 H153        1.2146  -20.0973  -40.8902 H         1 UNK         0.0600 
    154 H154        1.0664  -18.2361  -42.6741 H         1 UNK         0.3000 
    155 H155        0.5866  -17.4517  -46.1181 H         1 UNK         0.0600 
    156 H156        1.0959  -15.1692  -45.2617 H         1 UNK         0.0600 
    157 H157        0.5944  -15.6634  -43.6430 H         1 UNK         0.0600 
    158 H158       -0.5717  -15.6322  -44.9579 H         1 UNK         0.0600 
    159 H159        2.6624  -17.0071  -44.1427 H         1 UNK         0.3000 
    160 H160        4.5465  -19.9265  -44.9934 H         1 UNK         0.0600 
    161 H161        5.0462  -16.9534  -45.5621 H         1 UNK         0.0600 
    162 H162        5.1141  -18.2458  -46.7544 H         1 UNK         0.0600 
    163 H163        6.2779  -18.2100  -45.4393 H         1 UNK         0.0600 
    164 H164        5.0231  -17.7301  -43.2090 H         1 UNK         0.3000 
    165 H165        3.2999  -19.0258  -40.3899 H         1 UNK         0.0600 
    166 H166        6.3213  -18.9206  -40.8886 H         1 UNK         0.0600 
    167 H167        5.5239  -18.9421  -39.3150 H         1 UNK         0.0600 
    168 H168        5.4266  -20.3436  -40.3681 H         1 UNK         0.0600 
    169 H169        4.9986  -16.8174  -40.5027 H         1 UNK         0.3000 
    170 H170        3.6125  -14.6780  -40.1662 H         1 UNK         0.0600 
    171 H171        5.6214  -14.9824  -41.6156 H         1 UNK         0.0600 
    172 H172        4.6513  -14.7220  -43.0607 H         1 UNK         0.0600 
    173 H173        4.9101  -13.4102  -41.9126 H         1 UNK         0.0600 
    174 H174        2.4927  -13.6464  -42.6166 H         1 UNK         0.3000 
    175 H175       -0.1816  -13.6050  -42.7278 H         1 UNK         0.0600 
    176 H176       -1.7583  -12.0193  -41.6299 H         1 UNK         0.0600 
    177 H177       -1.6268  -13.5310  -40.7462 H         1 UNK         0.0600 
    178 H178       -0.8126  -12.0949  -40.1431 H         1 UNK         0.0600 
    179 H179        0.8222  -11.7922  -43.4608 H         1 UNK         0.3000 
    180 H180        1.8842   -8.8006  -42.1961 H         1 UNK         0.0600 
    181 H181        4.2392   -9.1284  -42.9427 H         1 UNK         0.0600 
    182 H182        3.9853   -9.8550  -41.3653 H         1 UNK         0.0600 
    183 H183        4.0621  -10.8776  -42.7943 H         1 UNK         0.0600 
    184 H184        2.5661  -10.2471  -44.6195 H         1 UNK         0.3000 
    185 H185        0.3114   -8.5721  -46.5086 H         1 UNK         0.0600 
    186 H186        1.7440  -10.0169  -47.9087 H         1 UNK         0.0600 
    187 H187        2.7045   -9.2702  -46.6479 H         1 UNK         0.0600 
    188 H188        2.2382  -10.9661  -46.5152 H         1 UNK         0.0600 
    189 H189       -1.2337  -10.0747  -46.9913 H         1 UNK         0.3000 
    190 H190       -2.0682  -20.2427  -45.4003 H         1 UNK         0.3000 
    191 H191       -4.7807  -20.5739  -46.1194 H         1 UNK         0.0600 
    192 H192       -5.2286  -19.9850  -43.7459 H         1 UNK         0.0600 
    193 H193       -3.9914  -18.9388  -44.4266 H         1 UNK         0.0600 
    194 H194       -3.5390  -20.2490  -43.3384 H         1 UNK         0.0600 
    195 H195       -2.6272  -22.7053  -44.2179 H         1 UNK         0.3000 
    196 H196       -4.5983  -24.6628  -43.5426 H         1 UNK         0.0600 
    197 H197       -2.6154  -26.0627  -42.9765 H         1 UNK         0.0600 
    198 H198       -2.4536  -24.4392  -42.3231 H         1 UNK         0.0600 
    199 H199       -1.5515  -24.9036  -43.7630 H         1 UNK         0.0600 
    200 H200       -2.2967  -24.4098  -46.2926 H         1 UNK         0.3000 
    201 H201       -3.0544  -26.8716  -47.5560 H         1 UNK         0.0600 
    202 H202       -0.8854  -25.7576  -47.9894 H         1 UNK         0.0600 
    203 H203       -1.7055  -24.3638  -48.6855 H         1 UNK         0.0600 
    204 H204       -1.7824  -25.9267  -49.4906 H         1 UNK         0.0600 
    205 H205       -4.2608  -23.5549  -47.8091 H         1 UNK         0.3000 
    206 H206       -6.0322  -22.5851  -48.6653 H         1 UNK         0.0600 
    207 H207       -7.3527  -24.2327  -47.3720 H         1 UNK         0.0600 
    208 H208       -8.1794  -23.8409  -48.8677 H         1 UNK         0.0600 
    209 H209       -7.3232  -25.3753  -48.7073 H         1 UNK         0.0600 
    210 H210       -7.4414  -24.8565  -50.7283 H         1 UNK         0.3000 
    211 H211       -6.7223  -23.4675  -53.1077 H         1 UNK         0.0600 
    212 H212       -8.0670  -26.1948  -52.7049 H         1 UNK         0.0600 
    213 H213       -8.0604  -25.2729  -54.2035 H         1 UNK         0.0600 
    214 H214       -8.8919  -24.6373  -52.7943 H         1 UNK         0.0600 
    215 H215       -4.9629  -25.9152  -51.4153 H         1 UNK         0.3000 
    216 H216       -3.5210  -26.8769  -53.8143 H         1 UNK         0.0600 
    217 H217       -2.4974  -28.4583  -52.2537 H         1 UNK         0.0600 
    218 H218       -4.2355  -28.4776  -52.0081 H         1 UNK         0.0600 
    219 H219       -3.1896  -27.6325  -50.8673 H         1 UNK         0.0600 
    220 H220       -3.2936  -24.1050  -51.9023 H         1 UNK         0.3000 
    221 H221       -0.5344  -24.0384  -51.2332 H         1 UNK         0.0600 
    222 H222       -2.4560  -21.7063  -51.7174 H         1 UNK         0.0600 
    223 H223       -2.2722  -22.5733  -50.1988 H         1 UNK         0.0600 
    224 H224       -0.9344  -21.6313  -50.8438 H         1 UNK         0.0600 
    225 H225       -2.2573  -23.0249  -54.1963 H         1 UNK         0.3000 
    226 H226        0.1648  -23.0818  -55.7702 H         1 UNK         0.0600 
    227 H227        0.1614  -20.6994  -54.8057 H         1 UNK         0.0600 
    228 H228        0.0043  -20.7312  -56.5498 H         1 UNK         0.0600 
    229 H229       -1.4165  -20.4554  -55.5476 H         1 UNK         0.0600 
    230 H230       -0.7296  -22.0449  -58.0904 H         1 UNK         0.3000 
    231 H231       -2.8714  -23.8064  -58.9456 H         1 UNK         0.0600 
    232 H232       -2.4114  -22.7763  -61.1673 H         1 UNK         0.0600 
    233 H233       -0.9218  -23.3020  -60.4003 H         1 UNK         0.0600 
    234 H234       -1.3487  -21.5901  -60.4198 H         1 UNK         0.0600 
    235 H235       -2.6783  -20.4989  -57.8457 H         1 UNK         0.3000 
    236 H236       -5.4523  -19.8605  -58.7695 H         1 UNK         0.0600 
    237 H237       -3.1129  -18.0367  -57.9883 H         1 UNK         0.0600 
    238 H238       -3.8014  -18.2576  -59.5910 H         1 UNK         0.0600 
    239 H239       -4.7512  -17.4877  -58.3314 H         1 UNK         0.0600 
    240 H240       -3.4332  -18.7192  -56.0350 H         1 UNK         0.3000 
    241 H241       -5.6348  -18.7615  -54.2021 H         1 UNK         0.0600 
    242 H242       -4.9537  -21.4577  -51.9179 H         1 UNK         0.3800 
    243 H243       -5.5341  -19.8081  -51.9605 H         1 UNK         0.3800 
    244 H244       -3.8920  -17.9856  -52.5212 H         1 UNK         0.0800 
    245 H245       -4.0851  -16.9877  -53.9307 H         1 UNK         0.0800 
    246 H246       -0.3792  -16.2772  -53.6818 H         1 UNK         0.0800 
    247 H247       -2.0143  -15.6913  -53.5337 H         1 UNK         0.0800 
@<TRIPOS>BOND
     1    1    2 1    
     2    1  127 1    
     3    1  128 1    
     4    1  129 1    
     5    2    3 2    
     6    2    4 am   BACKBONE|DICT|INTERRES
     7    4    5 1    
     8    4  130 1    
     9    5    6 1    
    10    5   65 1    
    11    5  131 1    
    12    6    7 1    
    13    6  132 1    
    14    6  133 1    
    15    7    8 1    
    16    8    9 1    
    17    8  134 1    
    18    8  135 1    
    19    9   10 ar   
    20    9   14 ar   
    21   10   11 ar   
    22   10  136 1    
    23   11   12 ar   
    24   11  126 1    
    25   12   13 ar   
    26   12  137 1    
    27   13   14 ar   
    28   13   15 1    
    29   14  138 1    
    30   15   16 1    
    31   15  139 1    
    32   15  140 1    
    33   16   17 1    
    34   17   18 1    
    35   17  141 1    
    36   17  142 1    
    37   18   19 1    
    38   18   67 1    
    39   18  143 1    
    40   19   20 am   BACKBONE|DICT|INTERRES
    41   19  144 1    
    42   20   21 2    
    43   20   22 1    
    44   22   23 1    
    45   22   24 1    
    46   22  145 1    
    47   23  146 1    
    48   23  147 1    
    49   23  148 1    
    50   24   25 am   BACKBONE|DICT|INTERRES
    51   24  149 1    
    52   25   26 2    
    53   25   27 1    
    54   27   28 1    
    55   27   29 1    
    56   27  150 1    
    57   28  151 1    
    58   28  152 1    
    59   28  153 1    
    60   29   30 am   BACKBONE|DICT|INTERRES
    61   29  154 1    
    62   30   31 2    
    63   30   32 1    
    64   32   33 1    
    65   32   34 1    
    66   32  155 1    
    67   33  156 1    
    68   33  157 1    
    69   33  158 1    
    70   34   35 am   BACKBONE|DICT|INTERRES
    71   34  159 1    
    72   35   36 2    
    73   35   37 1    
    74   37   38 1    
    75   37   39 1    
    76   37  160 1    
    77   38  161 1    
    78   38  162 1    
    79   38  163 1    
    80   39   40 am   BACKBONE|DICT|INTERRES
    81   39  164 1    
    82   40   41 2    
    83   40   42 1    
    84   42   43 1    
    85   42   44 1    
    86   42  165 1    
    87   43  166 1    
    88   43  167 1    
    89   43  168 1    
    90   44   45 am   BACKBONE|DICT|INTERRES
    91   44  169 1    
    92   45   46 2    
    93   45   47 1    
    94   47   48 1    
    95   47   49 1    
    96   47  170 1    
    97   48  171 1    
    98   48  172 1    
    99   48  173 1    
   100   49   50 am   BACKBONE|DICT|INTERRES
   101   49  174 1    
   102   50   51 2    
   103   50   52 1    
   104   52   53 1    
   105   52   54 1    
   106   52  175 1    
   107   53  176 1    
   108   53  177 1    
   109   53  178 1    
   110   54   55 am   BACKBONE|DICT|INTERRES
   111   54  179 1    
   112   55   56 2    
   113   55   57 1    
   114   57   58 1    
   115   57   59 1    
   116   57  180 1    
   117   58  181 1    
   118   58  182 1    
   119   58  183 1    
   120   59   60 am   BACKBONE|DICT|INTERRES
   121   59  184 1    
   122   60   61 2    
   123   60   62 1    
   124   62   63 1    
   125   62   64 1    
   126   62  185 1    
   127   63  186 1    
   128   63  187 1    
   129   63  188 1    
   130   64   65 am   BACKBONE|DICT|INTERRES
   131   64  189 1    
   132   65   66 2    
   133   67   68 2    
   134   67   69 am   BACKBONE|DICT|INTERRES
   135   69   70 1    
   136   69  190 1    
   137   70   71 1    
   138   70   72 1    
   139   70  191 1    
   140   71  192 1    
   141   71  193 1    
   142   71  194 1    
   143   72   73 2    
   144   72   74 am   BACKBONE|DICT|INTERRES
   145   74   75 1    
   146   74  195 1    
   147   75   76 1    
   148   75   77 1    
   149   75  196 1    
   150   76  197 1    
   151   76  198 1    
   152   76  199 1    
   153   77   78 2    
   154   77   79 am   BACKBONE|DICT|INTERRES
   155   79   80 1    
   156   79  200 1    
   157   80   81 1    
   158   80   82 1    
   159   80  201 1    
   160   81  202 1    
   161   81  203 1    
   162   81  204 1    
   163   82   83 2    
   164   82   84 am   BACKBONE|DICT|INTERRES
   165   84   85 1    
   166   84  205 1    
   167   85   86 1    
   168   85   87 1    
   169   85  206 1    
   170   86  207 1    
   171   86  208 1    
   172   86  209 1    
   173   87   88 2    
   174   87   89 am   BACKBONE|DICT|INTERRES
   175   89   90 1    
   176   89  210 1    
   177   90   91 1    
   178   90   92 1    
   179   90  211 1    
   180   91  212 1    
   181   91  213 1    
   182   91  214 1    
   183   92   93 2    
   184   92   94 am   BACKBONE|DICT|INTERRES
   185   94   95 1    
   186   94  215 1    
   187   95   96 1    
   188   95   97 1    
   189   95  216 1    
   190   96  217 1    
   191   96  218 1    
   192   96  219 1    
   193   97   98 2    
   194   97   99 am   BACKBONE|DICT|INTERRES
   195   99  100 1    
   196   99  220 1    
   197  100  101 1    
   198  100  102 1    
   199  100  221 1    
   200  101  222 1    
   201  101  223 1    
   202  101  224 1    
   203  102  103 2    
   204  102  104 am   BACKBONE|DICT|INTERRES
   205  104  105 1    
   206  104  225 1    
   207  105  106 1    
   208  105  107 1    
   209  105  226 1    
   210  106  227 1    
   211  106  228 1    
   212  106  229 1    
   213  107  108 2    
   214  107  109 am   BACKBONE|DICT|INTERRES
   215  109  110 1    
   216  109  230 1    
   217  110  111 1    
   218  110  112 1    
   219  110  231 1    
   220  111  232 1    
   221  111  233 1    
   222  111  234 1    
   223  112  113 2    
   224  112  114 am   BACKBONE|DICT|INTERRES
   225  114  115 1    
   226  114  235 1    
   227  115  116 1    
   228  115  117 1    
   229  115  236 1    
   230  116  237 1    
   231  116  238 1    
   232  116  239 1    
   233  117  118 2    
   234  117  119 am   BACKBONE|DICT|INTERRES
   235  119  120 1    
   236  119  240 1    
   237  120  121 1    
   238  120  124 1    
   239  120  241 1    
   240  121  122 am   BACKBONE|DICT|INTERRES
   241  121  123 2    
   242  122  242 1    
   243  122  243 1    
   244  124  125 1    
   245  124  244 1    
   246  124  245 1    
   247  125  126 1    
   248  126  246 1    
   249  126  247 1    
@<TRIPOS>SUBSTRUCTURE
     1 UNK         1 GROUP             0       ****    0 ROOT    
