@<TRIPOS>MOLECULE
3R540
247   249    1
SMALL
USER_CHARGES


@<TRIPOS>ATOM
      1 CA          1.0591   -8.9148  -47.2405 C.3       0 UNK        -0.1800 
      2 C           1.8409   -9.7171  -48.2714 C.2       0 UNK         0.5000 
      3 O           2.6233   -9.1448  -49.0309 O.2       0 UNK        -0.5000 
      4 N           1.6255  -11.0368  -48.3053 N.am      1 UNK        -0.5000 
      5 CA          2.3389  -11.9903  -49.1583 C.3       1 UNK         0.1400 
      6 C6          1.6132  -13.3608  -49.2364 C.3       23 UNK        -0.0398 
      7 S7          1.1142  -14.0421  -47.6098 S.3       23 UNK        -0.2404 
      8 C8         -0.7055  -14.0445  -47.7467 C.3       23 UNK        -0.0205 
      9 C9         -1.2527  -15.4164  -48.1174 C.ar      23 UNK        -0.0193 
     10 C10        -0.9062  -16.0184  -49.3302 C.ar      23 UNK        -0.1150 
     11 C11        -1.3990  -17.2823  -49.6642 C.ar      23 UNK        -0.0193 
     12 C12        -2.2521  -17.9421  -48.7724 C.ar      23 UNK        -0.1150 
     13 C13        -2.6336  -17.3428  -47.5667 C.ar      23 UNK        -0.0193 
     14 C14        -2.1226  -16.0819  -47.2484 C.ar      23 UNK        -0.1150 
     15 C15        -3.6526  -17.9886  -46.6285 C.3       23 UNK        -0.0205 
     16 S16        -3.6108  -19.8117  -46.5700 S.3       23 UNK        -0.2404 
     17 C17        -2.2453  -20.1234  -45.4031 C.3       23 UNK        -0.0398 
     18 CA         -1.3235  -21.2913  -45.8287 C.3       11 UNK         0.1400 
     19 N          -0.1320  -21.3652  -44.9797 N.am      11 UNK        -0.5000 
     20 C           0.9327  -22.1436  -45.2287 C.2       10 UNK         0.5000 
     21 O           1.0444  -22.8485  -46.2311 O.2       10 UNK        -0.5000 
     22 CA          2.0368  -22.1857  -44.1539 C.3       10 UNK         0.1400 
     23 CB          3.0667  -21.0730  -44.3989 C.3       10 UNK        -0.1800 
     24 N           1.5214  -22.0733  -42.7879 N.am      10 UNK        -0.5000 
     25 C           0.6401  -22.9114  -42.2228 C.2       9 UNK         0.5000 
     26 O           0.2163  -23.9250  -42.7757 O.2       9 UNK        -0.5000 
     27 CA          0.1005  -22.5376  -40.8286 C.3       9 UNK         0.1400 
     28 CB          0.8060  -23.3647  -39.7439 C.3       9 UNK        -0.1800 
     29 N           0.2116  -21.1135  -40.4935 N.am      9 UNK        -0.5000 
     30 C          -0.3670  -20.1063  -41.1616 C.2       8 UNK         0.5000 
     31 O          -1.0292  -20.2573  -42.1926 O.2       8 UNK        -0.5000 
     32 CA         -0.1029  -18.7013  -40.6016 C.3       8 UNK         0.1400 
     33 CB          1.2848  -18.2072  -41.0388 C.3       8 UNK        -0.1800 
     34 N          -1.1082  -17.7628  -41.0914 N.am      8 UNK        -0.5000 
     35 C          -2.0346  -17.1612  -40.3346 C.2       7 UNK         0.5000 
     36 O          -2.1427  -17.3454  -39.1204 O.2       7 UNK        -0.5000 
     37 CA         -3.0084  -16.1970  -41.0511 C.3       7 UNK         0.1400 
     38 CB         -3.5907  -15.1229  -40.1081 C.3       7 UNK        -0.1800 
     39 N          -2.4485  -15.5773  -42.2581 N.am      7 UNK        -0.5000 
     40 C          -1.3712  -14.7826  -42.3448 C.2       6 UNK         0.5000 
     41 O          -0.6946  -14.4153  -41.3823 O.2       6 UNK        -0.5000 
     42 CA         -0.9706  -14.3580  -43.7720 C.3       6 UNK         0.1400 
     43 CB         -0.5467  -12.8794  -43.8195 C.3       6 UNK        -0.1800 
     44 N           0.1121  -15.1698  -44.3322 N.am      6 UNK        -0.5000 
     45 C           0.1878  -16.5079  -44.4000 C.2       5 UNK         0.5000 
     46 O          -0.6910  -17.2666  -43.9921 O.2       5 UNK        -0.5000 
     47 CA          1.4600  -17.1113  -45.0302 C.3       5 UNK         0.1400 
     48 CB          1.1473  -17.8318  -46.3512 C.3       5 UNK        -0.1800 
     49 N           2.5110  -16.1250  -45.2769 N.am      5 UNK        -0.5000 
     50 C           3.3582  -15.6460  -44.3563 C.2       4 UNK         0.5000 
     51 O           3.3268  -15.9706  -43.1687 O.2       4 UNK        -0.5000 
     52 CA          4.4066  -14.6319  -44.8655 C.3       4 UNK         0.1400 
     53 CB          5.6263  -14.4999  -43.9303 C.3       4 UNK        -0.1800 
     54 N           4.8292  -14.8932  -46.2474 N.am      4 UNK        -0.5000 
     55 C           5.4346  -15.9988  -46.7162 C.2       3 UNK         0.5000 
     56 O           5.7690  -16.9504  -46.0100 O.2       3 UNK        -0.5000 
     57 CA          5.6849  -16.0805  -48.2365 C.3       3 UNK         0.1400 
     58 CB          4.6577  -17.0220  -48.8872 C.3       3 UNK        -0.1800 
     59 N           5.6182  -14.7851  -48.9124 N.am      3 UNK        -0.5000 
     60 C           6.5163  -13.7977  -48.7914 C.2       2 UNK         0.5000 
     61 O           7.5687  -13.9028  -48.1610 O.2       2 UNK        -0.5000 
     62 CA          6.1610  -12.4567  -49.4663 C.3       2 UNK         0.1400 
     63 CB          6.8899  -12.3226  -50.8121 C.3       2 UNK        -0.1800 
     64 N           4.7209  -12.2645  -49.6816 N.am      2 UNK        -0.5000 
     65 C           3.8059  -12.1536  -48.7077 C.2       1 UNK         0.5000 
     66 O           4.0775  -12.2263  -47.5064 O.2       1 UNK        -0.5000 
     67 C          -2.0739  -22.6403  -45.8407 C.2       11 UNK         0.5000 
     68 O          -2.3971  -23.1516  -46.9137 O.2       11 UNK        -0.5000 
     69 N          -2.2979  -23.2075  -44.6466 N.am      12 UNK        -0.5000 
     70 CA         -2.9734  -24.4904  -44.4497 C.3       12 UNK         0.1400 
     71 CB         -3.2892  -24.6760  -42.9576 C.3       12 UNK        -0.1800 
     72 C          -2.1622  -25.6808  -44.9914 C.2       12 UNK         0.5000 
     73 O          -2.7464  -26.5983  -45.5680 O.2       12 UNK        -0.5000 
     74 N          -0.8346  -25.6319  -44.8141 N.am      13 UNK        -0.5000 
     75 CA          0.1139  -26.6231  -45.3192 C.3       13 UNK         0.1400 
     76 CB          1.5018  -26.3570  -44.7169 C.3       13 UNK        -0.1800 
     77 C           0.1832  -26.6489  -46.8565 C.2       13 UNK         0.5000 
     78 O           0.2184  -27.7326  -47.4410 O.2       13 UNK        -0.5000 
     79 N           0.1904  -25.4632  -47.4824 N.am      14 UNK        -0.5000 
     80 CA          0.1740  -25.3079  -48.9363 C.3       14 UNK         0.1400 
     81 CB          0.5736  -23.8696  -49.3035 C.3       14 UNK        -0.1800 
     82 C          -1.1933  -25.6548  -49.5506 C.2       14 UNK         0.5000 
     83 O          -1.2379  -26.2847  -50.6073 O.2       14 UNK        -0.5000 
     84 N          -2.2730  -25.2024  -48.8923 N.am      15 UNK        -0.5000 
     85 CA         -3.6809  -25.2779  -49.3092 C.3       15 UNK         0.1400 
     86 CB         -4.1601  -26.7400  -49.4036 C.3       15 UNK        -0.1800 
     87 C          -3.9895  -24.4695  -50.5897 C.2       15 UNK         0.5000 
     88 O          -5.0415  -24.6550  -51.2035 O.2       15 UNK        -0.5000 
     89 N          -3.0793  -23.5607  -50.9624 N.am      16 UNK        -0.5000 
     90 CA         -3.1327  -22.7574  -52.1811 C.3       16 UNK         0.1400 
     91 CB         -1.7680  -22.0858  -52.3848 C.3       16 UNK        -0.1800 
     92 C          -4.2815  -21.7323  -52.1915 C.2       16 UNK         0.5000 
     93 O          -4.7832  -21.3999  -53.2654 O.2       16 UNK        -0.5000 
     94 N          -4.7076  -21.2762  -51.0051 N.am      17 UNK        -0.5000 
     95 CA         -5.8641  -20.3955  -50.8370 C.3       17 UNK         0.1400 
     96 CB         -5.8346  -19.7595  -49.4417 C.3       17 UNK        -0.1800 
     97 C          -7.1952  -21.1314  -51.0706 C.2       17 UNK         0.5000 
     98 O          -8.1151  -20.5456  -51.6401 O.2       17 UNK        -0.5000 
     99 N          -7.2623  -22.4109  -50.6720 N.am      18 UNK        -0.5000 
    100 CA        -8.4071  -23.2935  -50.9145 C.3       18 UNK         0.1400 
    101 CB        -8.3164  -24.5247  -49.9996 C.3       18 UNK        -0.1800 
    102 C         -8.5072  -23.7082  -52.3941 C.2       18 UNK         0.5000 
    103 O         -9.6134  -23.8285  -52.9210 O.2       18 UNK        -0.5000 
    104 N         -7.3476  -23.8651  -53.0483 N.am      19 UNK        -0.5000 
    105 CA        -7.2170  -24.0713  -54.4930 C.3       19 UNK         0.1400 
    106 CB        -5.8070  -24.6066  -54.7873 C.3       19 UNK        -0.1800 
    107 C         -7.4901  -22.7963  -55.3225 C.2       19 UNK         0.5000 
    108 O         -7.6335  -22.8957  -56.5415 O.2       19 UNK        -0.5000 
    109 N         -7.5411  -21.6330  -54.6544 N.am      20 UNK        -0.5000 
    110 CA        -7.7213  -20.2824  -55.1972 C.3       20 UNK         0.1400 
    111 CB        -9.1104  -20.1295  -55.8508 C.3       20 UNK        -0.1800 
    112 C         -6.5627  -19.8375  -56.1157 C.2       20 UNK         0.5000 
    113 O         -6.7791  -19.0797  -57.0633 O.2       20 UNK        -0.5000 
    114 N         -5.3485  -20.3149  -55.8145 N.am      21 UNK        -0.5000 
    115 CA        -4.1186  -19.9762  -56.5273 C.3       21 UNK         0.1400 
    116 CB        -3.1315  -21.1465  -56.3970 C.3       21 UNK        -0.1800 
    117 C         -3.4884  -18.6714  -56.0066 C.2       21 UNK         0.5000 
    118 O         -2.8276  -17.9721  -56.7759 O.2       21 UNK        -0.5000 
    119 N         -3.6948  -18.3701  -54.7180 N.am      22 UNK        -0.5000 
    120 CA        -3.2165  -17.1488  -54.0503 C.3       22 UNK         0.1400 
    121 C         -3.9704  -15.8806  -54.5356 C.2       22 UNK         0.5000 
    122 N         -3.2735  -14.7678  -54.7215 N.am      22 UNK        -0.7600 
    123 O         -5.1882  -15.8852  -54.7024 O.2       22 UNK        -0.5000 
    124 C124       -3.2986  -17.2649  -52.5070 C.3       23 UNK        -0.0398 
    125 S125       -2.3663  -18.6989  -51.8789 S.3       23 UNK        -0.2404 
    126 C126       -0.9806  -17.9345  -50.9770 C.3       23 UNK        -0.0205 
    127 H127        0.4442   -8.1639  -47.7365 H         1 UNK         0.0600 
    128 H128        1.7448   -8.4039  -46.5646 H         1 UNK         0.0600 
    129 H129        0.4045   -9.5505  -46.6437 H         1 UNK         0.0600 
    130 H130        1.0038  -11.4568  -47.6297 H         1 UNK         0.3000 
    131 H131        2.3514  -11.5723  -50.1675 H         1 UNK         0.0600 
    132 H132        2.2300  -14.1028  -49.7464 H         1 UNK         0.0800 
    133 H133        0.7317  -13.2508  -49.8682 H         1 UNK         0.0800 
    134 H134       -1.0462  -13.3056  -48.4726 H         1 UNK         0.0800 
    135 H135       -1.1164  -13.7252  -46.7894 H         1 UNK         0.0800 
    136 H136       -0.2398  -15.5067  -50.0090 H         1 UNK         0.1150 
    137 H137       -2.6348  -18.9174  -49.0341 H         1 UNK         0.1150 
    138 H138       -2.4183  -15.6109  -46.3232 H         1 UNK         0.1150 
    139 H139       -4.6465  -17.6848  -46.9589 H         1 UNK         0.0800 
    140 H140       -3.5368  -17.6034  -45.6140 H         1 UNK         0.0800 
    141 H141       -1.6556  -19.2127  -45.3229 H         1 UNK         0.0800 
    142 H142       -2.6656  -20.2937  -44.4105 H         1 UNK         0.0800 
    143 H143       -0.9825  -21.0949  -46.8479 H         1 UNK         0.0600 
    144 H144       -0.1750  -20.8594  -44.1025 H         1 UNK         0.3000 
    145 H145        2.5451  -23.1478  -44.2387 H         1 UNK         0.0600 
    146 H146        3.4758  -21.1337  -45.4084 H         1 UNK         0.0600 
    147 H147        3.9040  -21.1500  -43.7051 H         1 UNK         0.0600 
    148 H148        2.6249  -20.0837  -44.2832 H         1 UNK         0.0600 
    149 H149        1.8199  -21.2710  -42.2546 H         1 UNK         0.3000 
    150 H150       -0.9605  -22.7951  -40.8180 H         1 UNK         0.0600 
    151 H151        1.8692  -23.1282  -39.6856 H         1 UNK         0.0600 
    152 H152        0.7181  -24.4330  -39.9473 H         1 UNK         0.0600 
    153 H153        0.3666  -23.1864  -38.7623 H         1 UNK         0.0600 
    154 H154        0.7537  -20.8972  -39.6691 H         1 UNK         0.3000 
    155 H155       -0.1233  -18.7560  -39.5114 H         1 UNK         0.0600 
    156 H156        1.4632  -17.1842  -40.7062 H         1 UNK         0.0600 
    157 H157        1.3955  -18.2274  -42.1215 H         1 UNK         0.0600 
    158 H158        2.0763  -18.8278  -40.6174 H         1 UNK         0.0600 
    159 H159       -1.1140  -17.6097  -42.0964 H         1 UNK         0.3000 
    160 H160       -3.8391  -16.8170  -41.3908 H         1 UNK         0.0600 
    161 H161       -2.8088  -14.5029  -39.6686 H         1 UNK         0.0600 
    162 H162       -4.1449  -15.5797  -39.2874 H         1 UNK         0.0600 
    163 H163       -4.2820  -14.4666  -40.6368 H         1 UNK         0.0600 
    164 H164       -2.8861  -15.8637  -43.1223 H         1 UNK         0.3000 
    165 H165       -1.8412  -14.4721  -44.4183 H         1 UNK         0.0600 
    166 H166       -0.3513  -12.5513  -44.8402 H         1 UNK         0.0600 
    167 H167       -1.3301  -12.2361  -43.4170 H         1 UNK         0.0600 
    168 H168        0.3569  -12.7005  -43.2353 H         1 UNK         0.0600 
    169 H169        0.8976  -14.6554  -44.6999 H         1 UNK         0.3000 
    170 H170        1.8435  -17.8547  -44.3317 H         1 UNK         0.0600 
    171 H171        2.0344  -18.3243  -46.7495 H         1 UNK         0.0600 
    172 H172        0.7805  -17.1418  -47.1102 H         1 UNK         0.0600 
    173 H173        0.3887  -18.6013  -46.2143 H         1 UNK         0.0600 
    174 H174        2.5917  -15.7839  -46.2242 H         1 UNK         0.3000 
    175 H175        3.9030  -13.6643  -44.8844 H         1 UNK         0.0600 
    176 H176        5.3240  -14.1580  -42.9398 H         1 UNK         0.0600 
    177 H177        6.1455  -15.4500  -43.8026 H         1 UNK         0.0600 
    178 H178        6.3424  -13.7752  -44.3180 H         1 UNK         0.0600 
    179 H179        4.6145  -14.1487  -46.9018 H         1 UNK         0.3000 
    180 H180        6.6829  -16.4977  -48.3863 H         1 UNK         0.0600 
    181 H181        4.8548  -17.1468  -49.9521 H         1 UNK         0.0600 
    182 H182        3.6391  -16.6476  -48.7747 H         1 UNK         0.0600 
    183 H183        4.6930  -18.0137  -48.4342 H         1 UNK         0.0600 
    184 H184        4.7979  -14.6110  -49.4725 H         1 UNK         0.3000 
    185 H185        6.5098  -11.6591  -48.8069 H         1 UNK         0.0600 
    186 H186        7.9679  -12.4313  -50.6856 H         1 UNK         0.0600 
    187 H187        6.5648  -13.0828  -51.5236 H         1 UNK         0.0600 
    188 H188        6.7148  -11.3445  -51.2606 H         1 UNK         0.0600 
    189 H189        4.4234  -12.1946  -50.6446 H         1 UNK         0.3000 
    190 H190       -1.9546  -22.7450  -43.8177 H         1 UNK         0.3000 
    191 H191       -3.9187  -24.4583  -44.9957 H         1 UNK         0.0600 
    192 H192       -3.9190  -23.8685  -42.5840 H         1 UNK         0.0600 
    193 H193       -3.8247  -25.6108  -42.7868 H         1 UNK         0.0600 
    194 H194       -2.3829  -24.7029  -42.3519 H         1 UNK         0.0600 
    195 H195       -0.4481  -24.8755  -44.2550 H         1 UNK         0.3000 
    196 H196       -0.2195  -27.6070  -44.9828 H         1 UNK         0.0600 
    197 H197        2.2221  -27.1053  -45.0496 H         1 UNK         0.0600 
    198 H198        1.4730  -26.3938  -43.6277 H         1 UNK         0.0600 
    199 H199        1.8852  -25.3791  -45.0086 H         1 UNK         0.0600 
    200 H200        0.2148  -24.6110  -46.9324 H         1 UNK         0.3000 
    201 H201        0.9163  -25.9846  -49.3650 H         1 UNK         0.0600 
    202 H202        0.5708  -23.7247  -50.3846 H         1 UNK         0.0600 
    203 H203        1.5780  -23.6390  -48.9479 H         1 UNK         0.0600 
    204 H204       -0.1082  -23.1367  -48.8697 H         1 UNK         0.0600 
    205 H205       -2.1195  -24.6474  -48.0536 H         1 UNK         0.3000 
    206 H206       -4.2504  -24.7992  -48.5115 H         1 UNK         0.0600 
    207 H207       -3.9348  -27.2866  -48.4877 H         1 UNK         0.0600 
    208 H208       -5.2394  -26.7883  -49.5528 H         1 UNK         0.0600 
    209 H209       -3.6935  -27.2686  -50.2351 H         1 UNK         0.0600 
    210 H210       -2.2556  -23.4607  -50.3890 H         1 UNK         0.3000 
    211 H211       -3.2995  -23.4347  -53.0203 H         1 UNK         0.0600 
    212 H212       -1.4768  -21.4956  -51.5155 H         1 UNK         0.0600 
    213 H213       -1.7771  -21.4201  -53.2482 H         1 UNK         0.0600 
    214 H214       -0.9885  -22.8281  -52.5575 H         1 UNK         0.0600 
    215 H215       -4.2322  -21.5813  -50.1690 H         1 UNK         0.3000 
    216 H216       -5.7954  -19.5919  -51.5737 H         1 UNK         0.0600 
    217 H217       -6.7035  -19.1194  -49.2838 H         1 UNK         0.0600 
    218 H218       -5.8329  -20.5127  -48.6531 H         1 UNK         0.0600 
    219 H219       -4.9511  -19.1353  -49.3175 H         1 UNK         0.0600 
    220 H220       -6.4466  -22.8342  -50.2547 H         1 UNK         0.3000 
    221 H221       -9.3191  -22.7499  -50.6584 H         1 UNK         0.0600 
    222 H222       -7.4364  -25.1303  -50.2157 H         1 UNK         0.0600 
    223 H223       -8.2748  -24.2342  -48.9498 H         1 UNK         0.0600 
    224 H224       -9.1903  -25.1651  -50.1248 H         1 UNK         0.0600 
    225 H225       -6.4870  -23.8287  -52.5137 H         1 UNK         0.3000 
    226 H226       -7.9423  -24.8276  -54.8000 H         1 UNK         0.0600 
    227 H227       -5.7050  -24.8787  -55.8385 H         1 UNK         0.0600 
    228 H228       -5.0424  -23.8614  -54.5694 H         1 UNK         0.0600 
    229 H229       -5.5880  -25.4971  -54.1975 H         1 UNK         0.0600 
    230 H230       -7.3918  -21.6731  -53.6560 H         1 UNK         0.3000 
    231 H231       -7.6913  -19.6107  -54.3382 H         1 UNK         0.0600 
    232 H232       -9.1966  -20.7173  -56.7650 H         1 UNK         0.0600 
    233 H233       -9.3067  -19.0892  -56.1125 H         1 UNK         0.0600 
    234 H234       -9.9016  -20.4464  -55.1713 H         1 UNK         0.0600 
    235 H235       -5.2457  -20.8927  -54.9830 H         1 UNK         0.3000 
    236 H236       -4.3420  -19.8403  -57.5876 H         1 UNK         0.0600 
    237 H237       -2.8755  -21.3427  -55.3562 H         1 UNK         0.0600 
    238 H238       -3.5499  -22.0620  -56.8158 H         1 UNK         0.0600 
    239 H239       -2.2038  -20.9373  -56.9310 H         1 UNK         0.0600 
    240 H240       -4.2417  -19.0051  -54.1556 H         1 UNK         0.3000 
    241 H241       -2.1633  -17.0320  -54.3144 H         1 UNK         0.0600 
    242 H242       -2.2745  -14.7385  -54.5875 H         1 UNK         0.3800 
    243 H243       -3.7549  -13.9343  -55.0221 H         1 UNK         0.3800 
    244 H244       -4.3359  -17.3691  -52.1844 H         1 UNK         0.0800 
    245 H245       -2.9222  -16.3572  -52.0319 H         1 UNK         0.0800 
    246 H246       -0.2444  -18.7076  -50.7544 H         1 UNK         0.0800 
    247 H247       -0.4860  -17.2164  -51.6328 H         1 UNK         0.0800 
@<TRIPOS>BOND
     1    1    2 1    
     2    1  127 1    
     3    1  128 1    
     4    1  129 1    
     5    2    3 2    
     6    2    4 am   BACKBONE|DICT|INTERRES
     7    4    5 1    
     8    4  130 1    
     9    5    6 1    
    10    5   65 1    
    11    5  131 1    
    12    6    7 1    
    13    6  132 1    
    14    6  133 1    
    15    7    8 1    
    16    8    9 1    
    17    8  134 1    
    18    8  135 1    
    19    9   10 ar   
    20    9   14 ar   
    21   10   11 ar   
    22   10  136 1    
    23   11   12 ar   
    24   11  126 1    
    25   12   13 ar   
    26   12  137 1    
    27   13   14 ar   
    28   13   15 1    
    29   14  138 1    
    30   15   16 1    
    31   15  139 1    
    32   15  140 1    
    33   16   17 1    
    34   17   18 1    
    35   17  141 1    
    36   17  142 1    
    37   18   19 1    
    38   18   67 1    
    39   18  143 1    
    40   19   20 am   BACKBONE|DICT|INTERRES
    41   19  144 1    
    42   20   21 2    
    43   20   22 1    
    44   22   23 1    
    45   22   24 1    
    46   22  145 1    
    47   23  146 1    
    48   23  147 1    
    49   23  148 1    
    50   24   25 am   BACKBONE|DICT|INTERRES
    51   24  149 1    
    52   25   26 2    
    53   25   27 1    
    54   27   28 1    
    55   27   29 1    
    56   27  150 1    
    57   28  151 1    
    58   28  152 1    
    59   28  153 1    
    60   29   30 am   BACKBONE|DICT|INTERRES
    61   29  154 1    
    62   30   31 2    
    63   30   32 1    
    64   32   33 1    
    65   32   34 1    
    66   32  155 1    
    67   33  156 1    
    68   33  157 1    
    69   33  158 1    
    70   34   35 am   BACKBONE|DICT|INTERRES
    71   34  159 1    
    72   35   36 2    
    73   35   37 1    
    74   37   38 1    
    75   37   39 1    
    76   37  160 1    
    77   38  161 1    
    78   38  162 1    
    79   38  163 1    
    80   39   40 am   BACKBONE|DICT|INTERRES
    81   39  164 1    
    82   40   41 2    
    83   40   42 1    
    84   42   43 1    
    85   42   44 1    
    86   42  165 1    
    87   43  166 1    
    88   43  167 1    
    89   43  168 1    
    90   44   45 am   BACKBONE|DICT|INTERRES
    91   44  169 1    
    92   45   46 2    
    93   45   47 1    
    94   47   48 1    
    95   47   49 1    
    96   47  170 1    
    97   48  171 1    
    98   48  172 1    
    99   48  173 1    
   100   49   50 am   BACKBONE|DICT|INTERRES
   101   49  174 1    
   102   50   51 2    
   103   50   52 1    
   104   52   53 1    
   105   52   54 1    
   106   52  175 1    
   107   53  176 1    
   108   53  177 1    
   109   53  178 1    
   110   54   55 am   BACKBONE|DICT|INTERRES
   111   54  179 1    
   112   55   56 2    
   113   55   57 1    
   114   57   58 1    
   115   57   59 1    
   116   57  180 1    
   117   58  181 1    
   118   58  182 1    
   119   58  183 1    
   120   59   60 am   BACKBONE|DICT|INTERRES
   121   59  184 1    
   122   60   61 2    
   123   60   62 1    
   124   62   63 1    
   125   62   64 1    
   126   62  185 1    
   127   63  186 1    
   128   63  187 1    
   129   63  188 1    
   130   64   65 am   BACKBONE|DICT|INTERRES
   131   64  189 1    
   132   65   66 2    
   133   67   68 2    
   134   67   69 am   BACKBONE|DICT|INTERRES
   135   69   70 1    
   136   69  190 1    
   137   70   71 1    
   138   70   72 1    
   139   70  191 1    
   140   71  192 1    
   141   71  193 1    
   142   71  194 1    
   143   72   73 2    
   144   72   74 am   BACKBONE|DICT|INTERRES
   145   74   75 1    
   146   74  195 1    
   147   75   76 1    
   148   75   77 1    
   149   75  196 1    
   150   76  197 1    
   151   76  198 1    
   152   76  199 1    
   153   77   78 2    
   154   77   79 am   BACKBONE|DICT|INTERRES
   155   79   80 1    
   156   79  200 1    
   157   80   81 1    
   158   80   82 1    
   159   80  201 1    
   160   81  202 1    
   161   81  203 1    
   162   81  204 1    
   163   82   83 2    
   164   82   84 am   BACKBONE|DICT|INTERRES
   165   84   85 1    
   166   84  205 1    
   167   85   86 1    
   168   85   87 1    
   169   85  206 1    
   170   86  207 1    
   171   86  208 1    
   172   86  209 1    
   173   87   88 2    
   174   87   89 am   BACKBONE|DICT|INTERRES
   175   89   90 1    
   176   89  210 1    
   177   90   91 1    
   178   90   92 1    
   179   90  211 1    
   180   91  212 1    
   181   91  213 1    
   182   91  214 1    
   183   92   93 2    
   184   92   94 am   BACKBONE|DICT|INTERRES
   185   94   95 1    
   186   94  215 1    
   187   95   96 1    
   188   95   97 1    
   189   95  216 1    
   190   96  217 1    
   191   96  218 1    
   192   96  219 1    
   193   97   98 2    
   194   97   99 am   BACKBONE|DICT|INTERRES
   195   99  100 1    
   196   99  220 1    
   197  100  101 1    
   198  100  102 1    
   199  100  221 1    
   200  101  222 1    
   201  101  223 1    
   202  101  224 1    
   203  102  103 2    
   204  102  104 am   BACKBONE|DICT|INTERRES
   205  104  105 1    
   206  104  225 1    
   207  105  106 1    
   208  105  107 1    
   209  105  226 1    
   210  106  227 1    
   211  106  228 1    
   212  106  229 1    
   213  107  108 2    
   214  107  109 am   BACKBONE|DICT|INTERRES
   215  109  110 1    
   216  109  230 1    
   217  110  111 1    
   218  110  112 1    
   219  110  231 1    
   220  111  232 1    
   221  111  233 1    
   222  111  234 1    
   223  112  113 2    
   224  112  114 am   BACKBONE|DICT|INTERRES
   225  114  115 1    
   226  114  235 1    
   227  115  116 1    
   228  115  117 1    
   229  115  236 1    
   230  116  237 1    
   231  116  238 1    
   232  116  239 1    
   233  117  118 2    
   234  117  119 am   BACKBONE|DICT|INTERRES
   235  119  120 1    
   236  119  240 1    
   237  120  121 1    
   238  120  124 1    
   239  120  241 1    
   240  121  122 am   BACKBONE|DICT|INTERRES
   241  121  123 2    
   242  122  242 1    
   243  122  243 1    
   244  124  125 1    
   245  124  244 1    
   246  124  245 1    
   247  125  126 1    
   248  126  246 1    
   249  126  247 1    
@<TRIPOS>SUBSTRUCTURE
     1 UNK         1 GROUP             0       ****    0 ROOT    
