@<TRIPOS>MOLECULE
3R540
247   249    1
SMALL
USER_CHARGES


@<TRIPOS>ATOM
      1 CA          6.3609  -12.1449  -49.0665 C.3       0 UNK        -0.1800 
      2 C           5.1922  -12.5591  -48.1839 C.2       0 UNK         0.5000 
      3 O           4.9906  -11.9759  -47.1177 O.2       0 UNK        -0.5000 
      4 N           4.4195  -13.5604  -48.6221 N.am      1 UNK        -0.5000 
      5 CA          3.2445  -14.0902  -47.9235 C.3       1 UNK         0.1400 
      6 C6          2.9634  -15.5661  -48.2993 C.3       23 UNK        -0.0398 
      7 S7          4.2278  -16.6749  -47.5904 S.3       23 UNK        -0.2404 
      8 C8          4.9542  -17.4482  -49.0685 C.3       23 UNK        -0.0205 
      9 C9          4.1918  -18.7013  -49.4701 C.ar      23 UNK        -0.0193 
     10 C10         3.1437  -18.6298  -50.3909 C.ar      23 UNK        -0.1150 
     11 C11         2.4282  -19.7787  -50.7411 C.ar      23 UNK        -0.0193 
     12 C12         2.7961  -21.0114  -50.1950 C.ar      23 UNK        -0.1150 
     13 C13         3.8441  -21.0994  -49.2718 C.ar      23 UNK        -0.0193 
     14 C14         4.5336  -19.9370  -48.9122 C.ar      23 UNK        -0.1150 
     15 C15         4.2557  -22.4411  -48.6698 C.3       23 UNK        -0.0205 
     16 S16         2.8720  -23.4016  -47.9661 S.3       23 UNK        -0.2404 
     17 C17         2.1706  -22.2186  -46.7740 C.3       23 UNK        -0.0398 
     18 CA          1.0689  -22.8404  -45.8776 C.3       11 UNK         0.1400 
     19 N           0.9855  -22.1114  -44.6116 N.am      11 UNK        -0.5000 
     20 C           0.8999  -22.6477  -43.3884 C.2       10 UNK         0.5000 
     21 O           0.7343  -23.8517  -43.1890 O.2       10 UNK        -0.5000 
     22 CA          1.0113  -21.6640  -42.1997 C.3       10 UNK         0.1400 
     23 CB          1.4991  -22.3401  -40.9016 C.3       10 UNK        -0.1800 
     24 N           1.8182  -20.4753  -42.5166 N.am      10 UNK        -0.5000 
     25 C           3.1125  -20.4537  -42.8740 C.2       9 UNK         0.5000 
     26 O           3.8434  -21.4445  -42.8460 O.2       9 UNK        -0.5000 
     27 CA          3.6922  -19.1218  -43.3839 C.3       9 UNK         0.1400 
     28 CB          4.2235  -19.2698  -44.8220 C.3       9 UNK        -0.1800 
     29 N           2.7285  -18.0156  -43.3608 N.am      9 UNK        -0.5000 
     30 C           3.0045  -16.7925  -42.8883 C.2       8 UNK         0.5000 
     31 O           4.0540  -16.5032  -42.3117 O.2       8 UNK        -0.5000 
     32 CA          1.9560  -15.6872  -43.1124 C.3       8 UNK         0.1400 
     33 CB          2.1944  -14.9891  -44.4585 C.3       8 UNK        -0.1800 
     34 N           0.5679  -16.1434  -43.0468 N.am      8 UNK        -0.5000 
     35 C          -0.0585  -16.4668  -41.9066 C.2       7 UNK         0.5000 
     36 O           0.5018  -16.5412  -40.8128 O.2       7 UNK        -0.5000 
     37 CA         -1.5670  -16.7407  -42.0034 C.3       7 UNK         0.1400 
     38 CB         -2.3513  -15.4265  -42.1530 C.3       7 UNK        -0.1800 
     39 N          -1.8643  -17.6107  -43.1367 N.am      7 UNK        -0.5000 
     40 C          -1.9672  -18.9438  -43.0581 C.2       6 UNK         0.5000 
     41 O          -1.8798  -19.5780  -42.0079 O.2       6 UNK        -0.5000 
     42 CA         -2.1991  -19.7035  -44.3784 C.3       6 UNK         0.1400 
     43 CB         -3.7058  -19.8338  -44.6384 C.3       6 UNK        -0.1800 
     44 N          -1.5818  -19.0538  -45.5339 N.am      6 UNK        -0.5000 
     45 C          -0.2702  -18.8324  -45.6944 C.2       5 UNK         0.5000 
     46 O           0.5957  -19.2702  -44.9382 O.2       5 UNK        -0.5000 
     47 CA          0.1410  -17.9120  -46.8554 C.3       5 UNK         0.1400 
     48 CB          0.6746  -18.7232  -48.0368 C.3       5 UNK        -0.1800 
     49 N          -0.9408  -17.0347  -47.3142 N.am      5 UNK        -0.5000 
     50 C          -1.4591  -16.0425  -46.5805 C.2       4 UNK         0.5000 
     51 O          -1.0795  -15.7726  -45.4375 O.2       4 UNK        -0.5000 
     52 CA         -2.6465  -15.2898  -47.1864 C.3       4 UNK         0.1400 
     53 CB         -3.9725  -15.9098  -46.7059 C.3       4 UNK        -0.1800 
     54 N          -2.5514  -13.8940  -46.7851 N.am      4 UNK        -0.5000 
     55 C          -3.2007  -12.8702  -47.3455 C.2       3 UNK         0.5000 
     56 O          -4.0269  -12.9947  -48.2501 O.2       3 UNK        -0.5000 
     57 CA         -2.8392  -11.4606  -46.8419 C.3       3 UNK         0.1400 
     58 CB         -3.0982  -11.2906  -45.3301 C.3       3 UNK        -0.1800 
     59 N          -1.4771  -11.0656  -47.2231 N.am      3 UNK        -0.5000 
     60 C          -0.3148  -11.5780  -46.7963 C.2       2 UNK         0.5000 
     61 O          -0.2152  -12.4247  -45.9049 O.2       2 UNK        -0.5000 
     62 CA          0.9530  -11.0289  -47.4792 C.3       2 UNK         0.1400 
     63 CB          1.4459   -9.7640  -46.7601 C.3       2 UNK        -0.1800 
     64 N           2.0387  -12.0081  -47.5011 N.am      2 UNK        -0.5000 
     65 C           2.0229  -13.1769  -48.1538 C.2       1 UNK         0.5000 
     66 O           1.1199  -13.5243  -48.9175 O.2       1 UNK        -0.5000 
     67 C          -0.3250  -22.8966  -46.5436 C.2       11 UNK         0.5000 
     68 O          -0.4764  -22.5787  -47.7246 O.2       11 UNK        -0.5000 
     69 N          -1.3403  -23.2682  -45.7502 N.am      12 UNK        -0.5000 
     70 CA         -2.7547  -23.2361  -46.1255 C.3       12 UNK         0.1400 
     71 CB         -3.6176  -23.5134  -44.8865 C.3       12 UNK        -0.1800 
     72 C          -3.1325  -24.1949  -47.2654 C.2       12 UNK         0.5000 
     73 O          -3.9935  -23.8501  -48.0756 O.2       12 UNK        -0.5000 
     74 N          -2.4841  -25.3661  -47.3162 N.am      13 UNK        -0.5000 
     75 CA         -2.7178  -26.3962  -48.3300 C.3       13 UNK         0.1400 
     76 CB         -1.9853  -27.6860  -47.9301 C.3       13 UNK        -0.1800 
     77 C          -2.2983  -25.9397  -49.7377 C.2       13 UNK         0.5000 
     78 O          -3.0686  -26.0948  -50.6857 O.2       13 UNK        -0.5000 
     79 N          -1.1062  -25.3352  -49.8350 N.am      14 UNK        -0.5000 
     80 CA         -0.5586  -24.7734  -51.0723 C.3       14 UNK         0.1400 
     81 CB          0.9266  -24.4655  -50.8689 C.3       14 UNK        -0.1800 
     82 C          -1.3054  -23.5104  -51.5357 C.2       14 UNK         0.5000 
     83 O          -1.3405  -23.2381  -52.7343 O.2       14 UNK        -0.5000 
     84 N          -1.9217  -22.7957  -50.5845 N.am      15 UNK        -0.5000 
     85 CA         -2.8291  -21.6688  -50.8023 C.3       15 UNK         0.1400 
     86 CB         -2.8349  -20.8007  -49.5329 C.3       15 UNK        -0.1800 
     87 C          -4.2624  -22.0952  -51.1938 C.2       15 UNK         0.5000 
     88 O          -5.1495  -21.2396  -51.2068 O.2       15 UNK        -0.5000 
     89 N          -4.4675  -23.3893  -51.4851 N.am      16 UNK        -0.5000 
     90 CA         -5.7116  -24.0321  -51.9143 C.3       16 UNK         0.1400 
     91 CB         -6.1855  -23.4734  -53.2706 C.3       16 UNK        -0.1800 
     92 C          -6.7957  -23.9866  -50.8228 C.2       16 UNK         0.5000 
     93 O          -7.9064  -23.5132  -51.0650 O.2       16 UNK        -0.5000 
     94 N          -6.4287  -24.4765  -49.6305 N.am      17 UNK        -0.5000 
     95 CA         -7.2279  -24.5122  -48.4014 C.3       17 UNK         0.1400 
     96 CB         -8.4851  -25.3918  -48.5683 C.3       17 UNK        -0.1800 
     97 C          -7.5288  -23.0939  -47.8802 C.2       17 UNK         0.5000 
     98 O          -8.6765  -22.7686  -47.5713 O.2       17 UNK        -0.5000 
     99 N          -6.4647  -22.2810  -47.8051 N.am      18 UNK        -0.5000 
    100 CA        -6.4370  -20.8942  -47.3271 C.3       18 UNK         0.1400 
    101 CB        -6.8073  -20.8238  -45.8301 C.3       18 UNK        -0.1800 
    102 C         -7.2572  -19.9086  -48.1884 C.2       18 UNK         0.5000 
    103 O         -7.7063  -18.8797  -47.6813 O.2       18 UNK        -0.5000 
    104 N         -7.4095  -20.2120  -49.4845 N.am      19 UNK        -0.5000 
    105 CA        -8.0579  -19.3413  -50.4693 C.3       19 UNK         0.1400 
    106 CB        -8.5450  -20.2015  -51.6452 C.3       19 UNK        -0.1800 
    107 C         -7.1309  -18.2171  -50.9763 C.2       19 UNK         0.5000 
    108 O         -7.6151  -17.2814  -51.6133 O.2       19 UNK        -0.5000 
    109 N         -5.8223  -18.3494  -50.7071 N.am      20 UNK        -0.5000 
    110 CA        -4.7100  -17.5069  -51.1656 C.3       20 UNK         0.1400 
    111 CB        -4.8868  -16.0338  -50.7417 C.3       20 UNK        -0.1800 
    112 C         -4.4051  -17.6757  -52.6692 C.2       20 UNK         0.5000 
    113 O         -3.7131  -16.8403  -53.2530 O.2       20 UNK        -0.5000 
    114 N         -4.8869  -18.7750  -53.2629 N.am      21 UNK        -0.5000 
    115 CA        -4.6174  -19.1785  -54.6379 C.3       21 UNK         0.1400 
    116 CB        -5.8823  -19.8298  -55.2232 C.3       21 UNK        -0.1800 
    117 C         -3.4088  -20.1262  -54.6235 C.2       21 UNK         0.5000 
    118 O         -3.5824  -21.3444  -54.6044 O.2       21 UNK        -0.5000 
    119 N         -2.2112  -19.5330  -54.5478 N.am      22 UNK        -0.5000 
    120 CA        -0.9160  -20.2194  -54.4416 C.3       22 UNK         0.1400 
    121 C         -0.6355  -21.1849  -55.6283 C.2       22 UNK         0.5000 
    122 N         -0.5628  -22.4837  -55.3753 N.am      22 UNK        -0.7600 
    123 O         -0.4667  -20.7571  -56.7680 O.2       22 UNK        -0.5000 
    124 C124        0.2290  -19.1930  -54.2416 C.3       23 UNK        -0.0398 
    125 S125        1.6905  -19.9014  -53.4079 S.3       23 UNK        -0.2404 
    126 C126        1.2260  -19.6726  -51.6654 C.3       23 UNK        -0.0205 
    127 H127        6.2557  -11.1011  -49.3624 H         1 UNK         0.0600 
    128 H128        7.2987  -12.2532  -48.5215 H         1 UNK         0.0600 
    129 H129        6.4214  -12.7509  -49.9707 H         1 UNK         0.0600 
    130 H130        4.6237  -13.9838  -49.5155 H         1 UNK         0.3000 
    131 H131        3.4455  -14.0645  -46.8511 H         1 UNK         0.0600 
    132 H132        1.9970  -15.8815  -47.9088 H         1 UNK         0.0800 
    133 H133        2.9021  -15.6876  -49.3813 H         1 UNK         0.0800 
    134 H134        4.9923  -16.7354  -49.8933 H         1 UNK         0.0800 
    135 H135        5.9908  -17.7082  -48.8492 H         1 UNK         0.0800 
    136 H136        2.8658  -17.6760  -50.8160 H         1 UNK         0.1150 
    137 H137        2.2537  -21.8997  -50.4773 H         1 UNK         0.1150 
    138 H138        5.3423  -19.9905  -48.1969 H         1 UNK         0.1150 
    139 H139        4.7336  -23.0378  -49.4475 H         1 UNK         0.0800 
    140 H140        5.0051  -22.2983  -47.8896 H         1 UNK         0.0800 
    141 H141        3.0006  -21.8716  -46.1565 H         1 UNK         0.0800 
    142 H142        1.8029  -21.3402  -47.3022 H         1 UNK         0.0800 
    143 H143        1.3544  -23.8731  -45.6663 H         1 UNK         0.0600 
    144 H144        1.0319  -21.0984  -44.6823 H         1 UNK         0.3000 
    145 H145       -0.0007  -21.3088  -42.0147 H         1 UNK         0.0600 
    146 H146        1.5719  -21.6204  -40.0863 H         1 UNK         0.0600 
    147 H147        0.8055  -23.1192  -40.5834 H         1 UNK         0.0600 
    148 H148        2.4762  -22.8069  -41.0265 H         1 UNK         0.0600 
    149 H149        1.3048  -19.6086  -42.5817 H         1 UNK         0.3000 
    150 H150        4.5397  -18.9055  -42.7307 H         1 UNK         0.0600 
    151 H151        4.9194  -20.1050  -44.9098 H         1 UNK         0.0600 
    152 H152        4.7602  -18.3734  -45.1315 H         1 UNK         0.0600 
    153 H153        3.4154  -19.4368  -45.5352 H         1 UNK         0.0600 
    154 H154        1.8533  -18.1793  -43.8464 H         1 UNK         0.3000 
    155 H155        2.0981  -14.9415  -42.3270 H         1 UNK         0.0600 
    156 H156        2.0833  -15.6782  -45.2941 H         1 UNK         0.0600 
    157 H157        3.2021  -14.5748  -44.5054 H         1 UNK         0.0600 
    158 H158        1.4961  -14.1654  -44.6077 H         1 UNK         0.0600 
    159 H159        0.0209  -16.0580  -43.8989 H         1 UNK         0.3000 
    160 H160       -1.8859  -17.2142  -41.0722 H         1 UNK         0.0600 
    161 H161       -3.4252  -15.6117  -42.1805 H         1 UNK         0.0600 
    162 H162       -2.0827  -14.8902  -43.0639 H         1 UNK         0.0600 
    163 H163       -2.1579  -14.7599  -41.3117 H         1 UNK         0.0600 
    164 H164       -1.9058  -17.1637  -44.0434 H         1 UNK         0.3000 
    165 H165       -1.7684  -20.7014  -44.2773 H         1 UNK         0.0600 
    166 H166       -3.9020  -20.3724  -45.5624 H         1 UNK         0.0600 
    167 H167       -4.1974  -20.3780  -43.8310 H         1 UNK         0.0600 
    168 H168       -4.1877  -18.8581  -44.7159 H         1 UNK         0.0600 
    169 H169       -2.2108  -18.6617  -46.2171 H         1 UNK         0.3000 
    170 H170        0.9498  -17.2831  -46.4850 H         1 UNK         0.0600 
    171 H171        1.6531  -19.1384  -47.7969 H         1 UNK         0.0600 
    172 H172        0.0184  -19.5514  -48.3019 H         1 UNK         0.0600 
    173 H173        0.8020  -18.0957  -48.9181 H         1 UNK         0.0600 
    174 H174       -1.3014  -17.2081  -48.2411 H         1 UNK         0.3000 
    175 H175       -2.5863  -15.3477  -48.2752 H         1 UNK         0.0600 
    176 H176       -4.0687  -15.8582  -45.6205 H         1 UNK         0.0600 
    177 H177       -4.8328  -15.4005  -47.1399 H         1 UNK         0.0600 
    178 H178       -4.0440  -16.9591  -46.9944 H         1 UNK         0.0600 
    179 H179       -1.8237  -13.6926  -46.1033 H         1 UNK         0.3000 
    180 H180       -3.5032  -10.7648  -47.3575 H         1 UNK         0.0600 
    181 H181       -2.4917  -11.9616  -44.7219 H         1 UNK         0.0600 
    182 H182       -4.1424  -11.4979  -45.0932 H         1 UNK         0.0600 
    183 H183       -2.8892  -10.2702  -45.0093 H         1 UNK         0.0600 
    184 H184       -1.4372  -10.3771  -47.9620 H         1 UNK         0.3000 
    185 H185        0.7114  -10.7743  -48.5132 H         1 UNK         0.0600 
    186 H186        0.6755   -8.9919  -46.7503 H         1 UNK         0.0600 
    187 H187        1.7157   -9.9715  -45.7236 H         1 UNK         0.0600 
    188 H188        2.3205   -9.3428  -47.2564 H         1 UNK         0.0600 
    189 H189        2.8536  -11.7950  -46.9383 H         1 UNK         0.3000 
    190 H190       -1.1262  -23.5349  -44.7991 H         1 UNK         0.3000 
    191 H191       -2.9729  -22.2274  -46.4759 H         1 UNK         0.0600 
    192 H192       -3.4248  -24.5055  -44.4766 H         1 UNK         0.0600 
    193 H193       -4.6797  -23.4606  -45.1295 H         1 UNK         0.0600 
    194 H194       -3.4281  -22.7851  -44.0984 H         1 UNK         0.0600 
    195 H195       -1.7926  -25.5655  -46.6086 H         1 UNK         0.3000 
    196 H196       -3.7888  -26.6087  -48.3550 H         1 UNK         0.0600 
    197 H197       -2.1519  -28.4734  -48.6665 H         1 UNK         0.0600 
    198 H198       -2.3427  -28.0599  -46.9705 H         1 UNK         0.0600 
    199 H199       -0.9083  -27.5333  -47.8504 H         1 UNK         0.0600 
    200 H200       -0.5531  -25.2138  -48.9993 H         1 UNK         0.3000 
    201 H201       -0.6501  -25.5228  -51.8613 H         1 UNK         0.0600 
    202 H202        1.4877  -25.3586  -50.5938 H         1 UNK         0.0600 
    203 H203        1.0524  -23.7291  -50.0784 H         1 UNK         0.0600 
    204 H204        1.3759  -24.0598  -51.7765 H         1 UNK         0.0600 
    205 H205       -1.7905  -23.0780  -49.6217 H         1 UNK         0.3000 
    206 H206       -2.4448  -21.0629  -51.6242 H         1 UNK         0.0600 
    207 H207       -3.4469  -19.9098  -49.6573 H         1 UNK         0.0600 
    208 H208       -1.8283  -20.4697  -49.2841 H         1 UNK         0.0600 
    209 H209       -3.2272  -21.3457  -48.6762 H         1 UNK         0.0600 
    210 H210       -3.6782  -24.0151  -51.3958 H         1 UNK         0.3000 
    211 H211       -5.4721  -25.0858  -52.0646 H         1 UNK         0.0600 
    212 H212       -6.5036  -22.4360  -53.1883 H         1 UNK         0.0600 
    213 H213       -7.0321  -24.0441  -53.6532 H         1 UNK         0.0600 
    214 H214       -5.3930  -23.5225  -54.0175 H         1 UNK         0.0600 
    215 H215       -5.4608  -24.7501  -49.5161 H         1 UNK         0.3000 
    216 H216       -6.6005  -24.9861  -47.6449 H         1 UNK         0.0600 
    217 H217       -8.9982  -25.5189  -47.6144 H         1 UNK         0.0600 
    218 H218       -8.2250  -26.3860  -48.9315 H         1 UNK         0.0600 
    219 H219       -9.2013  -24.9563  -49.2655 H         1 UNK         0.0600 
    220 H220       -5.5697  -22.6760  -48.0798 H         1 UNK         0.3000 
    221 H221       -5.4004  -20.5707  -47.4239 H         1 UNK         0.0600 
    222 H222       -7.8597  -21.0537  -45.6619 H         1 UNK         0.0600 
    223 H223       -6.2151  -21.5231  -45.2409 H         1 UNK         0.0600 
    224 H224       -6.6260  -19.8269  -45.4271 H         1 UNK         0.0600 
    225 H225       -6.9945  -21.0627  -49.8438 H         1 UNK         0.3000 
    226 H226       -8.9290  -18.8700  -50.0095 H         1 UNK         0.0600 
    227 H227       -9.2319  -20.9779  -51.3079 H         1 UNK         0.0600 
    228 H228       -9.0742  -19.5966  -52.3825 H         1 UNK         0.0600 
    229 H229       -7.7148  -20.6889  -52.1559 H         1 UNK         0.0600 
    230 H230       -5.5544  -19.2106  -50.2499 H         1 UNK         0.3000 
    231 H231       -3.8240  -17.8749  -50.6492 H         1 UNK         0.0600 
    232 H232       -5.1248  -15.9525  -49.6812 H         1 UNK         0.0600 
    233 H233       -5.6794  -15.5394  -51.3033 H         1 UNK         0.0600 
    234 H234       -3.9708  -15.4666  -50.9106 H         1 UNK         0.0600 
    235 H235       -5.3722  -19.4522  -52.6882 H         1 UNK         0.3000 
    236 H236       -4.3733  -18.3106  -55.2544 H         1 UNK         0.0600 
    237 H237       -5.7061  -20.1766  -56.2420 H         1 UNK         0.0600 
    238 H238       -6.2085  -20.6867  -54.6357 H         1 UNK         0.0600 
    239 H239       -6.7079  -19.1188  -55.2583 H         1 UNK         0.0600 
    240 H240       -2.1811  -18.5233  -54.5558 H         1 UNK         0.3000 
    241 H241       -0.9807  -20.8118  -53.5291 H         1 UNK         0.0600 
    242 H242       -0.3796  -23.1308  -56.1249 H         1 UNK         0.3800 
    243 H243       -0.7855  -22.8339  -54.4447 H         1 UNK         0.3800 
    244 H244        0.5421  -18.7632  -55.1948 H         1 UNK         0.0800 
    245 H245       -0.1177  -18.3462  -53.6479 H         1 UNK         0.0800 
    246 H246        0.4750  -20.4156  -51.3908 H         1 UNK         0.0800 
    247 H247        0.7550  -18.6981  -51.5295 H         1 UNK         0.0800 
@<TRIPOS>BOND
     1    1    2 1    
     2    1  127 1    
     3    1  128 1    
     4    1  129 1    
     5    2    3 2    
     6    2    4 am   BACKBONE|DICT|INTERRES
     7    4    5 1    
     8    4  130 1    
     9    5    6 1    
    10    5   65 1    
    11    5  131 1    
    12    6    7 1    
    13    6  132 1    
    14    6  133 1    
    15    7    8 1    
    16    8    9 1    
    17    8  134 1    
    18    8  135 1    
    19    9   10 ar   
    20    9   14 ar   
    21   10   11 ar   
    22   10  136 1    
    23   11   12 ar   
    24   11  126 1    
    25   12   13 ar   
    26   12  137 1    
    27   13   14 ar   
    28   13   15 1    
    29   14  138 1    
    30   15   16 1    
    31   15  139 1    
    32   15  140 1    
    33   16   17 1    
    34   17   18 1    
    35   17  141 1    
    36   17  142 1    
    37   18   19 1    
    38   18   67 1    
    39   18  143 1    
    40   19   20 am   BACKBONE|DICT|INTERRES
    41   19  144 1    
    42   20   21 2    
    43   20   22 1    
    44   22   23 1    
    45   22   24 1    
    46   22  145 1    
    47   23  146 1    
    48   23  147 1    
    49   23  148 1    
    50   24   25 am   BACKBONE|DICT|INTERRES
    51   24  149 1    
    52   25   26 2    
    53   25   27 1    
    54   27   28 1    
    55   27   29 1    
    56   27  150 1    
    57   28  151 1    
    58   28  152 1    
    59   28  153 1    
    60   29   30 am   BACKBONE|DICT|INTERRES
    61   29  154 1    
    62   30   31 2    
    63   30   32 1    
    64   32   33 1    
    65   32   34 1    
    66   32  155 1    
    67   33  156 1    
    68   33  157 1    
    69   33  158 1    
    70   34   35 am   BACKBONE|DICT|INTERRES
    71   34  159 1    
    72   35   36 2    
    73   35   37 1    
    74   37   38 1    
    75   37   39 1    
    76   37  160 1    
    77   38  161 1    
    78   38  162 1    
    79   38  163 1    
    80   39   40 am   BACKBONE|DICT|INTERRES
    81   39  164 1    
    82   40   41 2    
    83   40   42 1    
    84   42   43 1    
    85   42   44 1    
    86   42  165 1    
    87   43  166 1    
    88   43  167 1    
    89   43  168 1    
    90   44   45 am   BACKBONE|DICT|INTERRES
    91   44  169 1    
    92   45   46 2    
    93   45   47 1    
    94   47   48 1    
    95   47   49 1    
    96   47  170 1    
    97   48  171 1    
    98   48  172 1    
    99   48  173 1    
   100   49   50 am   BACKBONE|DICT|INTERRES
   101   49  174 1    
   102   50   51 2    
   103   50   52 1    
   104   52   53 1    
   105   52   54 1    
   106   52  175 1    
   107   53  176 1    
   108   53  177 1    
   109   53  178 1    
   110   54   55 am   BACKBONE|DICT|INTERRES
   111   54  179 1    
   112   55   56 2    
   113   55   57 1    
   114   57   58 1    
   115   57   59 1    
   116   57  180 1    
   117   58  181 1    
   118   58  182 1    
   119   58  183 1    
   120   59   60 am   BACKBONE|DICT|INTERRES
   121   59  184 1    
   122   60   61 2    
   123   60   62 1    
   124   62   63 1    
   125   62   64 1    
   126   62  185 1    
   127   63  186 1    
   128   63  187 1    
   129   63  188 1    
   130   64   65 am   BACKBONE|DICT|INTERRES
   131   64  189 1    
   132   65   66 2    
   133   67   68 2    
   134   67   69 am   BACKBONE|DICT|INTERRES
   135   69   70 1    
   136   69  190 1    
   137   70   71 1    
   138   70   72 1    
   139   70  191 1    
   140   71  192 1    
   141   71  193 1    
   142   71  194 1    
   143   72   73 2    
   144   72   74 am   BACKBONE|DICT|INTERRES
   145   74   75 1    
   146   74  195 1    
   147   75   76 1    
   148   75   77 1    
   149   75  196 1    
   150   76  197 1    
   151   76  198 1    
   152   76  199 1    
   153   77   78 2    
   154   77   79 am   BACKBONE|DICT|INTERRES
   155   79   80 1    
   156   79  200 1    
   157   80   81 1    
   158   80   82 1    
   159   80  201 1    
   160   81  202 1    
   161   81  203 1    
   162   81  204 1    
   163   82   83 2    
   164   82   84 am   BACKBONE|DICT|INTERRES
   165   84   85 1    
   166   84  205 1    
   167   85   86 1    
   168   85   87 1    
   169   85  206 1    
   170   86  207 1    
   171   86  208 1    
   172   86  209 1    
   173   87   88 2    
   174   87   89 am   BACKBONE|DICT|INTERRES
   175   89   90 1    
   176   89  210 1    
   177   90   91 1    
   178   90   92 1    
   179   90  211 1    
   180   91  212 1    
   181   91  213 1    
   182   91  214 1    
   183   92   93 2    
   184   92   94 am   BACKBONE|DICT|INTERRES
   185   94   95 1    
   186   94  215 1    
   187   95   96 1    
   188   95   97 1    
   189   95  216 1    
   190   96  217 1    
   191   96  218 1    
   192   96  219 1    
   193   97   98 2    
   194   97   99 am   BACKBONE|DICT|INTERRES
   195   99  100 1    
   196   99  220 1    
   197  100  101 1    
   198  100  102 1    
   199  100  221 1    
   200  101  222 1    
   201  101  223 1    
   202  101  224 1    
   203  102  103 2    
   204  102  104 am   BACKBONE|DICT|INTERRES
   205  104  105 1    
   206  104  225 1    
   207  105  106 1    
   208  105  107 1    
   209  105  226 1    
   210  106  227 1    
   211  106  228 1    
   212  106  229 1    
   213  107  108 2    
   214  107  109 am   BACKBONE|DICT|INTERRES
   215  109  110 1    
   216  109  230 1    
   217  110  111 1    
   218  110  112 1    
   219  110  231 1    
   220  111  232 1    
   221  111  233 1    
   222  111  234 1    
   223  112  113 2    
   224  112  114 am   BACKBONE|DICT|INTERRES
   225  114  115 1    
   226  114  235 1    
   227  115  116 1    
   228  115  117 1    
   229  115  236 1    
   230  116  237 1    
   231  116  238 1    
   232  116  239 1    
   233  117  118 2    
   234  117  119 am   BACKBONE|DICT|INTERRES
   235  119  120 1    
   236  119  240 1    
   237  120  121 1    
   238  120  124 1    
   239  120  241 1    
   240  121  122 am   BACKBONE|DICT|INTERRES
   241  121  123 2    
   242  122  242 1    
   243  122  243 1    
   244  124  125 1    
   245  124  244 1    
   246  124  245 1    
   247  125  126 1    
   248  126  246 1    
   249  126  247 1    
@<TRIPOS>SUBSTRUCTURE
     1 UNK         1 GROUP             0       ****    0 ROOT    
