@<TRIPOS>MOLECULE
3R540
247   249    1
SMALL
USER_CHARGES


@<TRIPOS>ATOM
      1 CA         -1.0366  -11.9805  -42.1041 C.3       0 UNK        -0.1800 
      2 C           0.1620  -11.9071  -43.0388 C.2       0 UNK         0.5000 
      3 O           1.0519  -11.0805  -42.8358 O.2       0 UNK        -0.5000 
      4 N           0.1948  -12.7740  -44.0587 N.am      1 UNK        -0.5000 
      5 CA          1.2339  -12.8606  -45.0926 C.3       1 UNK         0.1400 
      6 C6          0.6934  -13.5190  -46.3878 C.3       23 UNK        -0.0398 
      7 S7         -0.6903  -12.5535  -47.0871 S.3       23 UNK        -0.2404 
      8 C8         -0.4488  -12.7671  -48.8766 C.3       23 UNK        -0.0205 
      9 C9         -1.0716  -14.0644  -49.3643 C.ar      23 UNK        -0.0193 
     10 C10        -2.4371  -14.1136  -49.6570 C.ar      23 UNK        -0.1150 
     11 C11        -3.0226  -15.2954  -50.1176 C.ar      23 UNK        -0.0193 
     12 C12        -2.2339  -16.4394  -50.2670 C.ar      23 UNK        -0.1150 
     13 C13        -0.8678  -16.4062  -49.9728 C.ar      23 UNK        -0.0193 
     14 C14        -0.2896  -15.2095  -49.5338 C.ar      23 UNK        -0.1150 
     15 C15        -0.0300  -17.6687  -50.1395 C.3       23 UNK        -0.0205 
     16 S16         1.0380  -18.0253  -48.7060 S.3       23 UNK        -0.2404 
     17 C17        -0.1623  -18.1028  -47.3369 C.3       23 UNK        -0.0398 
     18 CA         -0.4825  -19.5598  -46.9317 C.3       11 UNK         0.1400 
     19 N          -0.7516  -19.6810  -45.4991 N.am      11 UNK        -0.5000 
     20 C          -0.8579  -20.8414  -44.8384 C.2       10 UNK         0.5000 
     21 O          -0.6874  -21.9432  -45.3571 O.2       10 UNK        -0.5000 
     22 CA         -1.2742  -20.7538  -43.3608 C.3       10 UNK         0.1400 
     23 CB         -0.0582  -20.4786  -42.4646 C.3       10 UNK        -0.1800 
     24 N          -2.2929  -19.7247  -43.1479 N.am      10 UNK        -0.5000 
     25 C          -3.5532  -19.8143  -43.5975 C.2       9 UNK         0.5000 
     26 O          -3.9990  -20.7998  -44.1842 O.2       9 UNK        -0.5000 
     27 CA         -4.4506  -18.5794  -43.3961 C.3       9 UNK         0.1400 
     28 CB         -5.0906  -18.5985  -42.0001 C.3       9 UNK        -0.1800 
     29 N          -3.7289  -17.3187  -43.5813 N.am      9 UNK        -0.5000 
     30 C          -3.2109  -16.9024  -44.7463 C.2       8 UNK         0.5000 
     31 O          -3.3038  -17.5299  -45.7994 O.2       8 UNK        -0.5000 
     32 CA         -2.3903  -15.5994  -44.7077 C.3       8 UNK         0.1400 
     33 CB         -3.3074  -14.3740  -44.8322 C.3       8 UNK        -0.1800 
     34 N          -1.5710  -15.4851  -43.4942 N.am      8 UNK        -0.5000 
     35 C          -0.5719  -16.3255  -43.1913 C.2       7 UNK         0.5000 
     36 O          -0.2297  -17.2607  -43.9207 O.2       7 UNK        -0.5000 
     37 CA          0.1215  -16.1251  -41.8353 C.3       7 UNK         0.1400 
     38 CB         -0.8489  -16.4399  -40.6788 C.3       7 UNK        -0.1800 
     39 N           1.2694  -17.0223  -41.7937 N.am      7 UNK        -0.5000 
     40 C           2.2487  -17.0597  -40.8840 C.2       6 UNK         0.5000 
     41 O           2.3300  -16.2861  -39.9296 O.2       6 UNK        -0.5000 
     42 CA          3.3222  -18.1531  -41.0739 C.3       6 UNK         0.1400 
     43 CB          2.9911  -19.3851  -40.2177 C.3       6 UNK        -0.1800 
     44 N           3.4800  -18.5695  -42.4726 N.am      6 UNK        -0.5000 
     45 C           4.0463  -17.8023  -43.4130 C.2       5 UNK         0.5000 
     46 O           4.5563  -16.7113  -43.1634 O.2       5 UNK        -0.5000 
     47 CA          4.0457  -18.3241  -44.8597 C.3       5 UNK         0.1400 
     48 CB          2.7573  -19.0872  -45.2265 C.3       5 UNK        -0.1800 
     49 N           4.2279  -17.1887  -45.7607 N.am      5 UNK        -0.5000 
     50 C           4.7916  -17.2343  -46.9721 C.2       4 UNK         0.5000 
     51 O           5.2057  -18.2700  -47.4945 O.2       4 UNK        -0.5000 
     52 CA          4.9392  -15.9001  -47.7229 C.3       4 UNK         0.1400 
     53 CB          3.6376  -15.5468  -48.4580 C.3       4 UNK        -0.1800 
     54 N           5.2849  -14.7994  -46.8218 N.am      4 UNK        -0.5000 
     55 C           6.5087  -14.2627  -46.7111 C.2       3 UNK         0.5000 
     56 O           7.4959  -14.6870  -47.3135 O.2       3 UNK        -0.5000 
     57 CA          6.6667  -13.0241  -45.8056 C.3       3 UNK         0.1400 
     58 CB          6.6930  -11.7444  -46.6562 C.3       3 UNK        -0.1800 
     59 N           5.5979  -12.9033  -44.8157 N.am      3 UNK        -0.5000 
     60 C           5.5712  -13.5493  -43.6432 C.2       2 UNK         0.5000 
     61 O           6.5095  -14.2270  -43.2228 O.2       2 UNK        -0.5000 
     62 CA          4.2919  -13.4036  -42.7904 C.3       2 UNK         0.1400 
     63 CB          4.5377  -12.4419  -41.6176 C.3       2 UNK        -0.1800 
     64 N           3.1087  -12.9448  -43.5253 N.am      2 UNK        -0.5000 
     65 C           2.5038  -13.5560  -44.5523 C.2       1 UNK         0.5000 
     66 O           2.9137  -14.5993  -45.0647 O.2       1 UNK        -0.5000 
     67 C          -1.6263  -20.1533  -47.7802 C.2       11 UNK         0.5000 
     68 O          -1.3594  -20.9031  -48.7179 O.2       11 UNK        -0.5000 
     69 N          -2.8783  -19.8590  -47.4012 N.am      12 UNK        -0.5000 
     70 CA         -4.0876  -20.4322  -47.9930 C.3       12 UNK         0.1400 
     71 CB         -5.3264  -19.7658  -47.3774 C.3       12 UNK        -0.1800 
     72 C          -4.1561  -21.9619  -47.8314 C.2       12 UNK         0.5000 
     73 O          -4.4658  -22.6586  -48.7962 O.2       12 UNK        -0.5000 
     74 N          -3.8237  -22.4616  -46.6321 N.am      13 UNK        -0.5000 
     75 CA         -3.7444  -23.8912  -46.3251 C.3       13 UNK         0.1400 
     76 CB         -3.5616  -24.0848  -44.8125 C.3       13 UNK        -0.1800 
     77 C          -2.6353  -24.6199  -47.1084 C.2       13 UNK         0.5000 
     78 O          -2.8361  -25.7654  -47.5103 O.2       13 UNK        -0.5000 
     79 N          -1.4987  -23.9460  -47.3303 N.am      14 UNK        -0.5000 
     80 CA         -0.3945  -24.4379  -48.1544 C.3       14 UNK         0.1400 
     81 CB          0.8612  -23.5929  -47.8889 C.3       14 UNK        -0.1800 
     82 C          -0.7398  -24.4520  -49.6560 C.2       14 UNK         0.5000 
     83 O          -0.3526  -25.3875  -50.3570 O.2       14 UNK        -0.5000 
     84 N          -1.4608  -23.4224  -50.1211 N.am      15 UNK        -0.5000 
     85 CA         -1.9149  -23.2798  -51.5044 C.3       15 UNK         0.1400 
     86 CB         -2.3503  -21.8271  -51.7507 C.3       15 UNK        -0.1800 
     87 C          -3.0506  -24.2476  -51.8824 C.2       15 UNK         0.5000 
     88 O          -3.1821  -24.5745  -53.0632 O.2       15 UNK        -0.5000 
     89 N          -3.8606  -24.6702  -50.9014 N.am      16 UNK        -0.5000 
     90 CA         -4.9993  -25.5769  -51.0627 C.3       16 UNK         0.1400 
     91 CB         -5.6301  -25.8601  -49.6914 C.3       16 UNK        -0.1800 
     92 C          -4.6250  -26.8942  -51.7705 C.2       16 UNK         0.5000 
     93 O          -3.6294  -27.5244  -51.4092 O.2       16 UNK        -0.5000 
     94 N          -5.4304  -27.2589  -52.7782 N.am      17 UNK        -0.5000 
     95 CA         -5.2692  -28.4011  -53.6898 C.3       17 UNK         0.1400 
     96 CB         -5.2661  -29.7406  -52.9229 C.3       17 UNK        -0.1800 
     97 C          -4.0795  -28.2785  -54.6712 C.2       17 UNK         0.5000 
     98 O          -3.7763  -29.2472  -55.3701 O.2       17 UNK        -0.5000 
     99 N          -3.4523  -27.0979  -54.7411 N.am      18 UNK        -0.5000 
    100 CA        -2.3948  -26.7481  -55.6823 C.3       18 UNK         0.1400 
    101 CB        -1.0531  -26.6423  -54.9285 C.3       18 UNK        -0.1800 
    102 C         -2.8208  -25.4584  -56.4032 C.2       18 UNK         0.5000 
    103 O         -3.6606  -25.5226  -57.3022 O.2       18 UNK        -0.5000 
    104 N         -2.2624  -24.3124  -55.9928 N.am      19 UNK        -0.5000 
    105 CA        -2.5843  -22.9826  -56.5183 C.3       19 UNK         0.1400 
    106 CB        -1.4821  -22.0038  -56.0834 C.3       19 UNK        -0.1800 
    107 C         -3.9645  -22.4565  -56.0736 C.2       19 UNK         0.5000 
    108 O         -4.5053  -21.5606  -56.7238 O.2       19 UNK        -0.5000 
    109 N         -4.4889  -22.9963  -54.9641 N.am      20 UNK        -0.5000 
    110 CA        -5.7251  -22.6588  -54.2504 C.3       20 UNK         0.1400 
    111 CB        -6.9705  -22.8010  -55.1452 C.3       20 UNK        -0.1800 
    112 C         -5.6708  -21.2895  -53.5512 C.2       20 UNK         0.5000 
    113 O         -5.9033  -21.2208  -52.3436 O.2       20 UNK        -0.5000 
    114 N         -5.3387  -20.2374  -54.3114 N.am      21 UNK        -0.5000 
    115 CA        -5.2096  -18.8407  -53.8913 C.3       21 UNK         0.1400 
    116 CB        -3.9126  -18.6601  -53.0687 C.3       21 UNK        -0.1800 
    117 C         -6.4900  -18.3400  -53.1854 C.2       21 UNK         0.5000 
    118 O         -7.5600  -18.3584  -53.7967 O.2       21 UNK        -0.5000 
    119 N         -6.3615  -17.9288  -51.9208 N.am      22 UNK        -0.5000 
    120 CA        -7.4570  -17.5504  -51.0164 C.3       22 UNK         0.1400 
    121 C         -7.9817  -18.7239  -50.1343 C.2       22 UNK         0.5000 
    122 N         -7.5433  -19.9632  -50.3252 N.am      22 UNK        -0.7600 
    123 O         -8.8302  -18.5142  -49.2716 O.2       22 UNK        -0.5000 
    124 C124       -7.1026  -16.2805  -50.1928 C.3       23 UNK        -0.0398 
    125 S125       -5.4784  -16.3461  -49.3534 S.3       23 UNK        -0.2404 
    126 C126       -4.4950  -15.3249  -50.4940 C.3       23 UNK        -0.0205 
    127 H127       -0.7521  -12.4561  -41.1655 H         1 UNK         0.0600 
    128 H128       -1.8592  -12.5444  -42.5432 H         1 UNK         0.0600 
    129 H129       -1.4007  -10.9774  -41.8819 H         1 UNK         0.0600 
    130 H130       -0.5716  -13.4172  -44.1827 H         1 UNK         0.3000 
    131 H131        1.5347  -11.8435  -45.3541 H         1 UNK         0.0600 
    132 H132        1.4873  -13.5816  -47.1331 H         1 UNK         0.0800 
    133 H133        0.3618  -14.5421  -46.2042 H         1 UNK         0.0800 
    134 H134        0.6116  -12.7225  -49.1289 H         1 UNK         0.0800 
    135 H135       -0.9152  -11.9269  -49.3932 H         1 UNK         0.0800 
    136 H136       -3.0409  -13.2253  -49.5340 H         1 UNK         0.1150 
    137 H137       -2.6875  -17.3567  -50.6136 H         1 UNK         0.1150 
    138 H138        0.7674  -15.1736  -49.3126 H         1 UNK         0.1150 
    139 H139       -0.6673  -18.5360  -50.3200 H         1 UNK         0.0800 
    140 H140        0.5970  -17.5575  -51.0247 H         1 UNK         0.0800 
    141 H141       -1.0664  -17.5344  -47.5598 H         1 UNK         0.0800 
    142 H142        0.3049  -17.5717  -46.5079 H         1 UNK         0.0800 
    143 H143        0.4035  -20.1711  -47.1179 H         1 UNK         0.0600 
    144 H144       -0.8592  -18.8149  -44.9819 H         1 UNK         0.3000 
    145 H145       -1.6976  -21.7180  -43.0716 H         1 UNK         0.0600 
    146 H146       -0.3465  -20.4115  -41.4155 H         1 UNK         0.0600 
    147 H147        0.6749  -21.2817  -42.5501 H         1 UNK         0.0600 
    148 H148        0.4430  -19.5514  -42.7365 H         1 UNK         0.0600 
    149 H149       -1.9950  -18.8696  -42.7052 H         1 UNK         0.3000 
    150 H150       -5.2495  -18.6239  -44.1392 H         1 UNK         0.0600 
    151 H151       -5.6501  -19.5213  -41.8406 H         1 UNK         0.0600 
    152 H152       -5.7892  -17.7710  -41.8754 H         1 UNK         0.0600 
    153 H153       -4.3413  -18.5281  -41.2106 H         1 UNK         0.0600 
    154 H154       -3.6076  -16.7408  -42.7635 H         1 UNK         0.3000 
    155 H155       -1.7218  -15.6108  -45.5712 H         1 UNK         0.0600 
    156 H156       -3.9924  -14.2924  -43.9876 H         1 UNK         0.0600 
    157 H157       -2.7328  -13.4499  -44.8894 H         1 UNK         0.0600 
    158 H158       -3.9101  -14.4324  -45.7399 H         1 UNK         0.0600 
    159 H159       -1.8602  -14.7983  -42.8135 H         1 UNK         0.3000 
    160 H160        0.4715  -15.0932  -41.7685 H         1 UNK         0.0600 
    161 H161       -1.1997  -17.4720  -40.7190 H         1 UNK         0.0600 
    162 H162       -1.7255  -15.7920  -40.7042 H         1 UNK         0.0600 
    163 H163       -0.3765  -16.2893  -39.7084 H         1 UNK         0.0600 
    164 H164        1.3062  -17.6525  -42.5846 H         1 UNK         0.3000 
    165 H165        4.2731  -17.7447  -40.7247 H         1 UNK         0.0600 
    166 H166        3.7738  -20.1402  -40.2929 H         1 UNK         0.0600 
    167 H167        2.9023  -19.1151  -39.1646 H         1 UNK         0.0600 
    168 H168        2.0495  -19.8452  -40.5173 H         1 UNK         0.0600 
    169 H169        3.1060  -19.4715  -42.7269 H         1 UNK         0.3000 
    170 H170        4.8997  -18.9973  -44.9558 H         1 UNK         0.0600 
    171 H171        2.6613  -20.0137  -44.6601 H         1 UNK         0.0600 
    172 H172        1.8735  -18.4831  -45.0282 H         1 UNK         0.0600 
    173 H173        2.7440  -19.3596  -46.2818 H         1 UNK         0.0600 
    174 H174        3.9379  -16.2931  -45.3772 H         1 UNK         0.3000 
    175 H175        5.7182  -16.0275  -48.4776 H         1 UNK         0.0600 
    176 H176        2.7866  -15.5147  -47.7771 H         1 UNK         0.0600 
    177 H177        3.7102  -14.5790  -48.9541 H         1 UNK         0.0600 
    178 H178        3.4167  -16.2880  -49.2264 H         1 UNK         0.0600 
    179 H179        4.5366  -14.4492  -46.2352 H         1 UNK         0.3000 
    180 H180        7.6267  -13.1087  -45.2917 H         1 UNK         0.0600 
    181 H181        5.7585  -11.6025  -47.2006 H         1 UNK         0.0600 
    182 H182        7.4985  -11.7798  -47.3910 H         1 UNK         0.0600 
    183 H183        6.8591  -10.8625  -46.0371 H         1 UNK         0.0600 
    184 H184        4.8022  -12.3365  -45.0675 H         1 UNK         0.3000 
    185 H185        4.0551  -14.3817  -42.3723 H         1 UNK         0.0600 
    186 H186        5.3872  -12.7669  -41.0153 H         1 UNK         0.0600 
    187 H187        4.7484  -11.4301  -41.9660 H         1 UNK         0.0600 
    188 H188        3.6718  -12.3967  -40.9567 H         1 UNK         0.0600 
    189 H189        2.6579  -12.1069  -43.1676 H         1 UNK         0.3000 
    190 H190       -3.0178  -19.1761  -46.6605 H         1 UNK         0.3000 
    191 H191       -4.0749  -20.2073  -49.0615 H         1 UNK         0.0600 
    192 H192       -5.3890  -19.9396  -46.3039 H         1 UNK         0.0600 
    193 H193       -6.2416  -20.1547  -47.8233 H         1 UNK         0.0600 
    194 H194       -5.3167  -18.6886  -47.5384 H         1 UNK         0.0600 
    195 H195       -3.6332  -21.8202  -45.8687 H         1 UNK         0.3000 
    196 H196       -4.6970  -24.3429  -46.6099 H         1 UNK         0.0600 
    197 H197       -3.5354  -25.1443  -44.5551 H         1 UNK         0.0600 
    198 H198       -4.3833  -23.6348  -44.2551 H         1 UNK         0.0600 
    199 H199       -2.6327  -23.6381  -44.4584 H         1 UNK         0.0600 
    200 H200       -1.3762  -23.0370  -46.8960 H         1 UNK         0.3000 
    201 H201       -0.1775  -25.4650  -47.8536 H         1 UNK         0.0600 
    202 H202        1.1450  -23.6289  -46.8369 H         1 UNK         0.0600 
    203 H203        0.7102  -22.5474  -48.1576 H         1 UNK         0.0600 
    204 H204        1.7088  -23.9613  -48.4680 H         1 UNK         0.0600 
    205 H205       -1.6700  -22.6509  -49.4935 H         1 UNK         0.3000 
    206 H206       -1.0709  -23.4948  -52.1629 H         1 UNK         0.0600 
    207 H207       -2.6614  -21.6799  -52.7854 H         1 UNK         0.0600 
    208 H208       -3.1901  -21.5472  -51.1134 H         1 UNK         0.0600 
    209 H209       -1.5352  -21.1303  -51.5549 H         1 UNK         0.0600 
    210 H210       -3.7207  -24.2859  -49.9750 H         1 UNK         0.3000 
    211 H211       -5.7379  -25.0493  -51.6682 H         1 UNK         0.0600 
    212 H212       -4.9359  -26.3805  -49.0315 H         1 UNK         0.0600 
    213 H213       -6.5168  -26.4870  -49.7920 H         1 UNK         0.0600 
    214 H214       -5.9385  -24.9389  -49.1972 H         1 UNK         0.0600 
    215 H215       -6.2225  -26.6668  -52.9866 H         1 UNK         0.3000 
    216 H216       -6.1611  -28.3964  -54.3179 H         1 UNK         0.0600 
    217 H217       -5.3398  -30.5841  -53.6103 H         1 UNK         0.0600 
    218 H218       -6.1127  -29.8070  -52.2396 H         1 UNK         0.0600 
    219 H219       -4.3532  -29.8767  -52.3429 H         1 UNK         0.0600 
    220 H220       -3.7440  -26.3509  -54.1221 H         1 UNK         0.3000 
    221 H221       -2.2908  -27.5145  -56.4529 H         1 UNK         0.0600 
    222 H222       -1.1006  -25.9479  -54.0893 H         1 UNK         0.0600 
    223 H223       -0.7608  -27.6132  -54.5281 H         1 UNK         0.0600 
    224 H224       -0.2522  -26.3150  -55.5927 H         1 UNK         0.0600 
    225 H225       -1.6083  -24.3494  -55.2246 H         1 UNK         0.3000 
    226 H226       -2.5881  -23.0336  -57.6090 H         1 UNK         0.0600 
    227 H227       -0.5069  -22.3167  -56.4569 H         1 UNK         0.0600 
    228 H228       -1.6712  -21.0024  -56.4726 H         1 UNK         0.0600 
    229 H229       -1.4171  -21.9266  -54.9974 H         1 UNK         0.0600 
    230 H230       -3.9142  -23.6801  -54.4768 H         1 UNK         0.3000 
    231 H231       -5.8139  -23.4049  -53.4603 H         1 UNK         0.0600 
    232 H232       -7.8817  -22.6563  -54.5636 H         1 UNK         0.0600 
    233 H233       -7.0224  -23.7945  -55.5907 H         1 UNK         0.0600 
    234 H234       -6.9841  -22.0700  -55.9536 H         1 UNK         0.0600 
    235 H235       -5.1637  -20.4257  -55.2943 H         1 UNK         0.3000 
    236 H236       -5.1098  -18.2500  -54.8029 H         1 UNK         0.0600 
    237 H237       -3.0465  -19.0134  -53.6287 H         1 UNK         0.0600 
    238 H238       -3.7344  -17.6087  -52.8422 H         1 UNK         0.0600 
    239 H239       -3.9378  -19.2108  -52.1276 H         1 UNK         0.0600 
    240 H240       -5.4525  -17.9828  -51.4864 H         1 UNK         0.3000 
    241 H241       -8.3197  -17.2786  -51.6270 H         1 UNK         0.0600 
    242 H242       -7.9149  -20.7024  -49.7521 H         1 UNK         0.3800 
    243 H243       -6.8826  -20.1968  -51.0614 H         1 UNK         0.3800 
    244 H244       -7.1196  -15.4151  -50.8562 H         1 UNK         0.0800 
    245 H245       -7.8687  -16.0719  -49.4443 H         1 UNK         0.0800 
    246 H246       -4.5932  -15.7065  -51.5105 H         1 UNK         0.0800 
    247 H247       -4.9060  -14.3142  -50.5068 H         1 UNK         0.0800 
@<TRIPOS>BOND
     1    1    2 1    
     2    1  127 1    
     3    1  128 1    
     4    1  129 1    
     5    2    3 2    
     6    2    4 am   BACKBONE|DICT|INTERRES
     7    4    5 1    
     8    4  130 1    
     9    5    6 1    
    10    5   65 1    
    11    5  131 1    
    12    6    7 1    
    13    6  132 1    
    14    6  133 1    
    15    7    8 1    
    16    8    9 1    
    17    8  134 1    
    18    8  135 1    
    19    9   10 ar   
    20    9   14 ar   
    21   10   11 ar   
    22   10  136 1    
    23   11   12 ar   
    24   11  126 1    
    25   12   13 ar   
    26   12  137 1    
    27   13   14 ar   
    28   13   15 1    
    29   14  138 1    
    30   15   16 1    
    31   15  139 1    
    32   15  140 1    
    33   16   17 1    
    34   17   18 1    
    35   17  141 1    
    36   17  142 1    
    37   18   19 1    
    38   18   67 1    
    39   18  143 1    
    40   19   20 am   BACKBONE|DICT|INTERRES
    41   19  144 1    
    42   20   21 2    
    43   20   22 1    
    44   22   23 1    
    45   22   24 1    
    46   22  145 1    
    47   23  146 1    
    48   23  147 1    
    49   23  148 1    
    50   24   25 am   BACKBONE|DICT|INTERRES
    51   24  149 1    
    52   25   26 2    
    53   25   27 1    
    54   27   28 1    
    55   27   29 1    
    56   27  150 1    
    57   28  151 1    
    58   28  152 1    
    59   28  153 1    
    60   29   30 am   BACKBONE|DICT|INTERRES
    61   29  154 1    
    62   30   31 2    
    63   30   32 1    
    64   32   33 1    
    65   32   34 1    
    66   32  155 1    
    67   33  156 1    
    68   33  157 1    
    69   33  158 1    
    70   34   35 am   BACKBONE|DICT|INTERRES
    71   34  159 1    
    72   35   36 2    
    73   35   37 1    
    74   37   38 1    
    75   37   39 1    
    76   37  160 1    
    77   38  161 1    
    78   38  162 1    
    79   38  163 1    
    80   39   40 am   BACKBONE|DICT|INTERRES
    81   39  164 1    
    82   40   41 2    
    83   40   42 1    
    84   42   43 1    
    85   42   44 1    
    86   42  165 1    
    87   43  166 1    
    88   43  167 1    
    89   43  168 1    
    90   44   45 am   BACKBONE|DICT|INTERRES
    91   44  169 1    
    92   45   46 2    
    93   45   47 1    
    94   47   48 1    
    95   47   49 1    
    96   47  170 1    
    97   48  171 1    
    98   48  172 1    
    99   48  173 1    
   100   49   50 am   BACKBONE|DICT|INTERRES
   101   49  174 1    
   102   50   51 2    
   103   50   52 1    
   104   52   53 1    
   105   52   54 1    
   106   52  175 1    
   107   53  176 1    
   108   53  177 1    
   109   53  178 1    
   110   54   55 am   BACKBONE|DICT|INTERRES
   111   54  179 1    
   112   55   56 2    
   113   55   57 1    
   114   57   58 1    
   115   57   59 1    
   116   57  180 1    
   117   58  181 1    
   118   58  182 1    
   119   58  183 1    
   120   59   60 am   BACKBONE|DICT|INTERRES
   121   59  184 1    
   122   60   61 2    
   123   60   62 1    
   124   62   63 1    
   125   62   64 1    
   126   62  185 1    
   127   63  186 1    
   128   63  187 1    
   129   63  188 1    
   130   64   65 am   BACKBONE|DICT|INTERRES
   131   64  189 1    
   132   65   66 2    
   133   67   68 2    
   134   67   69 am   BACKBONE|DICT|INTERRES
   135   69   70 1    
   136   69  190 1    
   137   70   71 1    
   138   70   72 1    
   139   70  191 1    
   140   71  192 1    
   141   71  193 1    
   142   71  194 1    
   143   72   73 2    
   144   72   74 am   BACKBONE|DICT|INTERRES
   145   74   75 1    
   146   74  195 1    
   147   75   76 1    
   148   75   77 1    
   149   75  196 1    
   150   76  197 1    
   151   76  198 1    
   152   76  199 1    
   153   77   78 2    
   154   77   79 am   BACKBONE|DICT|INTERRES
   155   79   80 1    
   156   79  200 1    
   157   80   81 1    
   158   80   82 1    
   159   80  201 1    
   160   81  202 1    
   161   81  203 1    
   162   81  204 1    
   163   82   83 2    
   164   82   84 am   BACKBONE|DICT|INTERRES
   165   84   85 1    
   166   84  205 1    
   167   85   86 1    
   168   85   87 1    
   169   85  206 1    
   170   86  207 1    
   171   86  208 1    
   172   86  209 1    
   173   87   88 2    
   174   87   89 am   BACKBONE|DICT|INTERRES
   175   89   90 1    
   176   89  210 1    
   177   90   91 1    
   178   90   92 1    
   179   90  211 1    
   180   91  212 1    
   181   91  213 1    
   182   91  214 1    
   183   92   93 2    
   184   92   94 am   BACKBONE|DICT|INTERRES
   185   94   95 1    
   186   94  215 1    
   187   95   96 1    
   188   95   97 1    
   189   95  216 1    
   190   96  217 1    
   191   96  218 1    
   192   96  219 1    
   193   97   98 2    
   194   97   99 am   BACKBONE|DICT|INTERRES
   195   99  100 1    
   196   99  220 1    
   197  100  101 1    
   198  100  102 1    
   199  100  221 1    
   200  101  222 1    
   201  101  223 1    
   202  101  224 1    
   203  102  103 2    
   204  102  104 am   BACKBONE|DICT|INTERRES
   205  104  105 1    
   206  104  225 1    
   207  105  106 1    
   208  105  107 1    
   209  105  226 1    
   210  106  227 1    
   211  106  228 1    
   212  106  229 1    
   213  107  108 2    
   214  107  109 am   BACKBONE|DICT|INTERRES
   215  109  110 1    
   216  109  230 1    
   217  110  111 1    
   218  110  112 1    
   219  110  231 1    
   220  111  232 1    
   221  111  233 1    
   222  111  234 1    
   223  112  113 2    
   224  112  114 am   BACKBONE|DICT|INTERRES
   225  114  115 1    
   226  114  235 1    
   227  115  116 1    
   228  115  117 1    
   229  115  236 1    
   230  116  237 1    
   231  116  238 1    
   232  116  239 1    
   233  117  118 2    
   234  117  119 am   BACKBONE|DICT|INTERRES
   235  119  120 1    
   236  119  240 1    
   237  120  121 1    
   238  120  124 1    
   239  120  241 1    
   240  121  122 am   BACKBONE|DICT|INTERRES
   241  121  123 2    
   242  122  242 1    
   243  122  243 1    
   244  124  125 1    
   245  124  244 1    
   246  124  245 1    
   247  125  126 1    
   248  126  246 1    
   249  126  247 1    
@<TRIPOS>SUBSTRUCTURE
     1 UNK         1 GROUP             0       ****    0 ROOT    
