@<TRIPOS>MOLECULE
3R540
247   249    1
SMALL
USER_CHARGES


@<TRIPOS>ATOM
      1 CA          4.1305  -20.7968  -44.1706 C.3       0 UNK        -0.1800 
      2 C           4.6240  -19.4868  -44.7704 C.2       0 UNK         0.5000 
      3 O           5.7588  -19.4212  -45.2404 O.2       0 UNK        -0.5000 
      4 N           3.7629  -18.4614  -44.7615 N.am      1 UNK        -0.5000 
      5 CA          3.9774  -17.1131  -45.2985 C.3       1 UNK         0.1400 
      6 C6          4.0317  -17.0966  -46.8464 C.3       23 UNK        -0.0398 
      7 S7          3.5924  -15.4639  -47.5413 S.3       23 UNK        -0.2404 
      8 C8          3.6480  -15.7966  -49.3310 C.3       23 UNK        -0.0205 
      9 C9          2.5831  -16.8012  -49.7377 C.ar      23 UNK        -0.0193 
     10 C10         1.2669  -16.3881  -49.9535 C.ar      23 UNK        -0.1150 
     11 C11         0.2698  -17.3223  -50.2489 C.ar      23 UNK        -0.0193 
     12 C12         0.5972  -18.6809  -50.3178 C.ar      23 UNK        -0.1150 
     13 C13         1.9158  -19.1027  -50.1126 C.ar      23 UNK        -0.0193 
     14 C14         2.9069  -18.1540  -49.8527 C.ar      23 UNK        -0.1150 
     15 C15         2.2708  -20.5836  -50.1296 C.3       23 UNK        -0.0205 
     16 S16         3.0433  -21.1403  -48.5669 S.3       23 UNK        -0.2404 
     17 C17         1.7796  -20.6924  -47.3256 C.3       23 UNK        -0.0398 
     18 CA          0.8803  -21.8750  -46.9025 C.3       11 UNK         0.1400 
     19 N           0.1073  -21.5607  -45.6995 N.am      11 UNK        -0.5000 
     20 C          -0.6770  -22.4259  -45.0405 C.2       10 UNK         0.5000 
     21 O          -0.7669  -23.6213  -45.3178 O.2       10 UNK        -0.5000 
     22 CA         -1.5615  -21.8390  -43.9271 C.3       10 UNK         0.1400 
     23 CB         -0.7765  -21.6971  -42.6143 C.3       10 UNK        -0.1800 
     24 N          -2.1334  -20.5465  -44.3112 N.am      10 UNK        -0.5000 
     25 C          -3.0449  -20.3826  -45.2822 C.2       9 UNK         0.5000 
     26 O          -3.5383  -21.3125  -45.9178 O.2       9 UNK        -0.5000 
     27 CA         -3.4367  -18.9353  -45.6321 C.3       9 UNK         0.1400 
     28 CB         -4.5635  -18.4420  -44.7129 C.3       9 UNK        -0.1800 
     29 N          -2.3022  -18.0142  -45.5495 N.am      9 UNK        -0.5000 
     30 C          -1.2462  -18.0368  -46.3759 C.2       8 UNK         0.5000 
     31 O          -1.1466  -18.8071  -47.3301 O.2       8 UNK        -0.5000 
     32 CA         -0.0818  -17.0903  -46.0242 C.3       8 UNK         0.1400 
     33 CB         -0.3152  -15.6883  -46.5997 C.3       8 UNK        -0.1800 
     34 N           0.1208  -16.9888  -44.5761 N.am      8 UNK        -0.5000 
     35 C           0.5583  -17.9923  -43.8051 C.2       7 UNK         0.5000 
     36 O           0.9150  -19.0768  -44.2676 O.2       7 UNK        -0.5000 
     37 CA          0.5787  -17.7766  -42.2773 C.3       7 UNK         0.1400 
     38 CB          1.8228  -18.4091  -41.6167 C.3       7 UNK        -0.1800 
     39 N           0.3950  -16.3798  -41.8591 N.am      7 UNK        -0.5000 
     40 C           1.2584  -15.3684  -42.0174 C.2       6 UNK         0.5000 
     41 O           2.3495  -15.4763  -42.5773 O.2       6 UNK        -0.5000 
     42 CA          0.8014  -14.0042  -41.4883 C.3       6 UNK         0.1400 
     43 CB          1.9425  -13.2468  -40.7882 C.3       6 UNK        -0.1800 
     44 N           0.2904  -13.2116  -42.6062 N.am      6 UNK        -0.5000 
     45 C          -0.8401  -12.4887  -42.5695 C.2       5 UNK         0.5000 
     46 O          -1.5729  -12.4422  -41.5800 O.2       5 UNK        -0.5000 
     47 CA         -1.2317  -11.6749  -43.8224 C.3       5 UNK         0.1400 
     48 CB         -1.7307  -10.2659  -43.4539 C.3       5 UNK        -0.1800 
     49 N          -0.1196  -11.5418  -44.7618 N.am      5 UNK        -0.5000 
     50 C          -0.1322  -11.9145  -46.0479 C.2       4 UNK         0.5000 
     51 O          -1.1263  -12.3621  -46.6198 O.2       4 UNK        -0.5000 
     52 CA          1.1914  -11.7752  -46.8355 C.3       4 UNK         0.1400 
     53 CB          1.1096  -10.5976  -47.8190 C.3       4 UNK        -0.1800 
     54 N           2.3958  -11.6158  -46.0080 N.am      4 UNK        -0.5000 
     55 C           2.8326  -12.5114  -45.1149 C.2       3 UNK         0.5000 
     56 O           2.2240  -13.5517  -44.8504 O.2       3 UNK        -0.5000 
     57 CA          4.1186  -12.1645  -44.3503 C.3       3 UNK         0.1400 
     58 CB          3.9032  -10.9780  -43.3924 C.3       3 UNK        -0.1800 
     59 N           4.5050  -13.3543  -43.6074 N.am      3 UNK        -0.5000 
     60 C           5.7218  -13.6746  -43.1570 C.2       2 UNK         0.5000 
     61 O           6.6902  -12.9143  -43.1806 O.2       2 UNK        -0.5000 
     62 CA          5.8850  -15.1182  -42.6379 C.3       2 UNK         0.1400 
     63 CB          5.5859  -15.1963  -41.1332 C.3       2 UNK        -0.1800 
     64 N           4.9989  -16.0390  -43.3542 N.am      2 UNK        -0.5000 
     65 C           5.1754  -16.4019  -44.6312 C.2       1 UNK         0.5000 
     66 O           6.2132  -16.1845  -45.2605 O.2       1 UNK        -0.5000 
     67 C          -0.0365  -22.3337  -48.0543 C.2       11 UNK         0.5000 
     68 O           0.2136  -23.3859  -48.6415 O.2       11 UNK        -0.5000 
     69 N          -1.1013  -21.5646  -48.3298 N.am      12 UNK        -0.5000 
     70 CA         -2.1045  -21.8905  -49.3445 C.3       12 UNK         0.1400 
     71 CB         -3.1079  -20.7371  -49.4862 C.3       12 UNK        -0.1800 
     72 C          -2.8335  -23.2160  -49.0637 C.2       12 UNK         0.5000 
     73 O          -3.0657  -23.9822  -49.9975 O.2       12 UNK        -0.5000 
     74 N          -3.1602  -23.4796  -47.7915 N.am      13 UNK        -0.5000 
     75 CA         -3.7666  -24.7309  -47.3376 C.3       13 UNK         0.1400 
     76 CB         -4.2265  -24.5899  -45.8795 C.3       13 UNK        -0.1800 
     77 C          -2.8265  -25.9366  -47.5104 C.2       13 UNK         0.5000 
     78 O          -3.2609  -26.9687  -48.0214 O.2       13 UNK        -0.5000 
     79 N          -1.5509  -25.7730  -47.1307 N.am      14 UNK        -0.5000 
     80 CA         -0.4964  -26.7781  -47.2923 C.3       14 UNK         0.1400 
     81 CB          0.7710  -26.3142  -46.5585 C.3       14 UNK        -0.1800 
     82 C          -0.1872  -27.0950  -48.7682 C.2       14 UNK         0.5000 
     83 O           0.0417  -28.2563  -49.1077 O.2       14 UNK        -0.5000 
     84 N          -0.2217  -26.0631  -49.6213 N.am      15 UNK        -0.5000 
     85 CA         -0.0634  -26.1626  -51.0732 C.3       15 UNK         0.1400 
     86 CB          0.2708  -24.7662  -51.6241 C.3       15 UNK        -0.1800 
     87 C          -1.3019  -26.7340  -51.7954 C.2       15 UNK         0.5000 
     88 O          -1.2016  -27.0614  -52.9784 O.2       15 UNK        -0.5000 
     89 N          -2.4436  -26.8100  -51.0927 N.am      16 UNK        -0.5000 
     90 CA         -3.7813  -27.1607  -51.5875 C.3       16 UNK         0.1400 
     91 CB         -3.8300  -28.6203  -52.0843 C.3       16 UNK        -0.1800 
     92 C          -4.3222  -26.1475  -52.6220 C.2       16 UNK         0.5000 
     93 O          -5.1230  -26.5048  -53.4874 O.2       16 UNK        -0.5000 
     94 N          -3.8770  -24.8919  -52.4990 N.am      17 UNK        -0.5000 
     95 CA         -4.2481  -23.7589  -53.3413 C.3       17 UNK         0.1400 
     96 CB         -3.0150  -22.8582  -53.5135 C.3       17 UNK        -0.1800 
     97 C          -5.4088  -22.9476  -52.7414 C.2       17 UNK         0.5000 
     98 O          -6.0198  -22.1609  -53.4643 O.2       17 UNK        -0.5000 
     99 N          -5.6999  -23.1436  -51.4450 N.am      18 UNK        -0.5000 
    100 CA        -6.6885  -22.4103  -50.6405 C.3       18 UNK         0.1400 
    101 CB        -6.6352  -22.9194  -49.1918 C.3       18 UNK        -0.1800 
    102 C         -8.1405  -22.4321  -51.1622 C.2       18 UNK         0.5000 
    103 O         -8.9387  -21.5950  -50.7405 O.2       18 UNK        -0.5000 
    104 N         -8.4562  -23.3550  -52.0816 N.am      19 UNK        -0.5000 
    105 CA        -9.7137  -23.3906  -52.8324 C.3       19 UNK         0.1400 
    106 CB        -9.7628  -24.6807  -53.6648 C.3       19 UNK        -0.1800 
    107 C         -9.9121  -22.1542  -53.7361 C.2       19 UNK         0.5000 
    108 O        -11.0527  -21.7420  -53.9514 O.2       19 UNK        -0.5000 
    109 N         -8.8037  -21.5801  -54.2231 N.am      20 UNK        -0.5000 
    110 CA        -8.7598  -20.3104  -54.9472 C.3       20 UNK         0.1400 
    111 CB        -7.9689  -20.5006  -56.2513 C.3       20 UNK        -0.1800 
    112 C         -8.1158  -19.2158  -54.0782 C.2       20 UNK         0.5000 
    113 O         -8.6255  -18.0950  -54.0436 O.2       20 UNK        -0.5000 
    114 N         -7.0244  -19.5758  -53.3839 N.am      21 UNK        -0.5000 
    115 CA        -6.1707  -18.7466  -52.5281 C.3       21 UNK         0.1400 
    116 CB        -6.9675  -18.2175  -51.3159 C.3       21 UNK        -0.1800 
    117 C         -5.4351  -17.6257  -53.2969 C.2       21 UNK         0.5000 
    118 O         -5.5037  -17.5542  -54.5267 O.2       21 UNK        -0.5000 
    119 N         -4.7106  -16.7821  -52.5526 N.am      22 UNK        -0.5000 
    120 CA        -3.9825  -15.6150  -53.0822 C.3       22 UNK         0.1400 
    121 C         -4.8732  -14.3557  -53.3085 C.2       22 UNK         0.5000 
    122 N         -6.1467  -14.3564  -52.9332 N.am      22 UNK        -0.7600 
    123 O         -4.4015  -13.3579  -53.8471 O.2       22 UNK        -0.5000 
    124 C124       -2.7440  -15.2721  -52.2155 C.3       23 UNK        -0.0398 
    125 S125       -1.4797  -16.5904  -52.2456 S.3       23 UNK        -0.2404 
    126 C126       -1.1592  -16.8544  -50.4745 C.3       23 UNK        -0.0205 
    127 H127        4.1722  -21.5897  -44.9175 H         1 UNK         0.0600 
    128 H128        3.1022  -20.7215  -43.8158 H         1 UNK         0.0600 
    129 H129        4.7598  -21.0851  -43.3288 H         1 UNK         0.0600 
    130 H130        2.8331  -18.6308  -44.3938 H         1 UNK         0.3000 
    131 H131        3.0882  -16.5520  -45.0053 H         1 UNK         0.0600 
    132 H132        3.3073  -17.8179  -47.2227 H         1 UNK         0.0800 
    133 H133        5.0032  -17.4189  -47.2246 H         1 UNK         0.0800 
    134 H134        3.4975  -14.8612  -49.8718 H         1 UNK         0.0800 
    135 H135        4.6417  -16.1540  -49.6053 H         1 UNK         0.0800 
    136 H136        1.0162  -15.3398  -49.8716 H         1 UNK         0.1150 
    137 H137       -0.1774  -19.4067  -50.5206 H         1 UNK         0.1150 
    138 H138        3.9238  -18.4785  -49.6818 H         1 UNK         0.1150 
    139 H139        1.3895  -21.1925  -50.3348 H         1 UNK         0.0800 
    140 H140        2.9657  -20.7689  -50.9496 H         1 UNK         0.0800 
    141 H141        2.3165  -20.3222  -46.4540 H         1 UNK         0.0800 
    142 H142        1.1851  -19.8486  -47.6716 H         1 UNK         0.0800 
    143 H143        1.5287  -22.7157  -46.6460 H         1 UNK         0.0600 
    144 H144        0.1583  -20.6054  -45.3639 H         1 UNK         0.3000 
    145 H145       -2.3859  -22.5339  -43.7538 H         1 UNK         0.0600 
    146 H146       -1.4053  -21.2985  -41.8181 H         1 UNK         0.0600 
    147 H147       -0.4057  -22.6668  -42.2799 H         1 UNK         0.0600 
    148 H148        0.0863  -21.0410  -42.7225 H         1 UNK         0.0600 
    149 H149       -1.7655  -19.7293  -43.8514 H         1 UNK         0.3000 
    150 H150       -3.8066  -18.9290  -46.6596 H         1 UNK         0.0600 
    151 H151       -5.4302  -19.1018  -44.7708 H         1 UNK         0.0600 
    152 H152       -4.8969  -17.4443  -44.9990 H         1 UNK         0.0600 
    153 H153       -4.2481  -18.4049  -43.6694 H         1 UNK         0.0600 
    154 H154       -2.3101  -17.3472  -44.7926 H         1 UNK         0.3000 
    155 H155        0.8259  -17.4962  -46.4763 H         1 UNK         0.0600 
    156 H156        0.5527  -15.0501  -46.4343 H         1 UNK         0.0600 
    157 H157       -1.1813  -15.2025  -46.1492 H         1 UNK         0.0600 
    158 H158       -0.4839  -15.7286  -47.6748 H         1 UNK         0.0600 
    159 H159       -0.1174  -16.1116  -44.1384 H         1 UNK         0.3000 
    160 H160       -0.2916  -18.3138  -41.8982 H         1 UNK         0.0600 
    161 H161        2.7528  -17.9898  -41.9998 H         1 UNK         0.0600 
    162 H162        1.8580  -19.4847  -41.7930 H         1 UNK         0.0600 
    163 H163        1.8111  -18.2625  -40.5368 H         1 UNK         0.0600 
    164 H164       -0.4846  -16.1820  -41.4015 H         1 UNK         0.3000 
    165 H165        0.0177  -14.1787  -40.7482 H         1 UNK         0.0600 
    166 H166        2.7859  -13.0739  -41.4542 H         1 UNK         0.0600 
    167 H167        1.6045  -12.2789  -40.4181 H         1 UNK         0.0600 
    168 H168        2.3146  -13.8114  -39.9327 H         1 UNK         0.0600 
    169 H169        0.8277  -13.2743  -43.4669 H         1 UNK         0.3000 
    170 H170       -2.0579  -12.2164  -44.2870 H         1 UNK         0.0600 
    171 H171       -2.6043  -10.3120  -42.8026 H         1 UNK         0.0600 
    172 H172       -0.9622   -9.6912  -42.9357 H         1 UNK         0.0600 
    173 H173       -2.0232   -9.7079  -44.3436 H         1 UNK         0.0600 
    174 H174        0.7421  -11.1771  -44.3831 H         1 UNK         0.3000 
    175 H175        1.3129  -12.6938  -47.4137 H         1 UNK         0.0600 
    176 H176        1.0158   -9.6446  -47.2968 H         1 UNK         0.0600 
    177 H177        1.9954  -10.5495  -48.4526 H         1 UNK         0.0600 
    178 H178        0.2467  -10.6967  -48.4789 H         1 UNK         0.0600 
    179 H179        2.9326  -10.7740  -46.1601 H         1 UNK         0.3000 
    180 H180        4.9000  -11.9252  -45.0742 H         1 UNK         0.0600 
    181 H181        3.0598  -11.1440  -42.7223 H         1 UNK         0.0600 
    182 H182        3.7027  -10.0601  -43.9457 H         1 UNK         0.0600 
    183 H183        4.7858  -10.7954  -42.7794 H         1 UNK         0.0600 
    184 H184        3.7683  -14.0535  -43.5651 H         1 UNK         0.3000 
    185 H185        6.9205  -15.4242  -42.8008 H         1 UNK         0.0600 
    186 H186        5.7428  -16.2058  -40.7529 H         1 UNK         0.0600 
    187 H187        6.2408  -14.5300  -40.5704 H         1 UNK         0.0600 
    188 H188        4.5572  -14.9115  -40.9107 H         1 UNK         0.0600 
    189 H189        4.0835  -16.1830  -42.9366 H         1 UNK         0.3000 
    190 H190       -1.2205  -20.6863  -47.8325 H         1 UNK         0.3000 
    191 H191       -1.5802  -21.9992  -50.2958 H         1 UNK         0.0600 
    192 H192       -3.8225  -20.9383  -50.2851 H         1 UNK         0.0600 
    193 H193       -2.6023  -19.8040  -49.7304 H         1 UNK         0.0600 
    194 H194       -3.6754  -20.5800  -48.5690 H         1 UNK         0.0600 
    195 H195       -3.0068  -22.7643  -47.0868 H         1 UNK         0.3000 
    196 H196       -4.6510  -24.9151  -47.9507 H         1 UNK         0.0600 
    197 H197       -4.7024  -25.5067  -45.5296 H         1 UNK         0.0600 
    198 H198       -4.9539  -23.7847  -45.7736 H         1 UNK         0.0600 
    199 H199       -3.3925  -24.3765  -45.2111 H         1 UNK         0.0600 
    200 H200       -1.2794  -24.9000  -46.6862 H         1 UNK         0.3000 
    201 H201       -0.8420  -27.7009  -46.8220 H         1 UNK         0.0600 
    202 H202        0.5789  -26.1678  -45.4955 H         1 UNK         0.0600 
    203 H203        1.1486  -25.3740  -46.9616 H         1 UNK         0.0600 
    204 H204        1.5675  -27.0540  -46.6467 H         1 UNK         0.0600 
    205 H205       -0.3355  -25.1260  -49.2428 H         1 UNK         0.3000 
    206 H206        0.7771  -26.8261  -51.2861 H         1 UNK         0.0600 
    207 H207        1.1757  -24.3667  -51.1655 H         1 UNK         0.0600 
    208 H208        0.4392  -24.7971  -52.7012 H         1 UNK         0.0600 
    209 H209       -0.5381  -24.0587  -51.4386 H         1 UNK         0.0600 
    210 H210       -2.4118  -26.5116  -50.1261 H         1 UNK         0.3000 
    211 H211       -4.4446  -27.0876  -50.7246 H         1 UNK         0.0600 
    212 H212       -3.2544  -28.7587  -52.9997 H         1 UNK         0.0600 
    213 H213       -4.8552  -28.9263  -52.2956 H         1 UNK         0.0600 
    214 H214       -3.4367  -29.3048  -51.3327 H         1 UNK         0.0600 
    215 H215       -3.2837  -24.6780  -51.7007 H         1 UNK         0.3000 
    216 H216       -4.5596  -24.1128  -54.3261 H         1 UNK         0.0600 
    217 H217       -3.2357  -22.0110  -54.1644 H         1 UNK         0.0600 
    218 H218       -2.1874  -23.4069  -53.9636 H         1 UNK         0.0600 
    219 H219       -2.6707  -22.4587  -52.5589 H         1 UNK         0.0600 
    220 H220       -5.1197  -23.8004  -50.9406 H         1 UNK         0.3000 
    221 H221       -6.3827  -21.3627  -50.6375 H         1 UNK         0.0600 
    222 H222       -6.7842  -23.9983  -49.1379 H         1 UNK         0.0600 
    223 H223       -5.6801  -22.6825  -48.7274 H         1 UNK         0.0600 
    224 H224       -7.4051  -22.4508  -48.5771 H         1 UNK         0.0600 
    225 H225       -7.7412  -24.0098  -52.3617 H         1 UNK         0.3000 
    226 H226      -10.5357  -23.4123  -52.1140 H         1 UNK         0.0600 
    227 H227       -9.6975  -25.5638  -53.0288 H         1 UNK         0.0600 
    228 H228      -10.6982  -24.7507  -54.2215 H         1 UNK         0.0600 
    229 H229       -8.9464  -24.7251  -54.3870 H         1 UNK         0.0600 
    230 H230       -7.9060  -21.9802  -53.9714 H         1 UNK         0.3000 
    231 H231       -9.7673  -19.9796  -55.2077 H         1 UNK         0.0600 
    232 H232       -7.9049  -19.5652  -56.8087 H         1 UNK         0.0600 
    233 H233       -8.4502  -21.2339  -56.8985 H         1 UNK         0.0600 
    234 H234       -6.9500  -20.8405  -56.0608 H         1 UNK         0.0600 
    235 H235       -6.6735  -20.5209  -53.5220 H         1 UNK         0.3000 
    236 H236       -5.3963  -19.4163  -52.1514 H         1 UNK         0.0600 
    237 H237       -7.5284  -19.0187  -50.8344 H         1 UNK         0.0600 
    238 H238       -6.3088  -17.7927  -50.5583 H         1 UNK         0.0600 
    239 H239       -7.6787  -17.4431  -51.6043 H         1 UNK         0.0600 
    240 H240       -4.6833  -16.9041  -51.5516 H         1 UNK         0.3000 
    241 H241       -3.6093  -15.8750  -54.0748 H         1 UNK         0.0600 
    242 H242       -6.5577  -15.1706  -52.5068 H         1 UNK         0.3800 
    243 H243       -6.7103  -13.5358  -53.0927 H         1 UNK         0.3800 
    244 H244       -2.2574  -14.3646  -52.5776 H         1 UNK         0.0800 
    245 H245       -3.0520  -15.0597  -51.1909 H         1 UNK         0.0800 
    246 H246       -1.8665  -17.5817  -50.0753 H         1 UNK         0.0800 
    247 H247       -1.3278  -15.9284  -49.9239 H         1 UNK         0.0800 
@<TRIPOS>BOND
     1    1    2 1    
     2    1  127 1    
     3    1  128 1    
     4    1  129 1    
     5    2    3 2    
     6    2    4 am   BACKBONE|DICT|INTERRES
     7    4    5 1    
     8    4  130 1    
     9    5    6 1    
    10    5   65 1    
    11    5  131 1    
    12    6    7 1    
    13    6  132 1    
    14    6  133 1    
    15    7    8 1    
    16    8    9 1    
    17    8  134 1    
    18    8  135 1    
    19    9   10 ar   
    20    9   14 ar   
    21   10   11 ar   
    22   10  136 1    
    23   11   12 ar   
    24   11  126 1    
    25   12   13 ar   
    26   12  137 1    
    27   13   14 ar   
    28   13   15 1    
    29   14  138 1    
    30   15   16 1    
    31   15  139 1    
    32   15  140 1    
    33   16   17 1    
    34   17   18 1    
    35   17  141 1    
    36   17  142 1    
    37   18   19 1    
    38   18   67 1    
    39   18  143 1    
    40   19   20 am   BACKBONE|DICT|INTERRES
    41   19  144 1    
    42   20   21 2    
    43   20   22 1    
    44   22   23 1    
    45   22   24 1    
    46   22  145 1    
    47   23  146 1    
    48   23  147 1    
    49   23  148 1    
    50   24   25 am   BACKBONE|DICT|INTERRES
    51   24  149 1    
    52   25   26 2    
    53   25   27 1    
    54   27   28 1    
    55   27   29 1    
    56   27  150 1    
    57   28  151 1    
    58   28  152 1    
    59   28  153 1    
    60   29   30 am   BACKBONE|DICT|INTERRES
    61   29  154 1    
    62   30   31 2    
    63   30   32 1    
    64   32   33 1    
    65   32   34 1    
    66   32  155 1    
    67   33  156 1    
    68   33  157 1    
    69   33  158 1    
    70   34   35 am   BACKBONE|DICT|INTERRES
    71   34  159 1    
    72   35   36 2    
    73   35   37 1    
    74   37   38 1    
    75   37   39 1    
    76   37  160 1    
    77   38  161 1    
    78   38  162 1    
    79   38  163 1    
    80   39   40 am   BACKBONE|DICT|INTERRES
    81   39  164 1    
    82   40   41 2    
    83   40   42 1    
    84   42   43 1    
    85   42   44 1    
    86   42  165 1    
    87   43  166 1    
    88   43  167 1    
    89   43  168 1    
    90   44   45 am   BACKBONE|DICT|INTERRES
    91   44  169 1    
    92   45   46 2    
    93   45   47 1    
    94   47   48 1    
    95   47   49 1    
    96   47  170 1    
    97   48  171 1    
    98   48  172 1    
    99   48  173 1    
   100   49   50 am   BACKBONE|DICT|INTERRES
   101   49  174 1    
   102   50   51 2    
   103   50   52 1    
   104   52   53 1    
   105   52   54 1    
   106   52  175 1    
   107   53  176 1    
   108   53  177 1    
   109   53  178 1    
   110   54   55 am   BACKBONE|DICT|INTERRES
   111   54  179 1    
   112   55   56 2    
   113   55   57 1    
   114   57   58 1    
   115   57   59 1    
   116   57  180 1    
   117   58  181 1    
   118   58  182 1    
   119   58  183 1    
   120   59   60 am   BACKBONE|DICT|INTERRES
   121   59  184 1    
   122   60   61 2    
   123   60   62 1    
   124   62   63 1    
   125   62   64 1    
   126   62  185 1    
   127   63  186 1    
   128   63  187 1    
   129   63  188 1    
   130   64   65 am   BACKBONE|DICT|INTERRES
   131   64  189 1    
   132   65   66 2    
   133   67   68 2    
   134   67   69 am   BACKBONE|DICT|INTERRES
   135   69   70 1    
   136   69  190 1    
   137   70   71 1    
   138   70   72 1    
   139   70  191 1    
   140   71  192 1    
   141   71  193 1    
   142   71  194 1    
   143   72   73 2    
   144   72   74 am   BACKBONE|DICT|INTERRES
   145   74   75 1    
   146   74  195 1    
   147   75   76 1    
   148   75   77 1    
   149   75  196 1    
   150   76  197 1    
   151   76  198 1    
   152   76  199 1    
   153   77   78 2    
   154   77   79 am   BACKBONE|DICT|INTERRES
   155   79   80 1    
   156   79  200 1    
   157   80   81 1    
   158   80   82 1    
   159   80  201 1    
   160   81  202 1    
   161   81  203 1    
   162   81  204 1    
   163   82   83 2    
   164   82   84 am   BACKBONE|DICT|INTERRES
   165   84   85 1    
   166   84  205 1    
   167   85   86 1    
   168   85   87 1    
   169   85  206 1    
   170   86  207 1    
   171   86  208 1    
   172   86  209 1    
   173   87   88 2    
   174   87   89 am   BACKBONE|DICT|INTERRES
   175   89   90 1    
   176   89  210 1    
   177   90   91 1    
   178   90   92 1    
   179   90  211 1    
   180   91  212 1    
   181   91  213 1    
   182   91  214 1    
   183   92   93 2    
   184   92   94 am   BACKBONE|DICT|INTERRES
   185   94   95 1    
   186   94  215 1    
   187   95   96 1    
   188   95   97 1    
   189   95  216 1    
   190   96  217 1    
   191   96  218 1    
   192   96  219 1    
   193   97   98 2    
   194   97   99 am   BACKBONE|DICT|INTERRES
   195   99  100 1    
   196   99  220 1    
   197  100  101 1    
   198  100  102 1    
   199  100  221 1    
   200  101  222 1    
   201  101  223 1    
   202  101  224 1    
   203  102  103 2    
   204  102  104 am   BACKBONE|DICT|INTERRES
   205  104  105 1    
   206  104  225 1    
   207  105  106 1    
   208  105  107 1    
   209  105  226 1    
   210  106  227 1    
   211  106  228 1    
   212  106  229 1    
   213  107  108 2    
   214  107  109 am   BACKBONE|DICT|INTERRES
   215  109  110 1    
   216  109  230 1    
   217  110  111 1    
   218  110  112 1    
   219  110  231 1    
   220  111  232 1    
   221  111  233 1    
   222  111  234 1    
   223  112  113 2    
   224  112  114 am   BACKBONE|DICT|INTERRES
   225  114  115 1    
   226  114  235 1    
   227  115  116 1    
   228  115  117 1    
   229  115  236 1    
   230  116  237 1    
   231  116  238 1    
   232  116  239 1    
   233  117  118 2    
   234  117  119 am   BACKBONE|DICT|INTERRES
   235  119  120 1    
   236  119  240 1    
   237  120  121 1    
   238  120  124 1    
   239  120  241 1    
   240  121  122 am   BACKBONE|DICT|INTERRES
   241  121  123 2    
   242  122  242 1    
   243  122  243 1    
   244  124  125 1    
   245  124  244 1    
   246  124  245 1    
   247  125  126 1    
   248  126  246 1    
   249  126  247 1    
@<TRIPOS>SUBSTRUCTURE
     1 UNK         1 GROUP             0       ****    0 ROOT    
