@<TRIPOS>MOLECULE
3R540
247   249    1
SMALL
USER_CHARGES


@<TRIPOS>ATOM
      1 CA          3.1263  -16.0362  -48.3020 C.3       0 UNK        -0.1800 
      2 C           2.7367  -14.6507  -47.8085 C.2       0 UNK         0.5000 
      3 O           3.2760  -14.1812  -46.8085 O.2       0 UNK        -0.5000 
      4 N           1.8190  -13.9799  -48.5178 N.am      1 UNK        -0.5000 
      5 CA          1.2356  -12.6765  -48.1553 C.3       1 UNK         0.1400 
      6 C6         -0.0595  -12.3783  -48.9488 C.3       23 UNK        -0.0398 
      7 S7         -1.3885  -13.5493  -48.5052 S.3       23 UNK        -0.2404 
      8 C8         -1.3946  -14.6911  -49.9215 C.3       23 UNK        -0.0205 
      9 C9         -1.6011  -16.1252  -49.4610 C.ar      23 UNK        -0.0193 
     10 C10        -2.8879  -16.6002  -49.1894 C.ar      23 UNK        -0.1150 
     11 C11        -3.0860  -17.9214  -48.7764 C.ar      23 UNK        -0.0193 
     12 C12        -1.9818  -18.7681  -48.6440 C.ar      23 UNK        -0.1150 
     13 C13        -0.6918  -18.3072  -48.9155 C.ar      23 UNK        -0.0193 
     14 C14        -0.5063  -16.9826  -49.3173 C.ar      23 UNK        -0.1150 
     15 C15         0.4880  -19.2578  -48.8090 C.3       23 UNK        -0.0205 
     16 S16         0.9204  -19.5943  -47.0738 S.3       23 UNK        -0.2404 
     17 C17         1.9121  -21.1152  -47.2630 C.3       23 UNK        -0.0398 
     18 CA          1.1831  -22.4553  -46.9733 C.3       11 UNK         0.1400 
     19 N           1.0226  -22.7531  -45.5446 N.am      11 UNK        -0.5000 
     20 C           0.8965  -24.0091  -45.0840 C.2       10 UNK         0.5000 
     21 O           0.8954  -25.0004  -45.8151 O.2       10 UNK        -0.5000 
     22 CA          0.7029  -24.2048  -43.5693 C.3       10 UNK         0.1400 
     23 CB          2.0564  -24.1798  -42.8441 C.3       10 UNK        -0.1800 
     24 N          -0.1919  -23.2245  -42.9579 N.am      10 UNK        -0.5000 
     25 C          -1.4754  -23.0354  -43.2900 C.2       9 UNK         0.5000 
     26 O          -2.0522  -23.6738  -44.1709 O.2       9 UNK        -0.5000 
     27 CA         -2.2396  -21.9186  -42.5489 C.3       9 UNK         0.1400 
     28 CB         -1.5943  -21.5000  -41.2088 C.3       9 UNK        -0.1800 
     29 N          -2.4463  -20.7436  -43.4021 N.am      9 UNK        -0.5000 
     30 C          -1.5022  -20.0371  -44.0413 C.2       8 UNK         0.5000 
     31 O          -0.3019  -20.3197  -44.0099 O.2       8 UNK        -0.5000 
     32 CA         -1.9754  -18.8492  -44.9059 C.3       8 UNK         0.1400 
     33 CB         -3.3661  -18.2914  -44.5309 C.3       8 UNK        -0.1800 
     34 N          -0.9728  -17.7853  -44.9682 N.am      8 UNK        -0.5000 
     35 C          -0.5156  -17.0388  -43.9552 C.2       7 UNK         0.5000 
     36 O          -0.9760  -17.0594  -42.8102 O.2       7 UNK        -0.5000 
     37 CA          0.6387  -16.0860  -44.3170 C.3       7 UNK         0.1400 
     38 CB          0.1191  -14.8872  -45.1207 C.3       7 UNK        -0.1800 
     39 N           1.3485  -15.5867  -43.1403 N.am      7 UNK        -0.5000 
     40 C           2.2036  -16.3047  -42.3998 C.2       6 UNK         0.5000 
     41 O           2.4860  -17.4792  -42.6424 O.2       6 UNK        -0.5000 
     42 CA          2.8754  -15.6033  -41.2009 C.3       6 UNK         0.1400 
     43 CB          4.4067  -15.7400  -41.2706 C.3       6 UNK        -0.1800 
     44 N           2.5489  -14.1777  -41.1401 N.am      6 UNK        -0.5000 
     45 C           1.8523  -13.5744  -40.1683 C.2       5 UNK         0.5000 
     46 O           1.3898  -14.1658  -39.1920 O.2       5 UNK        -0.5000 
     47 CA          1.6341  -12.0501  -40.2933 C.3       5 UNK         0.1400 
     48 CB          2.6257  -11.2934  -39.3960 C.3       5 UNK        -0.1800 
     49 N           1.7533  -11.5382  -41.6611 N.am      5 UNK        -0.5000 
     50 C           0.9055  -11.8190  -42.6592 C.2       4 UNK         0.5000 
     51 O          -0.1008  -12.5136  -42.5199 O.2       4 UNK        -0.5000 
     52 CA          1.2539  -11.2688  -44.0571 C.3       4 UNK         0.1400 
     53 CB          0.5690   -9.9122  -44.2790 C.3       4 UNK        -0.1800 
     54 N           2.6841  -11.1354  -44.3670 N.am      4 UNK        -0.5000 
     55 C           3.6402  -12.0627  -44.2040 C.2       3 UNK         0.5000 
     56 O           3.4661  -13.1368  -43.6286 O.2       3 UNK        -0.5000 
     57 CA          4.9993  -11.7362  -44.8423 C.3       3 UNK         0.1400 
     58 CB          6.0857  -12.7726  -44.5023 C.3       3 UNK        -0.1800 
     59 N           4.7983  -11.7116  -46.2857 N.am      3 UNK        -0.5000 
     60 C           5.0698  -10.6884  -47.1063 C.2       2 UNK         0.5000 
     61 O           5.6403   -9.6576  -46.7483 O.2       2 UNK        -0.5000 
     62 CA          4.5964  -10.8238  -48.5714 C.3       2 UNK         0.1400 
     63 CB          5.7415  -11.3276  -49.4628 C.3       2 UNK        -0.1800 
     64 N           3.4487  -11.7235  -48.7165 N.am      2 UNK        -0.5000 
     65 C           2.2296  -11.4934  -48.2073 C.2       1 UNK         0.5000 
     66 O           1.8945  -10.4082  -47.7316 O.2       1 UNK        -0.5000 
     67 C          -0.1438  -22.6281  -47.7427 C.2       11 UNK         0.5000 
     68 O          -0.1145  -23.0429  -48.9001 O.2       11 UNK        -0.5000 
     69 N          -1.2807  -22.3608  -47.0798 N.am      12 UNK        -0.5000 
     70 CA         -2.6193  -22.6016  -47.6219 C.3       12 UNK         0.1400 
     71 CB         -3.6848  -21.9294  -46.7431 C.3       12 UNK        -0.1800 
     72 C          -2.9031  -24.1034  -47.7722 C.2       12 UNK         0.5000 
     73 O          -3.4339  -24.5158  -48.8020 O.2       12 UNK        -0.5000 
     74 N          -2.4990  -24.8948  -46.7684 N.am      13 UNK        -0.5000 
     75 CA         -2.5638  -26.3552  -46.7809 C.3       13 UNK         0.1400 
     76 CB         -2.1822  -26.9019  -45.3972 C.3       13 UNK        -0.1800 
     77 C          -1.6850  -26.9729  -47.8836 C.2       13 UNK         0.5000 
     78 O          -2.1548  -27.8541  -48.6033 O.2       13 UNK        -0.5000 
     79 N          -0.4513  -26.4672  -48.0348 N.am      14 UNK        -0.5000 
     80 CA          0.4880  -26.8651  -49.0887 C.3       14 UNK         0.1400 
     81 CB          1.8554  -26.2158  -48.8298 C.3       14 UNK        -0.1800 
     82 C          -0.0141  -26.5259  -50.5064 C.2       14 UNK         0.5000 
     83 O           0.1713  -27.3229  -51.4262 O.2       14 UNK        -0.5000 
     84 N          -0.6721  -25.3678  -50.6466 N.am      15 UNK        -0.5000 
     85 CA         -1.3267  -24.9082  -51.8729 C.3       15 UNK         0.1400 
     86 CB         -1.5366  -23.3894  -51.7646 C.3       15 UNK        -0.1800 
     87 C          -2.6728  -25.6058  -52.1609 C.2       15 UNK         0.5000 
     88 O          -3.2469  -25.3785  -53.2283 O.2       15 UNK        -0.5000 
     89 N          -3.1792  -26.3879  -51.1933 N.am      16 UNK        -0.5000 
     90 CA         -4.5008  -27.0252  -51.1569 C.3       16 UNK         0.1400 
     91 CB         -4.5725  -28.1735  -52.1838 C.3       16 UNK        -0.1800 
     92 C          -5.6479  -26.0033  -51.3156 C.2       16 UNK         0.5000 
     93 O          -6.6486  -26.2912  -51.9752 O.2       16 UNK        -0.5000 
     94 N          -5.4391  -24.8004  -50.7583 N.am      17 UNK        -0.5000 
     95 CA         -6.1950  -23.5510  -50.8989 C.3       17 UNK         0.1400 
     96 CB         -7.6228  -23.6923  -50.3393 C.3       17 UNK        -0.1800 
     97 C          -6.2144  -22.9735  -52.3297 C.2       17 UNK         0.5000 
     98 O          -6.0014  -21.7733  -52.5007 O.2       17 UNK        -0.5000 
     99 N          -6.4786  -23.8283  -53.3233 N.am      18 UNK        -0.5000 
    100 CA        -6.7144  -23.4964  -54.7247 C.3       18 UNK         0.1400 
    101 CB        -7.1089  -24.7741  -55.4805 C.3       18 UNK        -0.1800 
    102 C         -5.5409  -22.7963  -55.4281 C.2       18 UNK         0.5000 
    103 O         -5.7765  -21.8267  -56.1494 O.2       18 UNK        -0.5000 
    104 N         -4.3052  -23.2738  -55.2126 N.am      19 UNK        -0.5000 
    105 CA        -3.1178  -22.7544  -55.9045 C.3       19 UNK         0.1400 
    106 CB        -1.9599  -23.7566  -55.7847 C.3       19 UNK        -0.1800 
    107 C         -2.6884  -21.3536  -55.4254 C.2       19 UNK         0.5000 
    108 O         -2.0456  -20.6273  -56.1842 O.2       19 UNK        -0.5000 
    109 N         -3.0652  -20.9965  -54.1916 N.am      20 UNK        -0.5000 
    110 CA        -2.8402  -19.6804  -53.5906 C.3       20 UNK         0.1400 
    111 CB        -2.3693  -19.8817  -52.1418 C.3       20 UNK        -0.1800 
    112 C         -4.0946  -18.7838  -53.6616 C.2       20 UNK         0.5000 
    113 O         -4.0132  -17.6101  -53.2980 O.2       20 UNK        -0.5000 
    114 N         -5.2184  -19.3424  -54.1397 N.am      21 UNK        -0.5000 
    115 CA        -6.5462  -18.7345  -54.2689 C.3       21 UNK         0.1400 
    116 CB        -6.5371  -17.6325  -55.3487 C.3       21 UNK        -0.1800 
    117 C         -7.1265  -18.2626  -52.9180 C.2       21 UNK         0.5000 
    118 O         -7.6982  -17.1733  -52.8338 O.2       21 UNK        -0.5000 
    119 N         -6.9513  -19.0890  -51.8801 N.am      22 UNK        -0.5000 
    120 CA        -7.4152  -18.8269  -50.5096 C.3       22 UNK         0.1400 
    121 C         -8.9627  -18.8771  -50.3820 C.2       22 UNK         0.5000 
    122 N         -9.5514  -18.0250  -49.5535 N.am      22 UNK        -0.7600 
    123 O         -9.6306  -19.7100  -50.9912 O.2       22 UNK        -0.5000 
    124 C124       -6.7608  -19.7795  -49.4757 C.3       23 UNK        -0.0398 
    125 S125       -4.9425  -19.8064  -49.5830 S.3       23 UNK        -0.2404 
    126 C126       -4.4890  -18.4325  -48.4803 C.3       23 UNK        -0.0205 
    127 H127        2.6332  -16.7993  -47.6996 H         1 UNK         0.0600 
    128 H128        2.8491  -16.1861  -49.3453 H         1 UNK         0.0600 
    129 H129        4.2038  -16.1773  -48.2172 H         1 UNK         0.0600 
    130 H130        1.4341  -14.4071  -49.3463 H         1 UNK         0.3000 
    131 H131        0.9526  -12.7420  -47.1044 H         1 UNK         0.0600 
    132 H132        0.1242  -12.3878  -50.0241 H         1 UNK         0.0800 
    133 H133       -0.4329  -11.3792  -48.7164 H         1 UNK         0.0800 
    134 H134       -0.4636  -14.6143  -50.4838 H         1 UNK         0.0800 
    135 H135       -2.1896  -14.4025  -50.6109 H         1 UNK         0.0800 
    136 H136       -3.7339  -15.9368  -49.3011 H         1 UNK         0.1150 
    137 H137       -2.1268  -19.7947  -48.3439 H         1 UNK         0.1150 
    138 H138        0.4883  -16.6245  -49.5352 H         1 UNK         0.1150 
    139 H139        0.2334  -20.1863  -49.3218 H         1 UNK         0.0800 
    140 H140        1.3609  -18.8529  -49.3234 H         1 UNK         0.0800 
    141 H141        2.3189  -21.1383  -48.2754 H         1 UNK         0.0800 
    142 H142        2.7827  -21.0283  -46.6118 H         1 UNK         0.0800 
    143 H143        1.8506  -23.2225  -47.3721 H         1 UNK         0.0600 
    144 H144        0.9504  -21.9673  -44.9079 H         1 UNK         0.3000 
    145 H145        0.2573  -25.1907  -43.4217 H         1 UNK         0.0600 
    146 H146        1.9417  -24.4161  -41.7861 H         1 UNK         0.0600 
    147 H147        2.7402  -24.9166  -43.2680 H         1 UNK         0.0600 
    148 H148        2.5366  -23.2034  -42.9207 H         1 UNK         0.0600 
    149 H149        0.2117  -22.6184  -42.2587 H         1 UNK         0.3000 
    150 H150       -3.2280  -22.3232  -42.3265 H         1 UNK         0.0600 
    151 H151       -1.4485  -22.3614  -40.5556 H         1 UNK         0.0600 
    152 H152       -2.2356  -20.7990  -40.6744 H         1 UNK         0.0600 
    153 H153       -0.6267  -21.0159  -41.3454 H         1 UNK         0.0600 
    154 H154       -3.4078  -20.4539  -43.5098 H         1 UNK         0.3000 
    155 H155       -2.0436  -19.2380  -45.9198 H         1 UNK         0.0600 
    156 H156       -3.6162  -17.4266  -45.1460 H         1 UNK         0.0600 
    157 H157       -3.4139  -17.9808  -43.4868 H         1 UNK         0.0600 
    158 H158       -4.1495  -19.0318  -44.6948 H         1 UNK         0.0600 
    159 H159       -0.4967  -17.7162  -45.8571 H         1 UNK         0.3000 
    160 H160        1.3527  -16.6319  -44.9380 H         1 UNK         0.0600 
    161 H161       -0.6427  -14.3308  -44.5736 H         1 UNK         0.0600 
    162 H162       -0.3184  -15.2047  -46.0681 H         1 UNK         0.0600 
    163 H163        0.9353  -14.2063  -45.3517 H         1 UNK         0.0600 
    164 H164        1.1345  -14.6442  -42.8480 H         1 UNK         0.3000 
    165 H165        2.5279  -16.1161  -40.3022 H         1 UNK         0.0600 
    166 H166        4.8082  -15.2790  -42.1742 H         1 UNK         0.0600 
    167 H167        4.8836  -15.2659  -40.4126 H         1 UNK         0.0600 
    168 H168        4.7109  -16.7874  -41.2713 H         1 UNK         0.0600 
    169 H169        2.8762  -13.6288  -41.9329 H         1 UNK         0.3000 
    170 H170        0.6230  -11.8363  -39.9406 H         1 UNK         0.0600 
    171 H171        2.5456  -11.6229  -38.3592 H         1 UNK         0.0600 
    172 H172        3.6571  -11.4541  -39.7127 H         1 UNK         0.0600 
    173 H173        2.4321  -10.2206  -39.4099 H         1 UNK         0.0600 
    174 H174        2.5636  -10.9724  -41.8662 H         1 UNK         0.3000 
    175 H175        0.8403  -11.9678  -44.7837 H         1 UNK         0.0600 
    176 H176        0.9765   -9.1445  -43.6201 H         1 UNK         0.0600 
    177 H177        0.6899   -9.5715  -45.3076 H         1 UNK         0.0600 
    178 H178       -0.5027   -9.9770  -44.0856 H         1 UNK         0.0600 
    179 H179        2.9373  -10.2960  -44.8685 H         1 UNK         0.3000 
    180 H180        5.3171  -10.7607  -44.4687 H         1 UNK         0.0600 
    181 H181        5.8158  -13.7690  -44.8556 H         1 UNK         0.0600 
    182 H182        6.2426  -12.8354  -43.4248 H         1 UNK         0.0600 
    183 H183        7.0395  -12.5043  -44.9565 H         1 UNK         0.0600 
    184 H184        4.2933  -12.5155  -46.6510 H         1 UNK         0.3000 
    185 H185        4.2996   -9.8317  -48.9180 H         1 UNK         0.0600 
    186 H186        6.6057  -10.6651  -49.3996 H         1 UNK         0.0600 
    187 H187        6.0705  -12.3254  -49.1696 H         1 UNK         0.0600 
    188 H188        5.4392  -11.3667  -50.5095 H         1 UNK         0.0600 
    189 H189        3.6389  -12.6434  -49.0859 H         1 UNK         0.3000 
    190 H190       -1.2161  -22.0836  -46.1118 H         1 UNK         0.3000 
    191 H191       -2.6707  -22.1530  -48.6164 H         1 UNK         0.0600 
    192 H192       -4.6814  -22.0874  -47.1575 H         1 UNK         0.0600 
    193 H193       -3.5319  -20.8542  -46.6858 H         1 UNK         0.0600 
    194 H194       -3.6886  -22.3238  -45.7275 H         1 UNK         0.0600 
    195 H195       -2.1303  -24.4630  -45.9256 H         1 UNK         0.3000 
    196 H196       -3.5988  -26.6387  -46.9832 H         1 UNK         0.0600 
    197 H197       -2.2556  -27.9899  -45.3736 H         1 UNK         0.0600 
    198 H198       -2.8457  -26.5136  -44.6242 H         1 UNK         0.0600 
    199 H199       -1.1612  -26.6357  -45.1237 H         1 UNK         0.0600 
    200 H200       -0.1191  -25.7805  -47.3649 H         1 UNK         0.3000 
    201 H201        0.6104  -27.9486  -49.0312 H         1 UNK         0.0600 
    202 H202        2.2449  -26.4914  -47.8496 H         1 UNK         0.0600 
    203 H203        1.7985  -25.1284  -48.8751 H         1 UNK         0.0600 
    204 H204        2.5865  -26.5370  -49.5726 H         1 UNK         0.0600 
    205 H205       -0.7167  -24.7346  -49.8547 H         1 UNK         0.3000 
    206 H206       -0.6670  -25.1071  -52.7197 H         1 UNK         0.0600 
    207 H207       -0.5867  -22.8657  -51.6563 H         1 UNK         0.0600 
    208 H208       -2.0244  -22.9922  -52.6520 H         1 UNK         0.0600 
    209 H209       -2.1617  -23.1294  -50.9100 H         1 UNK         0.0600 
    210 H210       -2.6352  -26.4886  -50.3460 H         1 UNK         0.3000 
    211 H211       -4.6086  -27.4571  -50.1611 H         1 UNK         0.0600 
    212 H212       -4.5242  -27.8036  -53.2085 H         1 UNK         0.0600 
    213 H213       -5.5027  -28.7334  -52.0809 H         1 UNK         0.0600 
    214 H214       -3.7531  -28.8783  -52.0426 H         1 UNK         0.0600 
    215 H215       -4.5919  -24.7083  -50.1994 H         1 UNK         0.3000 
    216 H216       -5.6691  -22.8229  -50.2796 H         1 UNK         0.0600 
    217 H217       -8.2015  -24.4434  -50.8770 H         1 UNK         0.0600 
    218 H218       -8.1705  -22.7526  -50.4173 H         1 UNK         0.0600 
    219 H219       -7.6048  -23.9735  -49.2865 H         1 UNK         0.0600 
    220 H220       -6.6182  -24.8002  -53.0581 H         1 UNK         0.3000 
    221 H221       -7.5645  -22.8117  -54.7528 H         1 UNK         0.0600 
    222 H222       -6.3181  -25.5245  -55.4398 H         1 UNK         0.0600 
    223 H223       -8.0119  -25.2174  -55.0603 H         1 UNK         0.0600 
    224 H224       -7.3098  -24.5628  -56.5317 H         1 UNK         0.0600 
    225 H225       -4.1679  -24.0596  -54.5840 H         1 UNK         0.3000 
    226 H226       -3.3632  -22.6676  -56.9654 H         1 UNK         0.0600 
    227 H227       -2.2554  -24.7466  -56.1325 H         1 UNK         0.0600 
    228 H228       -1.1093  -23.4400  -56.3895 H         1 UNK         0.0600 
    229 H229       -1.6085  -23.8531  -54.7593 H         1 UNK         0.0600 
    230 H230       -3.6117  -21.6508  -53.6492 H         1 UNK         0.3000 
    231 H231       -2.0486  -19.1506  -54.1240 H         1 UNK         0.0600 
    232 H232       -3.0453  -20.5326  -51.5890 H         1 UNK         0.0600 
    233 H233       -1.3781  -20.3336  -52.1115 H         1 UNK         0.0600 
    234 H234       -2.3075  -18.9332  -51.6068 H         1 UNK         0.0600 
    235 H235       -5.1727  -20.3155  -54.4082 H         1 UNK         0.3000 
    236 H236       -7.2071  -19.5293  -54.6180 H         1 UNK         0.0600 
    237 H237       -6.1460  -18.0111  -56.2931 H         1 UNK         0.0600 
    238 H238       -7.5458  -17.2650  -55.5404 H         1 UNK         0.0600 
    239 H239       -5.9286  -16.7781  -55.0513 H         1 UNK         0.0600 
    240 H240       -6.4909  -19.9812  -52.0381 H         1 UNK         0.3000 
    241 H241       -7.0981  -17.8116  -50.2637 H         1 UNK         0.0600 
    242 H242       -9.0264  -17.3348  -49.0388 H         1 UNK         0.3800 
    243 H243      -10.5540  -18.0582  -49.4504 H         1 UNK         0.3800 
    244 H244       -7.0506  -19.5061  -48.4596 H         1 UNK         0.0800 
    245 H245       -7.1142  -20.7993  -49.6256 H         1 UNK         0.0800 
    246 H246       -4.5486  -18.7613  -47.4427 H         1 UNK         0.0800 
    247 H247       -5.2143  -17.6256  -48.5924 H         1 UNK         0.0800 
@<TRIPOS>BOND
     1    1    2 1    
     2    1  127 1    
     3    1  128 1    
     4    1  129 1    
     5    2    3 2    
     6    2    4 am   BACKBONE|DICT|INTERRES
     7    4    5 1    
     8    4  130 1    
     9    5    6 1    
    10    5   65 1    
    11    5  131 1    
    12    6    7 1    
    13    6  132 1    
    14    6  133 1    
    15    7    8 1    
    16    8    9 1    
    17    8  134 1    
    18    8  135 1    
    19    9   10 ar   
    20    9   14 ar   
    21   10   11 ar   
    22   10  136 1    
    23   11   12 ar   
    24   11  126 1    
    25   12   13 ar   
    26   12  137 1    
    27   13   14 ar   
    28   13   15 1    
    29   14  138 1    
    30   15   16 1    
    31   15  139 1    
    32   15  140 1    
    33   16   17 1    
    34   17   18 1    
    35   17  141 1    
    36   17  142 1    
    37   18   19 1    
    38   18   67 1    
    39   18  143 1    
    40   19   20 am   BACKBONE|DICT|INTERRES
    41   19  144 1    
    42   20   21 2    
    43   20   22 1    
    44   22   23 1    
    45   22   24 1    
    46   22  145 1    
    47   23  146 1    
    48   23  147 1    
    49   23  148 1    
    50   24   25 am   BACKBONE|DICT|INTERRES
    51   24  149 1    
    52   25   26 2    
    53   25   27 1    
    54   27   28 1    
    55   27   29 1    
    56   27  150 1    
    57   28  151 1    
    58   28  152 1    
    59   28  153 1    
    60   29   30 am   BACKBONE|DICT|INTERRES
    61   29  154 1    
    62   30   31 2    
    63   30   32 1    
    64   32   33 1    
    65   32   34 1    
    66   32  155 1    
    67   33  156 1    
    68   33  157 1    
    69   33  158 1    
    70   34   35 am   BACKBONE|DICT|INTERRES
    71   34  159 1    
    72   35   36 2    
    73   35   37 1    
    74   37   38 1    
    75   37   39 1    
    76   37  160 1    
    77   38  161 1    
    78   38  162 1    
    79   38  163 1    
    80   39   40 am   BACKBONE|DICT|INTERRES
    81   39  164 1    
    82   40   41 2    
    83   40   42 1    
    84   42   43 1    
    85   42   44 1    
    86   42  165 1    
    87   43  166 1    
    88   43  167 1    
    89   43  168 1    
    90   44   45 am   BACKBONE|DICT|INTERRES
    91   44  169 1    
    92   45   46 2    
    93   45   47 1    
    94   47   48 1    
    95   47   49 1    
    96   47  170 1    
    97   48  171 1    
    98   48  172 1    
    99   48  173 1    
   100   49   50 am   BACKBONE|DICT|INTERRES
   101   49  174 1    
   102   50   51 2    
   103   50   52 1    
   104   52   53 1    
   105   52   54 1    
   106   52  175 1    
   107   53  176 1    
   108   53  177 1    
   109   53  178 1    
   110   54   55 am   BACKBONE|DICT|INTERRES
   111   54  179 1    
   112   55   56 2    
   113   55   57 1    
   114   57   58 1    
   115   57   59 1    
   116   57  180 1    
   117   58  181 1    
   118   58  182 1    
   119   58  183 1    
   120   59   60 am   BACKBONE|DICT|INTERRES
   121   59  184 1    
   122   60   61 2    
   123   60   62 1    
   124   62   63 1    
   125   62   64 1    
   126   62  185 1    
   127   63  186 1    
   128   63  187 1    
   129   63  188 1    
   130   64   65 am   BACKBONE|DICT|INTERRES
   131   64  189 1    
   132   65   66 2    
   133   67   68 2    
   134   67   69 am   BACKBONE|DICT|INTERRES
   135   69   70 1    
   136   69  190 1    
   137   70   71 1    
   138   70   72 1    
   139   70  191 1    
   140   71  192 1    
   141   71  193 1    
   142   71  194 1    
   143   72   73 2    
   144   72   74 am   BACKBONE|DICT|INTERRES
   145   74   75 1    
   146   74  195 1    
   147   75   76 1    
   148   75   77 1    
   149   75  196 1    
   150   76  197 1    
   151   76  198 1    
   152   76  199 1    
   153   77   78 2    
   154   77   79 am   BACKBONE|DICT|INTERRES
   155   79   80 1    
   156   79  200 1    
   157   80   81 1    
   158   80   82 1    
   159   80  201 1    
   160   81  202 1    
   161   81  203 1    
   162   81  204 1    
   163   82   83 2    
   164   82   84 am   BACKBONE|DICT|INTERRES
   165   84   85 1    
   166   84  205 1    
   167   85   86 1    
   168   85   87 1    
   169   85  206 1    
   170   86  207 1    
   171   86  208 1    
   172   86  209 1    
   173   87   88 2    
   174   87   89 am   BACKBONE|DICT|INTERRES
   175   89   90 1    
   176   89  210 1    
   177   90   91 1    
   178   90   92 1    
   179   90  211 1    
   180   91  212 1    
   181   91  213 1    
   182   91  214 1    
   183   92   93 2    
   184   92   94 am   BACKBONE|DICT|INTERRES
   185   94   95 1    
   186   94  215 1    
   187   95   96 1    
   188   95   97 1    
   189   95  216 1    
   190   96  217 1    
   191   96  218 1    
   192   96  219 1    
   193   97   98 2    
   194   97   99 am   BACKBONE|DICT|INTERRES
   195   99  100 1    
   196   99  220 1    
   197  100  101 1    
   198  100  102 1    
   199  100  221 1    
   200  101  222 1    
   201  101  223 1    
   202  101  224 1    
   203  102  103 2    
   204  102  104 am   BACKBONE|DICT|INTERRES
   205  104  105 1    
   206  104  225 1    
   207  105  106 1    
   208  105  107 1    
   209  105  226 1    
   210  106  227 1    
   211  106  228 1    
   212  106  229 1    
   213  107  108 2    
   214  107  109 am   BACKBONE|DICT|INTERRES
   215  109  110 1    
   216  109  230 1    
   217  110  111 1    
   218  110  112 1    
   219  110  231 1    
   220  111  232 1    
   221  111  233 1    
   222  111  234 1    
   223  112  113 2    
   224  112  114 am   BACKBONE|DICT|INTERRES
   225  114  115 1    
   226  114  235 1    
   227  115  116 1    
   228  115  117 1    
   229  115  236 1    
   230  116  237 1    
   231  116  238 1    
   232  116  239 1    
   233  117  118 2    
   234  117  119 am   BACKBONE|DICT|INTERRES
   235  119  120 1    
   236  119  240 1    
   237  120  121 1    
   238  120  124 1    
   239  120  241 1    
   240  121  122 am   BACKBONE|DICT|INTERRES
   241  121  123 2    
   242  122  242 1    
   243  122  243 1    
   244  124  125 1    
   245  124  244 1    
   246  124  245 1    
   247  125  126 1    
   248  126  246 1    
   249  126  247 1    
@<TRIPOS>SUBSTRUCTURE
     1 UNK         1 GROUP             0       ****    0 ROOT    
