@<TRIPOS>MOLECULE
3R540
247   249    1
SMALL
USER_CHARGES


@<TRIPOS>ATOM
      1 CA         -3.4112  -15.2975  -47.0505 C.3       0 UNK        -0.1800 
      2 C          -2.3683  -15.1029  -48.1420 C.2       0 UNK         0.5000 
      3 O          -2.4670  -14.1600  -48.9268 O.2       0 UNK        -0.5000 
      4 N          -1.3642  -15.9865  -48.1861 N.am      1 UNK        -0.5000 
      5 CA         -0.2698  -15.9804  -49.1664 C.3       1 UNK         0.1400 
      6 C6          0.4690  -17.3427  -49.1874 C.3       23 UNK        -0.0398 
      7 S7         -0.4919  -18.6423  -50.0289 S.3       23 UNK        -0.2404 
      8 C8         -0.9522  -19.7654  -48.6706 C.3       23 UNK        -0.0205 
      9 C9         -2.2475  -19.3707  -47.9749 C.ar      23 UNK        -0.0193 
     10 C10        -3.4179  -19.2071  -48.7216 C.ar      23 UNK        -0.1150 
     11 C11        -4.6357  -18.9472  -48.0908 C.ar      23 UNK        -0.0193 
     12 C12        -4.6839  -18.8672  -46.6979 C.ar      23 UNK        -0.1150 
     13 C13        -3.5249  -19.0374  -45.9359 C.ar      23 UNK        -0.0193 
     14 C14        -2.3038  -19.2620  -46.5809 C.ar      23 UNK        -0.1150 
     15 C15        -3.6148  -19.0027  -44.4176 C.3       23 UNK        -0.0205 
     16 S16        -3.9739  -20.6575  -43.7360 S.3       23 UNK        -0.2404 
     17 C17        -2.3204  -21.2388  -43.2290 C.3       23 UNK        -0.0398 
     18 CA         -1.5314  -21.9313  -44.3754 C.3       11 UNK         0.1400 
     19 N          -0.1774  -21.3754  -44.5059 N.am      11 UNK        -0.5000 
     20 C           0.7099  -21.6099  -45.4826 C.2       10 UNK         0.5000 
     21 O           0.4893  -22.3603  -46.4315 O.2       10 UNK        -0.5000 
     22 CA          2.0886  -20.9265  -45.3609 C.3       10 UNK         0.1400 
     23 CB          2.1650  -19.6839  -46.2592 C.3       10 UNK        -0.1800 
     24 N           2.4387  -20.5458  -43.9895 N.am      10 UNK        -0.5000 
     25 C           2.6741  -21.4086  -42.9901 C.2       9 UNK         0.5000 
     26 O           2.6195  -22.6325  -43.1171 O.2       9 UNK        -0.5000 
     27 CA          2.9822  -20.7967  -41.6121 C.3       9 UNK         0.1400 
     28 CB          4.4479  -20.3445  -41.5236 C.3       9 UNK        -0.1800 
     29 N           2.1011  -19.6670  -41.3166 N.am      9 UNK        -0.5000 
     30 C           0.8183  -19.7922  -40.9482 C.2       8 UNK         0.5000 
     31 O           0.2648  -20.8745  -40.7531 O.2       8 UNK        -0.5000 
     32 CA          0.0027  -18.4919  -40.8075 C.3       8 UNK         0.1400 
     33 CB          0.1735  -17.9023  -39.3996 C.3       8 UNK        -0.1800 
     34 N           0.3403  -17.4742  -41.8058 N.am      8 UNK        -0.5000 
     35 C           0.2408  -17.6423  -43.1325 C.2       7 UNK         0.5000 
     36 O          -0.1627  -18.6717  -43.6632 O.2       7 UNK        -0.5000 
     37 CA          0.7261  -16.4968  -44.0294 C.3       7 UNK         0.1400 
     38 CB         -0.3823  -15.4527  -44.2049 C.3       7 UNK        -0.1800 
     39 N           1.9444  -15.8638  -43.5303 N.am      7 UNK        -0.5000 
     40 C           3.1163  -16.4867  -43.3397 C.2       6 UNK         0.5000 
     41 O           3.3019  -17.6820  -43.5735 O.2       6 UNK        -0.5000 
     42 CA          4.2546  -15.6394  -42.7505 C.3       6 UNK         0.1400 
     43 CB          4.9529  -14.8162  -43.8431 C.3       6 UNK        -0.1800 
     44 N           3.7576  -14.7389  -41.7115 N.am      6 UNK        -0.5000 
     45 C           3.5999  -15.0796  -40.4265 C.2       5 UNK         0.5000 
     46 O           3.9086  -16.1800  -39.9676 O.2       5 UNK        -0.5000 
     47 CA          2.9837  -14.0157  -39.4964 C.3       5 UNK         0.1400 
     48 CB          4.0803  -13.1124  -38.9121 C.3       5 UNK        -0.1800 
     49 N           1.9699  -13.1802  -40.1455 N.am      5 UNK        -0.5000 
     50 C           0.7860  -13.6309  -40.5812 C.2       4 UNK         0.5000 
     51 O           0.4350  -14.8086  -40.5114 O.2       4 UNK        -0.5000 
     52 CA         -0.1536  -12.6012  -41.2401 C.3       4 UNK         0.1400 
     53 CB         -0.8862  -11.7836  -40.1652 C.3       4 UNK        -0.1800 
     54 N           0.4607  -11.6824  -42.2096 N.am      4 UNK        -0.5000 
     55 C           1.3139  -12.0079  -43.1900 C.2       3 UNK         0.5000 
     56 O           1.8809  -13.0984  -43.2789 O.2       3 UNK        -0.5000 
     57 CA          1.5932  -10.9329  -44.2577 C.3       3 UNK         0.1400 
     58 CB          2.7623  -10.0377  -43.8208 C.3       3 UNK        -0.1800 
     59 N           1.9270  -11.5576  -45.5404 N.am      3 UNK        -0.5000 
     60 C           1.0779  -12.2955  -46.2689 C.2       2 UNK         0.5000 
     61 O          -0.1382  -12.3370  -46.0626 O.2       2 UNK        -0.5000 
     62 CA          1.6936  -13.1528  -47.3893 C.3       2 UNK         0.1400 
     63 CB          3.0151  -13.8288  -46.9610 C.3       2 UNK        -0.1800 
     64 N           0.7381  -14.1820  -47.7928 N.am      2 UNK        -0.5000 
     65 C           0.7468  -14.8321  -48.9617 C.2       1 UNK         0.5000 
     66 O           1.5418  -14.5739  -49.8671 O.2       1 UNK        -0.5000 
     67 C          -1.5741  -23.4727  -44.2564 C.2       11 UNK         0.5000 
     68 O          -2.6384  -24.0637  -44.4379 O.2       11 UNK        -0.5000 
     69 N          -0.4186  -24.1114  -44.0178 N.am      12 UNK        -0.5000 
     70 CA         -0.2153  -25.5543  -44.1699 C.3       12 UNK         0.1400 
     71 CB          1.1950  -25.9093  -43.6760 C.3       12 UNK        -0.1800 
     72 C          -0.4208  -26.0474  -45.6212 C.2       12 UNK         0.5000 
     73 O          -0.7301  -27.2225  -45.8207 O.2       12 UNK        -0.5000 
     74 N          -0.2721  -25.1421  -46.5975 N.am      13 UNK        -0.5000 
     75 CA         -0.5398  -25.3484  -48.0148 C.3       13 UNK         0.1400 
     76 CB          0.7970  -25.4377  -48.7730 C.3       13 UNK        -0.1800 
     77 C          -1.4428  -24.2078  -48.5194 C.2       13 UNK         0.5000 
     78 O          -1.1096  -23.5391  -49.4993 O.2       13 UNK        -0.5000 
     79 N          -2.5865  -24.0072  -47.8439 N.am      14 UNK        -0.5000 
     80 CA         -3.5756  -22.9515  -48.1164 C.3       14 UNK         0.1400 
     81 CB         -4.6824  -22.9976  -47.0526 C.3       14 UNK        -0.1800 
     82 C          -4.1924  -22.9667  -49.5325 C.2       14 UNK         0.5000 
     83 O          -4.7627  -21.9629  -49.9576 O.2       14 UNK        -0.5000 
     84 N          -4.0450  -24.0851  -50.2557 N.am      15 UNK        -0.5000 
     85 CA         -4.3625  -24.2045  -51.6788 C.3       15 UNK         0.1400 
     86 CB         -4.2910  -25.6843  -52.0843 C.3       15 UNK        -0.1800 
     87 C          -3.4434  -23.3605  -52.5866 C.2       15 UNK         0.5000 
     88 O          -3.8070  -23.1203  -53.7372 O.2       15 UNK        -0.5000 
     89 N          -2.2704  -22.9429  -52.0809 N.am      16 UNK        -0.5000 
     90 CA         -1.2719  -22.1008  -52.7510 C.3       16 UNK         0.1400 
     91 CB         -1.8208  -20.6699  -52.9314 C.3       16 UNK        -0.1800 
     92 C          -0.7743  -22.7197  -54.0743 C.2       16 UNK         0.5000 
     93 O          -0.6624  -22.0228  -55.0831 O.2       16 UNK        -0.5000 
     94 N          -0.5676  -24.0463  -54.0611 N.am      17 UNK        -0.5000 
     95 CA         -0.2273  -24.9015  -55.2081 C.3       17 UNK         0.1400 
     96 CB          1.1934  -24.5815  -55.7185 C.3       17 UNK        -0.1800 
     97 C          -1.2830  -24.8760  -56.3402 C.2       17 UNK         0.5000 
     98 O          -0.9494  -25.1518  -57.4934 O.2       17 UNK        -0.5000 
     99 N          -2.5318  -24.5292  -55.9881 N.am      18 UNK        -0.5000 
    100 CA        -3.6907  -24.3075  -56.8586 C.3       18 UNK         0.1400 
    101 CB        -4.0741  -25.5916  -57.6235 C.3       18 UNK        -0.1800 
    102 C         -3.5465  -23.0773  -57.7818 C.2       18 UNK         0.5000 
    103 O         -4.2854  -22.9674  -58.7617 O.2       18 UNK        -0.5000 
    104 N         -2.6207  -22.1605  -57.4586 N.am      19 UNK        -0.5000 
    105 CA        -2.3567  -20.9489  -58.2381 C.3       19 UNK         0.1400 
    106 CB        -0.9458  -20.4349  -57.9136 C.3       19 UNK        -0.1800 
    107 C         -3.3967  -19.8371  -58.0045 C.2       19 UNK         0.5000 
    108 O         -3.5334  -18.9592  -58.8580 O.2       19 UNK        -0.5000 
    109 N         -4.1052  -19.8840  -56.8682 N.am      20 UNK        -0.5000 
    110 CA        -5.1374  -18.9166  -56.4966 C.3       20 UNK         0.1400 
    111 CB        -4.5049  -17.5955  -56.0174 C.3       20 UNK        -0.1800 
    112 C         -6.0754  -19.4829  -55.4245 C.2       20 UNK         0.5000 
    113 O         -7.2908  -19.3236  -55.5430 O.2       20 UNK        -0.5000 
    114 N         -5.4975  -20.1030  -54.3816 N.am      21 UNK        -0.5000 
    115 CA        -6.1829  -20.6911  -53.2175 C.3       21 UNK         0.1400 
    116 CB        -6.9778  -21.9444  -53.6434 C.3       21 UNK        -0.1800 
    117 C         -7.0605  -19.6851  -52.4341 C.2       21 UNK         0.5000 
    118 O         -8.0506  -20.0830  -51.8182 O.2       21 UNK        -0.5000 
    119 N         -6.6961  -18.3959  -52.5011 N.am      22 UNK        -0.5000 
    120 CA        -7.4702  -17.2390  -52.0128 C.3       22 UNK         0.1400 
    121 C         -8.8200  -16.9996  -52.7632 C.2       22 UNK         0.5000 
    122 N         -9.0492  -17.5813  -53.9356 N.am      22 UNK        -0.7600 
    123 O         -9.6680  -16.2436  -52.2963 O.2       22 UNK        -0.5000 
    124 C124       -7.6318  -17.2083  -50.4658 C.3       23 UNK        -0.0398 
    125 S125       -6.0336  -17.1070  -49.5913 S.3       23 UNK        -0.2404 
    126 C126       -5.9013  -18.7877  -48.9146 C.3       23 UNK        -0.0205 
    127 H127       -4.3899  -15.4789  -47.4940 H         1 UNK         0.0600 
    128 H128       -3.4755  -14.4048  -46.4285 H         1 UNK         0.0600 
    129 H129       -3.1703  -16.1427  -46.4060 H         1 UNK         0.0600 
    130 H130       -1.3695  -16.7647  -47.5434 H         1 UNK         0.3000 
    131 H131       -0.7093  -15.8163  -50.1529 H         1 UNK         0.0600 
    132 H132        0.7390  -17.6548  -48.1778 H         1 UNK         0.0800 
    133 H133        1.4105  -17.2704  -49.7356 H         1 UNK         0.0800 
    134 H134       -0.1333  -19.8491  -47.9592 H         1 UNK         0.0800 
    135 H135       -1.0854  -20.7643  -49.0883 H         1 UNK         0.0800 
    136 H136       -3.3871  -19.3049  -49.7978 H         1 UNK         0.1150 
    137 H137       -5.6288  -18.6894  -46.2039 H         1 UNK         0.1150 
    138 H138       -1.4085  -19.3970  -45.9919 H         1 UNK         0.1150 
    139 H139       -2.7028  -18.5915  -43.9881 H         1 UNK         0.0800 
    140 H140       -4.4141  -18.3242  -44.1163 H         1 UNK         0.0800 
    141 H141       -2.4468  -21.9009  -42.3702 H         1 UNK         0.0800 
    142 H142       -1.7786  -20.3870  -42.8235 H         1 UNK         0.0800 
    143 H143       -2.0241  -21.7128  -45.3239 H         1 UNK         0.0600 
    144 H144        0.0678  -20.6569  -43.8333 H         1 UNK         0.3000 
    145 H145        2.8390  -21.6407  -45.7057 H         1 UNK         0.0600 
    146 H146        3.1109  -19.1572  -46.1309 H         1 UNK         0.0600 
    147 H147        2.0932  -19.9618  -47.3110 H         1 UNK         0.0600 
    148 H148        1.3589  -18.9836  -46.0429 H         1 UNK         0.0600 
    149 H149        2.5335  -19.5523  -43.8045 H         1 UNK         0.3000 
    150 H150        2.8239  -21.5708  -40.8580 H         1 UNK         0.0600 
    151 H151        5.1241  -21.1809  -41.7052 H         1 UNK         0.0600 
    152 H152        4.6785  -19.9486  -40.5344 H         1 UNK         0.0600 
    153 H153        4.6809  -19.5708  -42.2555 H         1 UNK         0.0600 
    154 H154        2.4681  -18.7425  -41.4943 H         1 UNK         0.3000 
    155 H155       -1.0497  -18.7491  -40.9436 H         1 UNK         0.0600 
    156 H156        1.1918  -17.5480  -39.2335 H         1 UNK         0.0600 
    157 H157       -0.0478  -18.6452  -38.6322 H         1 UNK         0.0600 
    158 H158       -0.5031  -17.0626  -39.2406 H         1 UNK         0.0600 
    159 H159        0.6330  -16.5700  -41.4480 H         1 UNK         0.3000 
    160 H160        0.9545  -16.9124  -45.0119 H         1 UNK         0.0600 
    161 H161       -0.6500  -14.9887  -43.2564 H         1 UNK         0.0600 
    162 H162       -1.2852  -15.9048  -44.6171 H         1 UNK         0.0600 
    163 H163       -0.0715  -14.6656  -44.8869 H         1 UNK         0.0600 
    164 H164        1.8906  -14.8653  -43.3359 H         1 UNK         0.3000 
    165 H165        4.9910  -16.3231  -42.3225 H         1 UNK         0.0600 
    166 H166        5.8442  -14.3257  -43.4517 H         1 UNK         0.0600 
    167 H167        5.2677  -15.4497  -44.6735 H         1 UNK         0.0600 
    168 H168        4.3000  -14.0418  -44.2452 H         1 UNK         0.0600 
    169 H169        3.3907  -13.8485  -42.0256 H         1 UNK         0.3000 
    170 H170        2.5026  -14.5436  -38.6701 H         1 UNK         0.0600 
    171 H171        4.8415  -13.7031  -38.4005 H         1 UNK         0.0600 
    172 H172        4.5811  -12.5332  -39.6889 H         1 UNK         0.0600 
    173 H173        3.6693  -12.4135  -38.1834 H         1 UNK         0.0600 
    174 H174        2.1882  -12.2021  -40.2657 H         1 UNK         0.3000 
    175 H175       -0.9073  -13.1683  -41.7884 H         1 UNK         0.0600 
    176 H176       -0.2027  -11.1313  -39.6204 H         1 UNK         0.0600 
    177 H177       -1.6658  -11.1611  -40.6046 H         1 UNK         0.0600 
    178 H178       -1.3684  -12.4366  -39.4361 H         1 UNK         0.0600 
    179 H179        0.0840  -10.7455  -42.2093 H         1 UNK         0.3000 
    180 H180        0.6999  -10.3192  -44.3898 H         1 UNK         0.0600 
    181 H181        3.6774  -10.6134  -43.6741 H         1 UNK         0.0600 
    182 H182        2.5386   -9.5321  -42.8806 H         1 UNK         0.0600 
    183 H183        2.9665   -9.2656  -44.5627 H         1 UNK         0.0600 
    184 H184        2.9095  -11.5988  -45.7659 H         1 UNK         0.3000 
    185 H185        1.8839  -12.4876  -48.2339 H         1 UNK         0.0600 
    186 H186        3.7814  -13.0990  -46.6994 H         1 UNK         0.0600 
    187 H187        2.8617  -14.4791  -46.0992 H         1 UNK         0.0600 
    188 H188        3.4288  -14.4391  -47.7636 H         1 UNK         0.0600 
    189 H189       -0.0044  -14.3603  -47.1302 H         1 UNK         0.3000 
    190 H190        0.4115  -23.5553  -43.8597 H         1 UNK         0.3000 
    191 H191       -0.9435  -26.0677  -43.5390 H         1 UNK         0.0600 
    192 H192        1.9642  -25.4048  -44.2625 H         1 UNK         0.0600 
    193 H193        1.3767  -26.9825  -43.7473 H         1 UNK         0.0600 
    194 H194        1.3309  -25.6251  -42.6323 H         1 UNK         0.0600 
    195 H195       -0.0207  -24.1869  -46.3520 H         1 UNK         0.3000 
    196 H196       -1.0885  -26.2792  -48.1711 H         1 UNK         0.0600 
    197 H197        0.6341  -25.6060  -49.8382 H         1 UNK         0.0600 
    198 H198        1.4044  -26.2636  -48.4026 H         1 UNK         0.0600 
    199 H199        1.3784  -24.5207  -48.6674 H         1 UNK         0.0600 
    200 H200       -2.7727  -24.5890  -47.0385 H         1 UNK         0.3000 
    201 H201       -3.0556  -22.0000  -48.0131 H         1 UNK         0.0600 
    202 H202       -4.2831  -22.8084  -46.0575 H         1 UNK         0.0600 
    203 H203       -5.1882  -23.9634  -47.0380 H         1 UNK         0.0600 
    204 H204       -5.4367  -22.2314  -47.2381 H         1 UNK         0.0600 
    205 H205       -3.5790  -24.8698  -49.8260 H         1 UNK         0.3000 
    206 H206       -5.3849  -23.8542  -51.8312 H         1 UNK         0.0600 
    207 H207       -4.9880  -26.2870  -51.5017 H         1 UNK         0.0600 
    208 H208       -4.5520  -25.8151  -53.1356 H         1 UNK         0.0600 
    209 H209       -3.2903  -26.0939  -51.9410 H         1 UNK         0.0600 
    210 H210       -2.0306  -23.2077  -51.1284 H         1 UNK         0.3000 
    211 H211       -0.4105  -22.0481  -52.0836 H         1 UNK         0.0600 
    212 H212       -2.6218  -20.6337  -53.6689 H         1 UNK         0.0600 
    213 H213       -1.0361  -19.9907  -53.2666 H         1 UNK         0.0600 
    214 H214       -2.2125  -20.2772  -51.9931 H         1 UNK         0.0600 
    215 H215       -0.7118  -24.5294  -53.1855 H         1 UNK         0.3000 
    216 H216       -0.2187  -25.9252  -54.8316 H         1 UNK         0.0600 
    217 H217        1.5164  -25.3096  -56.4634 H         1 UNK         0.0600 
    218 H218        1.9196  -24.6082  -54.9062 H         1 UNK         0.0600 
    219 H219        1.2447  -23.5960  -56.1825 H         1 UNK         0.0600 
    220 H220       -2.6924  -24.2642  -55.0229 H         1 UNK         0.3000 
    221 H221       -4.5202  -24.0738  -56.1900 H         1 UNK         0.0600 
    222 H222       -3.3405  -25.8447  -58.3891 H         1 UNK         0.0600 
    223 H223       -4.1627  -26.4419  -56.9474 H         1 UNK         0.0600 
    224 H224       -5.0364  -25.4757  -58.1232 H         1 UNK         0.0600 
    225 H225       -2.0375  -22.3066  -56.6412 H         1 UNK         0.3000 
    226 H226       -2.3821  -21.2078  -59.2988 H         1 UNK         0.0600 
    227 H227       -0.1967  -21.2141  -58.0563 H         1 UNK         0.0600 
    228 H228       -0.6768  -19.6009  -58.5628 H         1 UNK         0.0600 
    229 H229       -0.8728  -20.0824  -56.8843 H         1 UNK         0.0600 
    230 H230       -3.9773  -20.6775  -56.2570 H         1 UNK         0.3000 
    231 H231       -5.7501  -18.7086  -57.3767 H         1 UNK         0.0600 
    232 H232       -3.9456  -17.1091  -56.8165 H         1 UNK         0.0600 
    233 H233       -3.8213  -17.7548  -55.1828 H         1 UNK         0.0600 
    234 H234       -5.2703  -16.8914  -55.6881 H         1 UNK         0.0600 
    235 H235       -4.4900  -20.1440  -54.3467 H         1 UNK         0.3000 
    236 H236       -5.4004  -21.0087  -52.5275 H         1 UNK         0.0600 
    237 H237       -7.8451  -21.6845  -54.2510 H         1 UNK         0.0600 
    238 H238       -6.3616  -22.6309  -54.2228 H         1 UNK         0.0600 
    239 H239       -7.3411  -22.4913  -52.7728 H         1 UNK         0.0600 
    240 H240       -5.8635  -18.1688  -53.0233 H         1 UNK         0.3000 
    241 H241       -6.8707  -16.3686  -52.2812 H         1 UNK         0.0600 
    242 H242       -9.9214  -17.4031  -54.4075 H         1 UNK         0.3800 
    243 H243       -8.3729  -18.2060  -54.3636 H         1 UNK         0.3800 
    244 H244       -8.2033  -18.0683  -50.1153 H         1 UNK         0.0800 
    245 H245       -8.2028  -16.3304  -50.1600 H         1 UNK         0.0800 
    246 H246       -5.9006  -19.5116  -49.7295 H         1 UNK         0.0800 
    247 H247       -6.7797  -19.0077  -48.3062 H         1 UNK         0.0800 
@<TRIPOS>BOND
     1    1    2 1    
     2    1  127 1    
     3    1  128 1    
     4    1  129 1    
     5    2    3 2    
     6    2    4 am   BACKBONE|DICT|INTERRES
     7    4    5 1    
     8    4  130 1    
     9    5    6 1    
    10    5   65 1    
    11    5  131 1    
    12    6    7 1    
    13    6  132 1    
    14    6  133 1    
    15    7    8 1    
    16    8    9 1    
    17    8  134 1    
    18    8  135 1    
    19    9   10 ar   
    20    9   14 ar   
    21   10   11 ar   
    22   10  136 1    
    23   11   12 ar   
    24   11  126 1    
    25   12   13 ar   
    26   12  137 1    
    27   13   14 ar   
    28   13   15 1    
    29   14  138 1    
    30   15   16 1    
    31   15  139 1    
    32   15  140 1    
    33   16   17 1    
    34   17   18 1    
    35   17  141 1    
    36   17  142 1    
    37   18   19 1    
    38   18   67 1    
    39   18  143 1    
    40   19   20 am   BACKBONE|DICT|INTERRES
    41   19  144 1    
    42   20   21 2    
    43   20   22 1    
    44   22   23 1    
    45   22   24 1    
    46   22  145 1    
    47   23  146 1    
    48   23  147 1    
    49   23  148 1    
    50   24   25 am   BACKBONE|DICT|INTERRES
    51   24  149 1    
    52   25   26 2    
    53   25   27 1    
    54   27   28 1    
    55   27   29 1    
    56   27  150 1    
    57   28  151 1    
    58   28  152 1    
    59   28  153 1    
    60   29   30 am   BACKBONE|DICT|INTERRES
    61   29  154 1    
    62   30   31 2    
    63   30   32 1    
    64   32   33 1    
    65   32   34 1    
    66   32  155 1    
    67   33  156 1    
    68   33  157 1    
    69   33  158 1    
    70   34   35 am   BACKBONE|DICT|INTERRES
    71   34  159 1    
    72   35   36 2    
    73   35   37 1    
    74   37   38 1    
    75   37   39 1    
    76   37  160 1    
    77   38  161 1    
    78   38  162 1    
    79   38  163 1    
    80   39   40 am   BACKBONE|DICT|INTERRES
    81   39  164 1    
    82   40   41 2    
    83   40   42 1    
    84   42   43 1    
    85   42   44 1    
    86   42  165 1    
    87   43  166 1    
    88   43  167 1    
    89   43  168 1    
    90   44   45 am   BACKBONE|DICT|INTERRES
    91   44  169 1    
    92   45   46 2    
    93   45   47 1    
    94   47   48 1    
    95   47   49 1    
    96   47  170 1    
    97   48  171 1    
    98   48  172 1    
    99   48  173 1    
   100   49   50 am   BACKBONE|DICT|INTERRES
   101   49  174 1    
   102   50   51 2    
   103   50   52 1    
   104   52   53 1    
   105   52   54 1    
   106   52  175 1    
   107   53  176 1    
   108   53  177 1    
   109   53  178 1    
   110   54   55 am   BACKBONE|DICT|INTERRES
   111   54  179 1    
   112   55   56 2    
   113   55   57 1    
   114   57   58 1    
   115   57   59 1    
   116   57  180 1    
   117   58  181 1    
   118   58  182 1    
   119   58  183 1    
   120   59   60 am   BACKBONE|DICT|INTERRES
   121   59  184 1    
   122   60   61 2    
   123   60   62 1    
   124   62   63 1    
   125   62   64 1    
   126   62  185 1    
   127   63  186 1    
   128   63  187 1    
   129   63  188 1    
   130   64   65 am   BACKBONE|DICT|INTERRES
   131   64  189 1    
   132   65   66 2    
   133   67   68 2    
   134   67   69 am   BACKBONE|DICT|INTERRES
   135   69   70 1    
   136   69  190 1    
   137   70   71 1    
   138   70   72 1    
   139   70  191 1    
   140   71  192 1    
   141   71  193 1    
   142   71  194 1    
   143   72   73 2    
   144   72   74 am   BACKBONE|DICT|INTERRES
   145   74   75 1    
   146   74  195 1    
   147   75   76 1    
   148   75   77 1    
   149   75  196 1    
   150   76  197 1    
   151   76  198 1    
   152   76  199 1    
   153   77   78 2    
   154   77   79 am   BACKBONE|DICT|INTERRES
   155   79   80 1    
   156   79  200 1    
   157   80   81 1    
   158   80   82 1    
   159   80  201 1    
   160   81  202 1    
   161   81  203 1    
   162   81  204 1    
   163   82   83 2    
   164   82   84 am   BACKBONE|DICT|INTERRES
   165   84   85 1    
   166   84  205 1    
   167   85   86 1    
   168   85   87 1    
   169   85  206 1    
   170   86  207 1    
   171   86  208 1    
   172   86  209 1    
   173   87   88 2    
   174   87   89 am   BACKBONE|DICT|INTERRES
   175   89   90 1    
   176   89  210 1    
   177   90   91 1    
   178   90   92 1    
   179   90  211 1    
   180   91  212 1    
   181   91  213 1    
   182   91  214 1    
   183   92   93 2    
   184   92   94 am   BACKBONE|DICT|INTERRES
   185   94   95 1    
   186   94  215 1    
   187   95   96 1    
   188   95   97 1    
   189   95  216 1    
   190   96  217 1    
   191   96  218 1    
   192   96  219 1    
   193   97   98 2    
   194   97   99 am   BACKBONE|DICT|INTERRES
   195   99  100 1    
   196   99  220 1    
   197  100  101 1    
   198  100  102 1    
   199  100  221 1    
   200  101  222 1    
   201  101  223 1    
   202  101  224 1    
   203  102  103 2    
   204  102  104 am   BACKBONE|DICT|INTERRES
   205  104  105 1    
   206  104  225 1    
   207  105  106 1    
   208  105  107 1    
   209  105  226 1    
   210  106  227 1    
   211  106  228 1    
   212  106  229 1    
   213  107  108 2    
   214  107  109 am   BACKBONE|DICT|INTERRES
   215  109  110 1    
   216  109  230 1    
   217  110  111 1    
   218  110  112 1    
   219  110  231 1    
   220  111  232 1    
   221  111  233 1    
   222  111  234 1    
   223  112  113 2    
   224  112  114 am   BACKBONE|DICT|INTERRES
   225  114  115 1    
   226  114  235 1    
   227  115  116 1    
   228  115  117 1    
   229  115  236 1    
   230  116  237 1    
   231  116  238 1    
   232  116  239 1    
   233  117  118 2    
   234  117  119 am   BACKBONE|DICT|INTERRES
   235  119  120 1    
   236  119  240 1    
   237  120  121 1    
   238  120  124 1    
   239  120  241 1    
   240  121  122 am   BACKBONE|DICT|INTERRES
   241  121  123 2    
   242  122  242 1    
   243  122  243 1    
   244  124  125 1    
   245  124  244 1    
   246  124  245 1    
   247  125  126 1    
   248  126  246 1    
   249  126  247 1    
@<TRIPOS>SUBSTRUCTURE
     1 UNK         1 GROUP             0       ****    0 ROOT    
