@<TRIPOS>MOLECULE
3R540
247   249    1
SMALL
USER_CHARGES


@<TRIPOS>ATOM
      1 CA          5.4636  -10.3539  -47.8872 C.3       0 UNK        -0.1800 
      2 C           4.4184  -11.3010  -48.4595 C.2       0 UNK         0.5000 
      3 O           3.9641  -11.0996  -49.5855 O.2       0 UNK        -0.5000 
      4 N           4.0393  -12.3289  -47.6866 N.am      1 UNK        -0.5000 
      5 CA          3.0421  -13.3510  -48.0344 C.3       1 UNK         0.1400 
      6 C6          3.4763  -14.2338  -49.2408 C.3       23 UNK        -0.0398 
      7 S7          2.8158  -15.9344  -49.1430 S.3       23 UNK        -0.2404 
      8 C8          1.7595  -16.0133  -50.6236 C.3       23 UNK        -0.0205 
      9 C9          0.5881  -16.9573  -50.4093 C.ar      23 UNK        -0.0193 
     10 C10        -0.6472  -16.4501  -49.9967 C.ar      23 UNK        -0.1150 
     11 C11        -1.7363  -17.3026  -49.7950 C.ar      23 UNK        -0.0193 
     12 C12        -1.5680  -18.6754  -49.9803 C.ar      23 UNK        -0.1150 
     13 C13        -0.3422  -19.1991  -50.4028 C.ar      23 UNK        -0.0193 
     14 C14         0.7322  -18.3316  -50.6234 C.ar      23 UNK        -0.1150 
     15 C15        -0.1879  -20.7003  -50.6196 C.3       23 UNK        -0.0205 
     16 S16         1.0228  -21.4846  -49.5060 S.3       23 UNK        -0.2404 
     17 C17         0.4980  -20.9040  -47.8607 C.3       23 UNK        -0.0398 
     18 CA         -0.2406  -21.9566  -47.0028 C.3       11 UNK         0.1400 
     19 N          -0.0892  -21.6295  -45.5795 N.am      11 UNK        -0.5000 
     20 C          -0.5710  -22.3061  -44.5281 C.2       10 UNK         0.5000 
     21 O          -1.2314  -23.3400  -44.6193 O.2       10 UNK        -0.5000 
     22 CA         -0.3197  -21.6792  -43.1475 C.3       10 UNK         0.1400 
     23 CB          1.1161  -21.9476  -42.6731 C.3       10 UNK        -0.1800 
     24 N          -0.5723  -20.2381  -43.1893 N.am      10 UNK        -0.5000 
     25 C          -1.7900  -19.6918  -43.0668 C.2       9 UNK         0.5000 
     26 O          -2.7947  -20.3346  -42.7619 O.2       9 UNK        -0.5000 
     27 CA         -1.9298  -18.1862  -43.3638 C.3       9 UNK         0.1400 
     28 CB         -1.9634  -17.3604  -42.0715 C.3       9 UNK        -0.1800 
     29 N          -0.8891  -17.6688  -44.2558 N.am      9 UNK        -0.5000 
     30 C          -0.8791  -17.8979  -45.5752 C.2       8 UNK         0.5000 
     31 O          -1.7040  -18.6106  -46.1454 O.2       8 UNK        -0.5000 
     32 CA          0.2372  -17.2390  -46.4041 C.3       8 UNK         0.1400 
     33 CB         -0.0930  -15.7582  -46.6290 C.3       8 UNK        -0.1800 
     34 N           1.6030  -17.3420  -45.8802 N.am      8 UNK        -0.5000 
     35 C           2.1989  -18.4051  -45.3242 C.2       7 UNK         0.5000 
     36 O           1.6170  -19.4476  -45.0264 O.2       7 UNK        -0.5000 
     37 CA          3.7081  -18.3012  -45.0628 C.3       7 UNK         0.1400 
     38 CB          4.4145  -17.1528  -45.8142 C.3       7 UNK        -0.1800 
     39 N           3.9384  -18.1658  -43.6301 N.am      7 UNK        -0.5000 
     40 C           4.9879  -18.6843  -42.9777 C.2       6 UNK         0.5000 
     41 O           5.8493  -19.3765  -43.5227 O.2       6 UNK        -0.5000 
     42 CA          5.1374  -18.3631  -41.4759 C.3       6 UNK         0.1400 
     43 CB          6.3736  -17.4805  -41.2363 C.3       6 UNK        -0.1800 
     44 N           3.9733  -17.6844  -40.9092 N.am      6 UNK        -0.5000 
     45 C           2.8466  -18.2897  -40.5141 C.2       5 UNK         0.5000 
     46 O           2.6788  -19.5080  -40.5391 O.2       5 UNK        -0.5000 
     47 CA          1.7099  -17.3722  -40.0254 C.3       5 UNK         0.1400 
     48 CB          1.7253  -17.2664  -38.4931 C.3       5 UNK        -0.1800 
     49 N           1.7601  -16.0216  -40.5990 N.am      5 UNK        -0.5000 
     50 C           1.5711  -15.7283  -41.8920 C.2       4 UNK         0.5000 
     51 O           1.3264  -16.5700  -42.7593 O.2       4 UNK        -0.5000 
     52 CA          1.7580  -14.2575  -42.2980 C.3       4 UNK         0.1400 
     53 CB          3.1553  -14.0530  -42.9034 C.3       4 UNK        -0.1800 
     54 N           0.7551  -13.8302  -43.2724 N.am      4 UNK        -0.5000 
     55 C          -0.5389  -13.6214  -42.9899 C.2       3 UNK         0.5000 
     56 O          -1.0147  -13.7661  -41.8630 O.2       3 UNK        -0.5000 
     57 CA         -1.4326  -13.1344  -44.1483 C.3       3 UNK         0.1400 
     58 CB         -2.6620  -12.3429  -43.6549 C.3       3 UNK        -0.1800 
     59 N          -0.6574  -12.3290  -45.0964 N.am      3 UNK        -0.5000 
     60 C          -0.9961  -12.0902  -46.3702 C.2       2 UNK         0.5000 
     61 O          -1.9986  -12.5534  -46.9139 O.2       2 UNK        -0.5000 
     62 CA         -0.0350  -11.1937  -47.1711 C.3       2 UNK         0.1400 
     63 CB          0.0888   -9.7920  -46.5490 C.3       2 UNK        -0.1800 
     64 N           1.2900  -11.8059  -47.2690 N.am      2 UNK        -0.5000 
     65 C           1.6161  -12.7562  -48.1578 C.2       1 UNK         0.5000 
     66 O           0.8456  -13.1514  -49.0326 O.2       1 UNK        -0.5000 
     67 C          -1.7196  -22.1056  -47.4288 C.2       11 UNK         0.5000 
     68 O          -2.0465  -22.9786  -48.2374 O.2       11 UNK        -0.5000 
     69 N          -2.5969  -21.2936  -46.8210 N.am      12 UNK        -0.5000 
     70 CA         -4.0538  -21.3510  -46.9378 C.3       12 UNK         0.1400 
     71 CB         -4.6753  -20.2393  -46.0808 C.3       12 UNK        -0.1800 
     72 C          -4.6698  -22.7182  -46.5799 C.2       12 UNK         0.5000 
     73 O          -5.6895  -23.0851  -47.1631 O.2       12 UNK        -0.5000 
     74 N          -4.0331  -23.4529  -45.6597 N.am      13 UNK        -0.5000 
     75 CA         -4.4098  -24.8116  -45.2827 C.3       13 UNK         0.1400 
     76 CB         -4.3208  -24.9571  -43.7549 C.3       13 UNK        -0.1800 
     77 C          -3.5077  -25.8394  -45.9833 C.2       13 UNK         0.5000 
     78 O          -4.0188  -26.7756  -46.5973 O.2       13 UNK        -0.5000 
     79 N          -2.1850  -25.6453  -45.8834 N.am      14 UNK        -0.5000 
     80 CA         -1.1543  -26.5990  -46.3001 C.3       14 UNK         0.1400 
     81 CB          0.2143  -26.1091  -45.8025 C.3       14 UNK        -0.1800 
     82 C          -1.1086  -26.8730  -47.8133 C.2       14 UNK         0.5000 
     83 O          -0.8413  -28.0082  -48.2095 O.2       14 UNK        -0.5000 
     84 N          -1.3756  -25.8424  -48.6238 N.am      15 UNK        -0.5000 
     85 CA         -1.4146  -25.9191  -50.0856 C.3       15 UNK         0.1400 
     86 CB         -0.4207  -24.8912  -50.6554 C.3       15 UNK        -0.1800 
     87 C          -2.8335  -25.6656  -50.6259 C.2       15 UNK         0.5000 
     88 O          -2.9901  -25.4760  -51.8332 O.2       15 UNK        -0.5000 
     89 N          -3.8342  -25.5972  -49.7319 N.am      16 UNK        -0.5000 
     90 CA         -5.2252  -25.2046  -49.9971 C.3       16 UNK         0.1400 
     91 CB         -5.9519  -26.2991  -50.8055 C.3       16 UNK        -0.1800 
     92 C          -5.3215  -23.8111  -50.6574 C.2       16 UNK         0.5000 
     93 O          -6.1155  -23.6105  -51.5776 O.2       16 UNK        -0.5000 
     94 N          -4.4467  -22.8948  -50.2168 N.am      17 UNK        -0.5000 
     95 CA         -4.2173  -21.5574  -50.7657 C.3       17 UNK         0.1400 
     96 CB         -5.4517  -20.6481  -50.5860 C.3       17 UNK        -0.1800 
     97 C          -3.6982  -21.5853  -52.2171 C.2       17 UNK         0.5000 
     98 O          -4.0829  -20.7362  -53.0200 O.2       17 UNK        -0.5000 
     99 N          -2.8563  -22.5801  -52.5341 N.am      18 UNK        -0.5000 
    100 CA        -2.3541  -22.9097  -53.8735 C.3       18 UNK         0.1400 
    101 CB        -1.4058  -21.8126  -54.4016 C.3       18 UNK        -0.1800 
    102 C         -3.5084  -23.2499  -54.8393 C.2       18 UNK         0.5000 
    103 O         -3.5540  -22.7427  -55.9605 O.2       18 UNK        -0.5000 
    104 N         -4.4357  -24.0853  -54.3468 N.am      19 UNK        -0.5000 
    105 CA        -5.7111  -24.4622  -54.9627 C.3       19 UNK         0.1400 
    106 CB        -5.4840  -25.2914  -56.2443 C.3       19 UNK        -0.1800 
    107 C         -6.6358  -23.2433  -55.1740 C.2       19 UNK         0.5000 
    108 O         -7.0828  -22.9861  -56.2936 O.2       19 UNK        -0.5000 
    109 N         -6.9023  -22.5244  -54.0731 N.am      20 UNK        -0.5000 
    110 CA        -7.7882  -21.3594  -53.9596 C.3       20 UNK         0.1400 
    111 CB        -9.2572  -21.7782  -54.1808 C.3       20 UNK        -0.1800 
    112 C         -7.3623  -20.1606  -54.8357 C.2       20 UNK         0.5000 
    113 O         -8.2179  -19.4953  -55.4238 O.2       20 UNK        -0.5000 
    114 N         -6.0506  -19.9043  -54.9070 N.am      21 UNK        -0.5000 
    115 CA        -5.4549  -18.8265  -55.6949 C.3       21 UNK         0.1400 
    116 CB        -4.3153  -19.4005  -56.5510 C.3       21 UNK        -0.1800 
    117 C         -4.9375  -17.6877  -54.8011 C.2       21 UNK         0.5000 
    118 O         -5.2174  -16.5235  -55.0911 O.2       21 UNK        -0.5000 
    119 N         -4.1973  -18.0379  -53.7387 N.am      22 UNK        -0.5000 
    120 CA        -3.4636  -17.1198  -52.8497 C.3       22 UNK         0.1400 
    121 C         -2.4180  -16.2419  -53.6175 C.2       22 UNK         0.5000 
    122 N         -2.1059  -15.0369  -53.1638 N.am      22 UNK        -0.7600 
    123 O         -1.8425  -16.6711  -54.6158 O.2       22 UNK        -0.5000 
    124 C124       -4.4391  -16.3696  -51.8903 C.3       23 UNK        -0.0398 
    125 S125       -3.7050  -15.4479  -50.4863 S.3       23 UNK        -0.2404 
    126 C126       -3.0909  -16.7505  -49.3665 C.3       23 UNK        -0.0205 
    127 H127        6.3442  -10.3349  -48.5293 H         1 UNK         0.0600 
    128 H128        5.0612   -9.3426  -47.8287 H         1 UNK         0.0600 
    129 H129        5.7788  -10.6526  -46.8871 H         1 UNK         0.0600 
    130 H130        4.4665  -12.4337  -46.7766 H         1 UNK         0.3000 
    131 H131        3.0046  -13.9972  -47.1560 H         1 UNK         0.0600 
    132 H132        3.2205  -13.7636  -50.1916 H         1 UNK         0.0800 
    133 H133        4.5626  -14.3321  -49.2507 H         1 UNK         0.0800 
    134 H134        1.3827  -15.0211  -50.8749 H         1 UNK         0.0800 
    135 H135        2.3562  -16.3392  -51.4765 H         1 UNK         0.0800 
    136 H136       -0.7618  -15.3871  -49.8339 H         1 UNK         0.1150 
    137 H137       -2.4013  -19.3300  -49.7921 H         1 UNK         0.1150 
    138 H138        1.6852  -18.7288  -50.9436 H         1 UNK         0.1150 
    139 H139       -1.1402  -21.2128  -50.4981 H         1 UNK         0.0800 
    140 H140        0.1242  -20.8758  -51.6487 H         1 UNK         0.0800 
    141 H141       -0.0800  -19.9842  -47.9261 H         1 UNK         0.0800 
    142 H142        1.4269  -20.6198  -47.3665 H         1 UNK         0.0800 
    143 H143        0.2393  -22.9252  -47.1513 H         1 UNK         0.0600 
    144 H144        0.4619  -20.7973  -45.3792 H         1 UNK         0.3000 
    145 H145       -0.9998  -22.1507  -42.4348 H         1 UNK         0.0600 
    146 H146        1.2699  -21.5680  -41.6633 H         1 UNK         0.0600 
    147 H147        1.3259  -23.0178  -42.6523 H         1 UNK         0.0600 
    148 H148        1.8581  -21.4804  -43.3210 H         1 UNK         0.0600 
    149 H149        0.1945  -19.6534  -43.5015 H         1 UNK         0.3000 
    150 H150       -2.8952  -18.0515  -43.8571 H         1 UNK         0.0600 
    151 H151       -2.7427  -17.7178  -41.3974 H         1 UNK         0.0600 
    152 H152       -2.1716  -16.3114  -42.2808 H         1 UNK         0.0600 
    153 H153       -1.0185  -17.4131  -41.5375 H         1 UNK         0.0600 
    154 H154       -0.1247  -17.1500  -43.8298 H         1 UNK         0.3000 
    155 H155        0.2400  -17.7278  -47.3792 H         1 UNK         0.0600 
    156 H156        0.5198  -15.3411  -47.4237 H         1 UNK         0.0600 
    157 H157        0.0781  -15.1713  -45.7290 H         1 UNK         0.0600 
    158 H158       -1.1332  -15.6165  -46.9249 H         1 UNK         0.0600 
    159 H159        2.1925  -16.5474  -46.0721 H         1 UNK         0.3000 
    160 H160        4.1323  -19.2441  -45.4148 H         1 UNK         0.0600 
    161 H161        4.0626  -16.1713  -45.4974 H         1 UNK         0.0600 
    162 H162        4.2623  -17.2378  -46.8902 H         1 UNK         0.0600 
    163 H163        5.4911  -17.1831  -45.6454 H         1 UNK         0.0600 
    164 H164        3.2252  -17.6654  -43.1137 H         1 UNK         0.3000 
    165 H165        5.2875  -19.3097  -40.9524 H         1 UNK         0.0600 
    166 H166        6.2870  -16.5199  -41.7458 H         1 UNK         0.0600 
    167 H167        6.5197  -17.2860  -40.1736 H         1 UNK         0.0600 
    168 H168        7.2795  -17.9654  -41.6024 H         1 UNK         0.0600 
    169 H169        4.0250  -16.6791  -40.8415 H         1 UNK         0.3000 
    170 H170        0.7721  -17.8422  -40.3208 H         1 UNK         0.0600 
    171 H171        1.6662  -18.2536  -38.0325 H         1 UNK         0.0600 
    172 H172        2.6368  -16.7893  -38.1310 H         1 UNK         0.0600 
    173 H173        0.8752  -16.6890  -38.1292 H         1 UNK         0.0600 
    174 H174        1.9601  -15.2718  -39.9524 H         1 UNK         0.3000 
    175 H175        1.6680  -13.6276  -41.4103 H         1 UNK         0.0600 
    176 H176        3.9357  -14.3433  -42.1988 H         1 UNK         0.0600 
    177 H177        3.2933  -14.6461  -43.8076 H         1 UNK         0.0600 
    178 H178        3.3249  -13.0070  -43.1595 H         1 UNK         0.0600 
    179 H179        1.0652  -13.7479  -44.2274 H         1 UNK         0.3000 
    180 H180       -1.7884  -14.0319  -44.6579 H         1 UNK         0.0600 
    181 H181       -3.2693  -12.9405  -42.9740 H         1 UNK         0.0600 
    182 H182       -3.3084  -12.0508  -44.4823 H         1 UNK         0.0600 
    183 H183       -2.3660  -11.4366  -43.1256 H         1 UNK         0.0600 
    184 H184        0.1671  -11.8840  -44.7189 H         1 UNK         0.3000 
    185 H185       -0.4502  -11.0718  -48.1742 H         1 UNK         0.0600 
    186 H186        0.6869   -9.1364  -47.1822 H         1 UNK         0.0600 
    187 H187       -0.8918   -9.3273  -46.4377 H         1 UNK         0.0600 
    188 H188        0.5549   -9.8165  -45.5636 H         1 UNK         0.0600 
    189 H189        1.9866  -11.5055  -46.6035 H         1 UNK         0.3000 
    190 H190       -2.2298  -20.5423  -46.2457 H         1 UNK         0.3000 
    191 H191       -4.2977  -21.1447  -47.9757 H         1 UNK         0.0600 
    192 H192       -4.3399  -19.2548  -46.4071 H         1 UNK         0.0600 
    193 H193       -5.7636  -20.2497  -46.1540 H         1 UNK         0.0600 
    194 H194       -4.4150  -20.3517  -45.0279 H         1 UNK         0.0600 
    195 H195       -3.1723  -23.0980  -45.2595 H         1 UNK         0.3000 
    196 H196       -5.4418  -25.0177  -45.5748 H         1 UNK         0.0600 
    197 H197       -4.5866  -25.9678  -43.4428 H         1 UNK         0.0600 
    198 H198       -5.0069  -24.2721  -43.2565 H         1 UNK         0.0600 
    199 H199       -3.3168  -24.7508  -43.3821 H         1 UNK         0.0600 
    200 H200       -1.8511  -24.8278  -45.3760 H         1 UNK         0.3000 
    201 H201       -1.3714  -27.5480  -45.8056 H         1 UNK         0.0600 
    202 H202        0.2216  -25.9929  -44.7185 H         1 UNK         0.0600 
    203 H203        0.4823  -25.1487  -46.2428 H         1 UNK         0.0600 
    204 H204        1.0017  -26.8193  -46.0585 H         1 UNK         0.0600 
    205 H205       -1.5887  -24.9339  -48.2237 H         1 UNK         0.3000 
    206 H206       -1.1169  -26.9096  -50.4346 H         1 UNK         0.0600 
    207 H207       -0.3497  -24.9692  -51.7409 H         1 UNK         0.0600 
    208 H208       -0.7172  -23.8695  -50.4186 H         1 UNK         0.0600 
    209 H209        0.5811  -25.0477  -50.2553 H         1 UNK         0.0600 
    210 H210       -3.6130  -25.8024  -48.7668 H         1 UNK         0.3000 
    211 H211       -5.7180  -25.1233  -49.0275 H         1 UNK         0.0600 
    212 H212       -5.5426  -26.4022  -51.8109 H         1 UNK         0.0600 
    213 H213       -7.0133  -26.0698  -50.9070 H         1 UNK         0.0600 
    214 H214       -5.8760  -27.2678  -50.3119 H         1 UNK         0.0600 
    215 H215       -3.8092  -23.1727  -49.4791 H         1 UNK         0.3000 
    216 H216       -3.4132  -21.1456  -50.1647 H         1 UNK         0.0600 
    217 H217       -6.2799  -20.9687  -51.2136 H         1 UNK         0.0600 
    218 H218       -5.2200  -19.6163  -50.8525 H         1 UNK         0.0600 
    219 H219       -5.8100  -20.6447  -49.5579 H         1 UNK         0.0600 
    220 H220       -2.6672  -23.2803  -51.8304 H         1 UNK         0.3000 
    221 H221       -1.7680  -23.8240  -53.7704 H         1 UNK         0.0600 
    222 H222       -1.9043  -20.8493  -54.5038 H         1 UNK         0.0600 
    223 H223       -0.5537  -21.6794  -53.7372 H         1 UNK         0.0600 
    224 H224       -1.0076  -22.0791  -55.3812 H         1 UNK         0.0600 
    225 H225       -4.2807  -24.4459  -53.4130 H         1 UNK         0.3000 
    226 H226       -6.2168  -25.1082  -54.2432 H         1 UNK         0.0600 
    227 H227       -4.8517  -26.1568  -56.0461 H         1 UNK         0.0600 
    228 H228       -6.4303  -25.6641  -56.6377 H         1 UNK         0.0600 
    229 H229       -5.0125  -24.7052  -57.0334 H         1 UNK         0.0600 
    230 H230       -6.5031  -22.8486  -53.1934 H         1 UNK         0.3000 
    231 H231       -7.7108  -21.0148  -52.9298 H         1 UNK         0.0600 
    232 H232       -9.5335  -22.6047  -53.5260 H         1 UNK         0.0600 
    233 H233       -9.4398  -22.0895  -55.2097 H         1 UNK         0.0600 
    234 H234       -9.9371  -20.9537  -53.9630 H         1 UNK         0.0600 
    235 H235       -5.4091  -20.4594  -54.3474 H         1 UNK         0.3000 
    236 H236       -6.1920  -18.3993  -56.3779 H         1 UNK         0.0600 
    237 H237       -3.8492  -18.6220  -57.1563 H         1 UNK         0.0600 
    238 H238       -3.5357  -19.8502  -55.9361 H         1 UNK         0.0600 
    239 H239       -4.6840  -20.1685  -57.2313 H         1 UNK         0.0600 
    240 H240       -4.0431  -19.0288  -53.5659 H         1 UNK         0.3000 
    241 H241       -2.8559  -17.7839  -52.2401 H         1 UNK         0.0600 
    242 H242       -2.5290  -14.6876  -52.3157 H         1 UNK         0.3800 
    243 H243       -1.4202  -14.4836  -53.6522 H         1 UNK         0.3800 
    244 H244       -5.0411  -15.6638  -52.4642 H         1 UNK         0.0800 
    245 H245       -5.1504  -17.0814  -51.4695 H         1 UNK         0.0800 
    246 H246       -2.9888  -16.3298  -48.3657 H         1 UNK         0.0800 
    247 H247       -3.8372  -17.5427  -49.2893 H         1 UNK         0.0800 
@<TRIPOS>BOND
     1    1    2 1    
     2    1  127 1    
     3    1  128 1    
     4    1  129 1    
     5    2    3 2    
     6    2    4 am   BACKBONE|DICT|INTERRES
     7    4    5 1    
     8    4  130 1    
     9    5    6 1    
    10    5   65 1    
    11    5  131 1    
    12    6    7 1    
    13    6  132 1    
    14    6  133 1    
    15    7    8 1    
    16    8    9 1    
    17    8  134 1    
    18    8  135 1    
    19    9   10 ar   
    20    9   14 ar   
    21   10   11 ar   
    22   10  136 1    
    23   11   12 ar   
    24   11  126 1    
    25   12   13 ar   
    26   12  137 1    
    27   13   14 ar   
    28   13   15 1    
    29   14  138 1    
    30   15   16 1    
    31   15  139 1    
    32   15  140 1    
    33   16   17 1    
    34   17   18 1    
    35   17  141 1    
    36   17  142 1    
    37   18   19 1    
    38   18   67 1    
    39   18  143 1    
    40   19   20 am   BACKBONE|DICT|INTERRES
    41   19  144 1    
    42   20   21 2    
    43   20   22 1    
    44   22   23 1    
    45   22   24 1    
    46   22  145 1    
    47   23  146 1    
    48   23  147 1    
    49   23  148 1    
    50   24   25 am   BACKBONE|DICT|INTERRES
    51   24  149 1    
    52   25   26 2    
    53   25   27 1    
    54   27   28 1    
    55   27   29 1    
    56   27  150 1    
    57   28  151 1    
    58   28  152 1    
    59   28  153 1    
    60   29   30 am   BACKBONE|DICT|INTERRES
    61   29  154 1    
    62   30   31 2    
    63   30   32 1    
    64   32   33 1    
    65   32   34 1    
    66   32  155 1    
    67   33  156 1    
    68   33  157 1    
    69   33  158 1    
    70   34   35 am   BACKBONE|DICT|INTERRES
    71   34  159 1    
    72   35   36 2    
    73   35   37 1    
    74   37   38 1    
    75   37   39 1    
    76   37  160 1    
    77   38  161 1    
    78   38  162 1    
    79   38  163 1    
    80   39   40 am   BACKBONE|DICT|INTERRES
    81   39  164 1    
    82   40   41 2    
    83   40   42 1    
    84   42   43 1    
    85   42   44 1    
    86   42  165 1    
    87   43  166 1    
    88   43  167 1    
    89   43  168 1    
    90   44   45 am   BACKBONE|DICT|INTERRES
    91   44  169 1    
    92   45   46 2    
    93   45   47 1    
    94   47   48 1    
    95   47   49 1    
    96   47  170 1    
    97   48  171 1    
    98   48  172 1    
    99   48  173 1    
   100   49   50 am   BACKBONE|DICT|INTERRES
   101   49  174 1    
   102   50   51 2    
   103   50   52 1    
   104   52   53 1    
   105   52   54 1    
   106   52  175 1    
   107   53  176 1    
   108   53  177 1    
   109   53  178 1    
   110   54   55 am   BACKBONE|DICT|INTERRES
   111   54  179 1    
   112   55   56 2    
   113   55   57 1    
   114   57   58 1    
   115   57   59 1    
   116   57  180 1    
   117   58  181 1    
   118   58  182 1    
   119   58  183 1    
   120   59   60 am   BACKBONE|DICT|INTERRES
   121   59  184 1    
   122   60   61 2    
   123   60   62 1    
   124   62   63 1    
   125   62   64 1    
   126   62  185 1    
   127   63  186 1    
   128   63  187 1    
   129   63  188 1    
   130   64   65 am   BACKBONE|DICT|INTERRES
   131   64  189 1    
   132   65   66 2    
   133   67   68 2    
   134   67   69 am   BACKBONE|DICT|INTERRES
   135   69   70 1    
   136   69  190 1    
   137   70   71 1    
   138   70   72 1    
   139   70  191 1    
   140   71  192 1    
   141   71  193 1    
   142   71  194 1    
   143   72   73 2    
   144   72   74 am   BACKBONE|DICT|INTERRES
   145   74   75 1    
   146   74  195 1    
   147   75   76 1    
   148   75   77 1    
   149   75  196 1    
   150   76  197 1    
   151   76  198 1    
   152   76  199 1    
   153   77   78 2    
   154   77   79 am   BACKBONE|DICT|INTERRES
   155   79   80 1    
   156   79  200 1    
   157   80   81 1    
   158   80   82 1    
   159   80  201 1    
   160   81  202 1    
   161   81  203 1    
   162   81  204 1    
   163   82   83 2    
   164   82   84 am   BACKBONE|DICT|INTERRES
   165   84   85 1    
   166   84  205 1    
   167   85   86 1    
   168   85   87 1    
   169   85  206 1    
   170   86  207 1    
   171   86  208 1    
   172   86  209 1    
   173   87   88 2    
   174   87   89 am   BACKBONE|DICT|INTERRES
   175   89   90 1    
   176   89  210 1    
   177   90   91 1    
   178   90   92 1    
   179   90  211 1    
   180   91  212 1    
   181   91  213 1    
   182   91  214 1    
   183   92   93 2    
   184   92   94 am   BACKBONE|DICT|INTERRES
   185   94   95 1    
   186   94  215 1    
   187   95   96 1    
   188   95   97 1    
   189   95  216 1    
   190   96  217 1    
   191   96  218 1    
   192   96  219 1    
   193   97   98 2    
   194   97   99 am   BACKBONE|DICT|INTERRES
   195   99  100 1    
   196   99  220 1    
   197  100  101 1    
   198  100  102 1    
   199  100  221 1    
   200  101  222 1    
   201  101  223 1    
   202  101  224 1    
   203  102  103 2    
   204  102  104 am   BACKBONE|DICT|INTERRES
   205  104  105 1    
   206  104  225 1    
   207  105  106 1    
   208  105  107 1    
   209  105  226 1    
   210  106  227 1    
   211  106  228 1    
   212  106  229 1    
   213  107  108 2    
   214  107  109 am   BACKBONE|DICT|INTERRES
   215  109  110 1    
   216  109  230 1    
   217  110  111 1    
   218  110  112 1    
   219  110  231 1    
   220  111  232 1    
   221  111  233 1    
   222  111  234 1    
   223  112  113 2    
   224  112  114 am   BACKBONE|DICT|INTERRES
   225  114  115 1    
   226  114  235 1    
   227  115  116 1    
   228  115  117 1    
   229  115  236 1    
   230  116  237 1    
   231  116  238 1    
   232  116  239 1    
   233  117  118 2    
   234  117  119 am   BACKBONE|DICT|INTERRES
   235  119  120 1    
   236  119  240 1    
   237  120  121 1    
   238  120  124 1    
   239  120  241 1    
   240  121  122 am   BACKBONE|DICT|INTERRES
   241  121  123 2    
   242  122  242 1    
   243  122  243 1    
   244  124  125 1    
   245  124  244 1    
   246  124  245 1    
   247  125  126 1    
   248  126  246 1    
   249  126  247 1    
@<TRIPOS>SUBSTRUCTURE
     1 UNK         1 GROUP             0       ****    0 ROOT    
