@<TRIPOS>MOLECULE
3R540
247   249    1
SMALL
USER_CHARGES


@<TRIPOS>ATOM
      1 CA         -0.2930  -14.2921  -51.7002 C.3       0 UNK        -0.1800 
      2 C          -0.0902  -14.3573  -50.1933 C.2       0 UNK         0.5000 
      3 O           1.0483  -14.4200  -49.7354 O.2       0 UNK        -0.5000 
      4 N          -1.1865  -14.3236  -49.4235 N.am      1 UNK        -0.5000 
      5 CA         -1.1899  -14.2823  -47.9521 C.3       1 UNK         0.1400 
      6 C6         -2.5830  -14.6343  -47.3748 C.3       23 UNK        -0.0398 
      7 S7         -3.1669  -16.3051  -47.8075 S.3       23 UNK        -0.2404 
      8 C8         -4.6646  -16.3454  -46.7738 C.3       23 UNK        -0.0205 
      9 C9         -5.4768  -17.6092  -46.9996 C.ar      23 UNK        -0.0193 
     10 C10        -6.4341  -17.6510  -48.0145 C.ar      23 UNK        -0.1150 
     11 C11        -7.1972  -18.8019  -48.2323 C.ar      23 UNK        -0.0193 
     12 C12        -6.9976  -19.9173  -47.4096 C.ar      23 UNK        -0.1150 
     13 C13        -6.0622  -19.8803  -46.3687 C.ar      23 UNK        -0.0193 
     14 C14        -5.3058  -18.7209  -46.1724 C.ar      23 UNK        -0.1150 
     15 C15        -5.9194  -21.0665  -45.4187 C.3       23 UNK        -0.0205 
     16 S16        -4.1877  -21.5513  -45.1159 S.3       23 UNK        -0.2404 
     17 C17        -3.7185  -22.1888  -46.7590 C.3       23 UNK        -0.0398 
     18 CA         -2.6918  -23.3419  -46.7261 C.3       11 UNK         0.1400 
     19 N          -1.4317  -22.9433  -46.0977 N.am      11 UNK        -0.5000 
     20 C          -0.3220  -23.6908  -46.0558 C.2       10 UNK         0.5000 
     21 O          -0.1993  -24.7387  -46.6899 O.2       10 UNK        -0.5000 
     22 CA          0.8256  -23.2300  -45.1373 C.3       10 UNK         0.1400 
     23 CB          2.0764  -22.8649  -45.9487 C.3       10 UNK        -0.1800 
     24 N           0.4811  -22.1212  -44.2453 N.am      10 UNK        -0.5000 
     25 C          -0.3919  -22.1860  -43.2287 C.2       9 UNK         0.5000 
     26 O          -1.0536  -23.1927  -42.9680 O.2       9 UNK        -0.5000 
     27 CA         -0.5791  -20.9086  -42.3950 C.3       9 UNK         0.1400 
     28 CB          0.5789  -20.7421  -41.3990 C.3       9 UNK        -0.1800 
     29 N          -0.6406  -19.7303  -43.2602 N.am      9 UNK        -0.5000 
     30 C          -1.7329  -18.9807  -43.4653 C.2       8 UNK         0.5000 
     31 O          -2.7987  -19.1495  -42.8728 O.2       8 UNK        -0.5000 
     32 CA         -1.6281  -17.8366  -44.4963 C.3       8 UNK         0.1400 
     33 CB         -1.5128  -16.4796  -43.7850 C.3       8 UNK        -0.1800 
     34 N          -0.5130  -17.9821  -45.4315 N.am      8 UNK        -0.5000 
     35 C          -0.4350  -18.9255  -46.3829 C.2       7 UNK         0.5000 
     36 O          -1.3095  -19.7653  -46.5868 O.2       7 UNK        -0.5000 
     37 CA          0.8608  -18.9835  -47.2157 C.3       7 UNK         0.1400 
     38 CB          0.6745  -18.2271  -48.5389 C.3       7 UNK        -0.1800 
     39 N           2.0462  -18.4686  -46.5248 N.am      7 UNK        -0.5000 
     40 C           2.5108  -18.8926  -45.3394 C.2       6 UNK         0.5000 
     41 O           2.0113  -19.8206  -44.7026 O.2       6 UNK        -0.5000 
     42 CA          3.6842  -18.1057  -44.7252 C.3       6 UNK         0.1400 
     43 CB          5.0170  -18.7898  -45.0626 C.3       6 UNK        -0.1800 
     44 N           3.7505  -16.6938  -45.1235 N.am      6 UNK        -0.5000 
     45 C           2.7710  -15.7913  -44.9679 C.2       5 UNK         0.5000 
     46 O           1.6482  -16.0659  -44.5371 O.2       5 UNK        -0.5000 
     47 CA          3.0927  -14.3588  -45.4300 C.3       5 UNK         0.1400 
     48 CB          2.9526  -14.2518  -46.9537 C.3       5 UNK        -0.1800 
     49 N           2.2135  -13.3711  -44.8076 N.am      5 UNK        -0.5000 
     50 C           2.2460  -13.0305  -43.5135 C.2       4 UNK         0.5000 
     51 O           3.0719  -13.4704  -42.7100 O.2       4 UNK        -0.5000 
     52 CA          1.1847  -12.0048  -43.0655 C.3       4 UNK         0.1400 
     53 CB          1.3435  -11.5633  -41.5953 C.3       4 UNK        -0.1800 
     54 N           1.1250  -10.8398  -43.9555 N.am      4 UNK        -0.5000 
     55 C           2.1137   -9.9767  -44.2432 C.2       3 UNK         0.5000 
     56 O           3.2383  -10.0261  -43.7420 O.2       3 UNK        -0.5000 
     57 CA          1.7717   -8.8574  -45.2530 C.3       3 UNK         0.1400 
     58 CB          3.0139   -8.2926  -45.9750 C.3       3 UNK        -0.1800 
     59 N           0.7270   -9.2420  -46.2120 N.am      3 UNK        -0.5000 
     60 C           0.7968  -10.2067  -47.1409 C.2       2 UNK         0.5000 
     61 O           1.8075  -10.8675  -47.3862 O.2       2 UNK        -0.5000 
     62 CA         -0.5023  -10.4624  -47.9285 C.3       2 UNK         0.1400 
     63 CB         -0.4965   -9.6617  -49.2399 C.3       2 UNK        -0.1800 
     64 N          -0.7544  -11.8713  -48.2403 N.am      2 UNK        -0.5000 
     65 C          -0.7460  -12.9094  -47.3889 C.2       1 UNK         0.5000 
     66 O          -0.4511  -12.8177  -46.1950 O.2       1 UNK        -0.5000 
     67 C          -3.2883  -24.6298  -46.1163 C.2       11 UNK         0.5000 
     68 O          -3.8938  -25.4131  -46.8466 O.2       11 UNK        -0.5000 
     69 N          -3.0792  -24.8429  -44.8098 N.am      12 UNK        -0.5000 
     70 CA         -3.4991  -26.0521  -44.1066 C.3       12 UNK         0.1400 
     71 CB         -3.7116  -25.7195  -42.6218 C.3       12 UNK        -0.1800 
     72 C          -2.4774  -27.1920  -44.2639 C.2       12 UNK         0.5000 
     73 O          -2.8755  -28.3504  -44.3902 O.2       12 UNK        -0.5000 
     74 N          -1.1829  -26.8479  -44.2281 N.am      13 UNK        -0.5000 
     75 CA         -0.0826  -27.8110  -44.1803 C.3       13 UNK         0.1400 
     76 CB          1.1274  -27.1568  -43.4950 C.3       13 UNK        -0.1800 
     77 C           0.3245  -28.3604  -45.5583 C.2       13 UNK         0.5000 
     78 O           0.6403  -29.5469  -45.6587 O.2       13 UNK        -0.5000 
     79 N           0.3531  -27.4927  -46.5776 N.am      14 UNK        -0.5000 
     80 CA          0.9545  -27.7699  -47.8853 C.3       14 UNK         0.1400 
     81 CB          2.3235  -27.0672  -47.9434 C.3       14 UNK        -0.1800 
     82 C           0.0644  -27.3403  -49.0657 C.2       14 UNK         0.5000 
     83 O           0.5121  -27.4297  -50.2097 O.2       14 UNK        -0.5000 
     84 N          -1.1623  -26.8740  -48.7834 N.am      15 UNK        -0.5000 
     85 CA         -2.1457  -26.3520  -49.7427 C.3       15 UNK         0.1400 
     86 CB         -2.6264  -27.4561  -50.7079 C.3       15 UNK        -0.1800 
     87 C          -1.6679  -25.0792  -50.4764 C.2       15 UNK         0.5000 
     88 O          -2.0647  -24.8389  -51.6183 O.2       15 UNK        -0.5000 
     89 N          -0.8466  -24.2624  -49.7958 N.am      16 UNK        -0.5000 
     90 CA         -0.2182  -23.0453  -50.3270 C.3       16 UNK         0.1400 
     91 CB          0.7134  -22.4481  -49.2659 C.3       16 UNK        -0.1800 
     92 C          -1.1975  -21.9667  -50.8295 C.2       16 UNK         0.5000 
     93 O          -0.8038  -21.1424  -51.6535 O.2       16 UNK        -0.5000 
     94 N          -2.4597  -22.0151  -50.3781 N.am      17 UNK        -0.5000 
     95 CA         -3.5599  -21.1790  -50.8641 C.3       17 UNK         0.1400 
     96 CB         -4.8370  -21.4742  -50.0642 C.3       17 UNK        -0.1800 
     97 C          -3.8317  -21.3259  -52.3724 C.2       17 UNK         0.5000 
     98 O          -4.2627  -20.3555  -52.9915 O.2       17 UNK        -0.5000 
     99 N          -3.5488  -22.5063  -52.9442 N.am      18 UNK        -0.5000 
    100 CA        -3.6658  -22.7651  -54.3798 C.3       18 UNK         0.1400 
    101 CB        -3.6089  -24.2794  -54.6311 C.3       18 UNK        -0.1800 
    102 C         -2.5839  -22.0374  -55.2004 C.2       18 UNK         0.5000 
    103 O         -2.8708  -21.5726  -56.3035 O.2       18 UNK        -0.5000 
    104 N         -1.3699  -21.9350  -54.6417 N.am      19 UNK        -0.5000 
    105 CA        -0.2390  -21.2247  -55.2404 C.3       19 UNK         0.1400 
    106 CB         1.0720  -21.7592  -54.6424 C.3       19 UNK        -0.1800 
    107 C         -0.3541  -19.7042  -55.0371 C.2       19 UNK         0.5000 
    108 O         -0.0858  -18.9390  -55.9635 O.2       19 UNK        -0.5000 
    109 N         -0.7740  -19.3002  -53.8313 N.am      20 UNK        -0.5000 
    110 CA        -1.0024  -17.9111  -53.4325 C.3       20 UNK         0.1400 
    111 CB        -1.0772  -17.8617  -51.8982 C.3       20 UNK        -0.1800 
    112 C         -2.2733  -17.2883  -54.0413 C.2       20 UNK         0.5000 
    113 O         -2.4346  -16.0691  -53.9716 O.2       20 UNK        -0.5000 
    114 N         -3.1783  -18.1312  -54.5623 N.am      21 UNK        -0.5000 
    115 CA        -4.5242  -17.8068  -55.0532 C.3       21 UNK         0.1400 
    116 CB        -4.4402  -17.0023  -56.3663 C.3       21 UNK        -0.1800 
    117 C         -5.3948  -17.1192  -53.9766 C.2       21 UNK         0.5000 
    118 O         -6.2002  -16.2429  -54.2960 O.2       21 UNK        -0.5000 
    119 N         -5.1718  -17.5078  -52.7128 N.am      22 UNK        -0.5000 
    120 CA        -5.7106  -16.8916  -51.4881 C.3       22 UNK         0.1400 
    121 C         -5.2894  -15.4032  -51.2601 C.2       22 UNK         0.5000 
    122 N         -4.2803  -14.8742  -51.9446 N.am      22 UNK        -0.7600 
    123 O         -5.8660  -14.7148  -50.4229 O.2       22 UNK        -0.5000 
    124 C124       -7.2416  -17.1237  -51.3363 C.3       23 UNK        -0.0398 
    125 S125       -7.6324  -18.8779  -51.0055 S.3       23 UNK        -0.2404 
    126 C126       -8.2850  -18.8186  -49.3022 C.3       23 UNK        -0.0205 
    127 H127        0.0852  -13.3459  -52.0869 H         1 UNK         0.0600 
    128 H128        0.2505  -15.0994  -52.1907 H         1 UNK         0.0600 
    129 H129       -1.3450  -14.3741  -51.9727 H         1 UNK         0.0600 
    130 H130       -2.0983  -14.3167  -49.8583 H         1 UNK         0.3000 
    131 H131       -0.4757  -15.0229  -47.5867 H         1 UNK         0.0600 
    132 H132       -3.3293  -13.9145  -47.7170 H         1 UNK         0.0800 
    133 H133       -2.5705  -14.5639  -46.2857 H         1 UNK         0.0800 
    134 H134       -5.2797  -15.4720  -46.9973 H         1 UNK         0.0800 
    135 H135       -4.3845  -16.2619  -45.7227 H         1 UNK         0.0800 
    136 H136       -6.5886  -16.7727  -48.6215 H         1 UNK         0.1150 
    137 H137       -7.5968  -20.8046  -47.5582 H         1 UNK         0.1150 
    138 H138       -4.5941  -18.6843  -45.3615 H         1 UNK         0.1150 
    139 H139       -6.3736  -20.7972  -44.4644 H         1 UNK         0.0800 
    140 H140       -6.4725  -21.9317  -45.7875 H         1 UNK         0.0800 
    141 H141       -4.6165  -22.5107  -47.2882 H         1 UNK         0.0800 
    142 H142       -3.3116  -21.3546  -47.3313 H         1 UNK         0.0800 
    143 H143       -2.4585  -23.5812  -47.7622 H         1 UNK         0.0600 
    144 H144       -1.4488  -22.0684  -45.5907 H         1 UNK         0.3000 
    145 H145        1.0795  -24.0831  -44.5075 H         1 UNK         0.0600 
    146 H146        1.9076  -21.9958  -46.5821 H         1 UNK         0.0600 
    147 H147        2.9170  -22.6380  -45.2926 H         1 UNK         0.0600 
    148 H148        2.3836  -23.6897  -46.5928 H         1 UNK         0.0600 
    149 H149        1.0094  -21.2626  -44.3879 H         1 UNK         0.3000 
    150 H150       -1.5038  -21.0203  -41.8252 H         1 UNK         0.0600 
    151 H151        0.4264  -19.8694  -40.7637 H         1 UNK         0.0600 
    152 H152        1.5368  -20.6214  -41.9070 H         1 UNK         0.0600 
    153 H153        0.6597  -21.6110  -40.7445 H         1 UNK         0.0600 
    154 H154        0.1935  -19.5220  -43.7966 H         1 UNK         0.3000 
    155 H155       -2.5462  -17.8347  -45.0829 H         1 UNK         0.0600 
    156 H156       -2.3968  -16.2814  -43.1780 H         1 UNK         0.0600 
    157 H157       -1.4160  -15.6619  -44.4987 H         1 UNK         0.0600 
    158 H158       -0.6466  -16.4471  -43.1231 H         1 UNK         0.0600 
    159 H159        0.2689  -17.3489  -45.2951 H         1 UNK         0.3000 
    160 H160        1.0480  -20.0313  -47.4490 H         1 UNK         0.0600 
    161 H161        0.5384  -17.1572  -48.3772 H         1 UNK         0.0600 
    162 H162       -0.2051  -18.5920  -49.0712 H         1 UNK         0.0600 
    163 H163        1.5319  -18.3624  -49.1982 H         1 UNK         0.0600 
    164 H164        2.5171  -17.6905  -46.9616 H         1 UNK         0.3000 
    165 H165        3.5522  -18.1305  -43.6417 H         1 UNK         0.0600 
    166 H166        5.2242  -18.7612  -46.1331 H         1 UNK         0.0600 
    167 H167        5.8490  -18.3116  -44.5454 H         1 UNK         0.0600 
    168 H168        5.0070  -19.8374  -44.7580 H         1 UNK         0.0600 
    169 H169        4.6331  -16.3857  -45.5059 H         1 UNK         0.3000 
    170 H170        4.1226  -14.1246  -45.1530 H         1 UNK         0.0600 
    171 H171        3.6268  -14.9389  -47.4660 H         1 UNK         0.0600 
    172 H172        1.9384  -14.4891  -47.2722 H         1 UNK         0.0600 
    173 H173        3.1872  -13.2470  -47.3048 H         1 UNK         0.0600 
    174 H174        1.4699  -12.9958  -45.3862 H         1 UNK         0.3000 
    175 H175        0.2211  -12.5090  -43.1542 H         1 UNK         0.0600 
    176 H176        0.5587  -10.8641  -41.3070 H         1 UNK         0.0600 
    177 H177        1.2776  -12.4193  -40.9227 H         1 UNK         0.0600 
    178 H178        2.3049  -11.0810  -41.4162 H         1 UNK         0.0600 
    179 H179        0.2538  -10.7268  -44.4542 H         1 UNK         0.3000 
    180 H180        1.3480   -8.0460  -44.6595 H         1 UNK         0.0600 
    181 H181        2.7376   -7.5125  -46.6843 H         1 UNK         0.0600 
    182 H182        3.7111   -7.8493  -45.2632 H         1 UNK         0.0600 
    183 H183        3.5552   -9.0663  -46.5199 H         1 UNK         0.0600 
    184 H184       -0.1484   -8.7473  -46.1066 H         1 UNK         0.3000 
    185 H185       -1.3435  -10.1217  -47.3218 H         1 UNK         0.0600 
    186 H186       -1.4459   -9.7572  -49.7673 H         1 UNK         0.0600 
    187 H187       -0.3375   -8.5991  -49.0509 H         1 UNK         0.0600 
    188 H188        0.2962   -9.9977  -49.9098 H         1 UNK         0.0600 
    189 H189       -0.9845  -12.0723  -49.2015 H         1 UNK         0.3000 
    190 H190       -2.5727  -24.1497  -44.2710 H         1 UNK         0.3000 
    191 H191       -4.4532  -26.3954  -44.5128 H         1 UNK         0.0600 
    192 H192       -4.0420  -26.5990  -42.0676 H         1 UNK         0.0600 
    193 H193       -4.4744  -24.9507  -42.4968 H         1 UNK         0.0600 
    194 H194       -2.7950  -25.3596  -42.1524 H         1 UNK         0.0600 
    195 H195       -0.9464  -25.8735  -44.1190 H         1 UNK         0.3000 
    196 H196       -0.3899  -28.6590  -43.5639 H         1 UNK         0.0600 
    197 H197        1.9337  -27.8791  -43.3606 H         1 UNK         0.0600 
    198 H198        0.8665  -26.7753  -42.5075 H         1 UNK         0.0600 
    199 H199        1.5278  -26.3305  -44.0819 H         1 UNK         0.0600 
    200 H200        0.0856  -26.5237  -46.4198 H         1 UNK         0.3000 
    201 H201        1.1160  -28.8423  -48.0107 H         1 UNK         0.0600 
    202 H202        2.9730  -27.4019  -47.1344 H         1 UNK         0.0600 
    203 H203        2.2193  -25.9844  -47.8629 H         1 UNK         0.0600 
    204 H204        2.8402  -27.2802  -48.8800 H         1 UNK         0.0600 
    205 H205       -1.4364  -26.8416  -47.8117 H         1 UNK         0.3000 
    206 H206       -3.0120  -26.0459  -49.1588 H         1 UNK         0.0600 
    207 H207       -2.9596  -28.3389  -50.1624 H         1 UNK         0.0600 
    208 H208       -3.4692  -27.1103  -51.3077 H         1 UNK         0.0600 
    209 H209       -1.8419  -27.7639  -51.3995 H         1 UNK         0.0600 
    210 H210       -0.5624  -24.5443  -48.8652 H         1 UNK         0.3000 
    211 H211        0.3905  -23.3469  -51.1818 H         1 UNK         0.0600 
    212 H212        1.2814  -21.6099  -49.6719 H         1 UNK         0.0600 
    213 H213        1.4326  -23.1853  -48.9090 H         1 UNK         0.0600 
    214 H214        0.1498  -22.0743  -48.4117 H         1 UNK         0.0600 
    215 H215       -2.6995  -22.7487  -49.7321 H         1 UNK         0.3000 
    216 H216       -3.2914  -20.1365  -50.6878 H         1 UNK         0.0600 
    217 H217       -5.7189  -21.0675  -50.5593 H         1 UNK         0.0600 
    218 H218       -4.7961  -21.0053  -49.0834 H         1 UNK         0.0600 
    219 H219       -5.0036  -22.5439  -49.9352 H         1 UNK         0.0600 
    220 H220       -3.1709  -23.2580  -52.3770 H         1 UNK         0.3000 
    221 H221       -4.6399  -22.4021  -54.7148 H         1 UNK         0.0600 
    222 H222       -2.6527  -24.7038  -54.3227 H         1 UNK         0.0600 
    223 H223       -4.3968  -24.7997  -54.0863 H         1 UNK         0.0600 
    224 H224       -3.7416  -24.5043  -55.6900 H         1 UNK         0.0600 
    225 H225       -1.2330  -22.3050  -53.7121 H         1 UNK         0.3000 
    226 H226       -0.2253  -21.4219  -56.3146 H         1 UNK         0.0600 
    227 H227        1.9342  -21.2625  -55.0891 H         1 UNK         0.0600 
    228 H228        1.1233  -21.5983  -53.5650 H         1 UNK         0.0600 
    229 H229        1.1815  -22.8280  -54.8267 H         1 UNK         0.0600 
    230 H230       -0.9060  -20.0011  -53.1054 H         1 UNK         0.3000 
    231 H231       -0.1535  -17.3072  -53.7591 H         1 UNK         0.0600 
    232 H232       -1.3221  -16.8650  -51.5348 H         1 UNK         0.0600 
    233 H233       -0.1240  -18.1479  -51.4544 H         1 UNK         0.0600 
    234 H234       -1.8420  -18.5343  -51.5127 H         1 UNK         0.0600 
    235 H235       -2.9755  -19.1196  -54.5003 H         1 UNK         0.3000 
    236 H236       -5.0082  -18.7589  -55.2755 H         1 UNK         0.0600 
    237 H237       -4.0162  -16.0104  -56.2068 H         1 UNK         0.0600 
    238 H238       -3.8231  -17.5163  -57.1033 H         1 UNK         0.0600 
    239 H239       -5.4284  -16.8690  -56.8078 H         1 UNK         0.0600 
    240 H240       -4.5523  -18.2976  -52.5794 H         1 UNK         0.3000 
    241 H241       -5.2191  -17.4187  -50.6697 H         1 UNK         0.0600 
    242 H242       -4.0545  -13.9044  -51.7993 H         1 UNK         0.3800 
    243 H243       -3.7859  -15.4004  -52.6572 H         1 UNK         0.3800 
    244 H244       -7.7694  -16.8160  -52.2391 H         1 UNK         0.0800 
    245 H245       -7.6686  -16.5132  -50.5415 H         1 UNK         0.0800 
    246 H246       -8.9345  -17.9508  -49.1803 H         1 UNK         0.0800 
    247 H247       -8.9285  -19.6882  -49.1611 H         1 UNK         0.0800 
@<TRIPOS>BOND
     1    1    2 1    
     2    1  127 1    
     3    1  128 1    
     4    1  129 1    
     5    2    3 2    
     6    2    4 am   BACKBONE|DICT|INTERRES
     7    4    5 1    
     8    4  130 1    
     9    5    6 1    
    10    5   65 1    
    11    5  131 1    
    12    6    7 1    
    13    6  132 1    
    14    6  133 1    
    15    7    8 1    
    16    8    9 1    
    17    8  134 1    
    18    8  135 1    
    19    9   10 ar   
    20    9   14 ar   
    21   10   11 ar   
    22   10  136 1    
    23   11   12 ar   
    24   11  126 1    
    25   12   13 ar   
    26   12  137 1    
    27   13   14 ar   
    28   13   15 1    
    29   14  138 1    
    30   15   16 1    
    31   15  139 1    
    32   15  140 1    
    33   16   17 1    
    34   17   18 1    
    35   17  141 1    
    36   17  142 1    
    37   18   19 1    
    38   18   67 1    
    39   18  143 1    
    40   19   20 am   BACKBONE|DICT|INTERRES
    41   19  144 1    
    42   20   21 2    
    43   20   22 1    
    44   22   23 1    
    45   22   24 1    
    46   22  145 1    
    47   23  146 1    
    48   23  147 1    
    49   23  148 1    
    50   24   25 am   BACKBONE|DICT|INTERRES
    51   24  149 1    
    52   25   26 2    
    53   25   27 1    
    54   27   28 1    
    55   27   29 1    
    56   27  150 1    
    57   28  151 1    
    58   28  152 1    
    59   28  153 1    
    60   29   30 am   BACKBONE|DICT|INTERRES
    61   29  154 1    
    62   30   31 2    
    63   30   32 1    
    64   32   33 1    
    65   32   34 1    
    66   32  155 1    
    67   33  156 1    
    68   33  157 1    
    69   33  158 1    
    70   34   35 am   BACKBONE|DICT|INTERRES
    71   34  159 1    
    72   35   36 2    
    73   35   37 1    
    74   37   38 1    
    75   37   39 1    
    76   37  160 1    
    77   38  161 1    
    78   38  162 1    
    79   38  163 1    
    80   39   40 am   BACKBONE|DICT|INTERRES
    81   39  164 1    
    82   40   41 2    
    83   40   42 1    
    84   42   43 1    
    85   42   44 1    
    86   42  165 1    
    87   43  166 1    
    88   43  167 1    
    89   43  168 1    
    90   44   45 am   BACKBONE|DICT|INTERRES
    91   44  169 1    
    92   45   46 2    
    93   45   47 1    
    94   47   48 1    
    95   47   49 1    
    96   47  170 1    
    97   48  171 1    
    98   48  172 1    
    99   48  173 1    
   100   49   50 am   BACKBONE|DICT|INTERRES
   101   49  174 1    
   102   50   51 2    
   103   50   52 1    
   104   52   53 1    
   105   52   54 1    
   106   52  175 1    
   107   53  176 1    
   108   53  177 1    
   109   53  178 1    
   110   54   55 am   BACKBONE|DICT|INTERRES
   111   54  179 1    
   112   55   56 2    
   113   55   57 1    
   114   57   58 1    
   115   57   59 1    
   116   57  180 1    
   117   58  181 1    
   118   58  182 1    
   119   58  183 1    
   120   59   60 am   BACKBONE|DICT|INTERRES
   121   59  184 1    
   122   60   61 2    
   123   60   62 1    
   124   62   63 1    
   125   62   64 1    
   126   62  185 1    
   127   63  186 1    
   128   63  187 1    
   129   63  188 1    
   130   64   65 am   BACKBONE|DICT|INTERRES
   131   64  189 1    
   132   65   66 2    
   133   67   68 2    
   134   67   69 am   BACKBONE|DICT|INTERRES
   135   69   70 1    
   136   69  190 1    
   137   70   71 1    
   138   70   72 1    
   139   70  191 1    
   140   71  192 1    
   141   71  193 1    
   142   71  194 1    
   143   72   73 2    
   144   72   74 am   BACKBONE|DICT|INTERRES
   145   74   75 1    
   146   74  195 1    
   147   75   76 1    
   148   75   77 1    
   149   75  196 1    
   150   76  197 1    
   151   76  198 1    
   152   76  199 1    
   153   77   78 2    
   154   77   79 am   BACKBONE|DICT|INTERRES
   155   79   80 1    
   156   79  200 1    
   157   80   81 1    
   158   80   82 1    
   159   80  201 1    
   160   81  202 1    
   161   81  203 1    
   162   81  204 1    
   163   82   83 2    
   164   82   84 am   BACKBONE|DICT|INTERRES
   165   84   85 1    
   166   84  205 1    
   167   85   86 1    
   168   85   87 1    
   169   85  206 1    
   170   86  207 1    
   171   86  208 1    
   172   86  209 1    
   173   87   88 2    
   174   87   89 am   BACKBONE|DICT|INTERRES
   175   89   90 1    
   176   89  210 1    
   177   90   91 1    
   178   90   92 1    
   179   90  211 1    
   180   91  212 1    
   181   91  213 1    
   182   91  214 1    
   183   92   93 2    
   184   92   94 am   BACKBONE|DICT|INTERRES
   185   94   95 1    
   186   94  215 1    
   187   95   96 1    
   188   95   97 1    
   189   95  216 1    
   190   96  217 1    
   191   96  218 1    
   192   96  219 1    
   193   97   98 2    
   194   97   99 am   BACKBONE|DICT|INTERRES
   195   99  100 1    
   196   99  220 1    
   197  100  101 1    
   198  100  102 1    
   199  100  221 1    
   200  101  222 1    
   201  101  223 1    
   202  101  224 1    
   203  102  103 2    
   204  102  104 am   BACKBONE|DICT|INTERRES
   205  104  105 1    
   206  104  225 1    
   207  105  106 1    
   208  105  107 1    
   209  105  226 1    
   210  106  227 1    
   211  106  228 1    
   212  106  229 1    
   213  107  108 2    
   214  107  109 am   BACKBONE|DICT|INTERRES
   215  109  110 1    
   216  109  230 1    
   217  110  111 1    
   218  110  112 1    
   219  110  231 1    
   220  111  232 1    
   221  111  233 1    
   222  111  234 1    
   223  112  113 2    
   224  112  114 am   BACKBONE|DICT|INTERRES
   225  114  115 1    
   226  114  235 1    
   227  115  116 1    
   228  115  117 1    
   229  115  236 1    
   230  116  237 1    
   231  116  238 1    
   232  116  239 1    
   233  117  118 2    
   234  117  119 am   BACKBONE|DICT|INTERRES
   235  119  120 1    
   236  119  240 1    
   237  120  121 1    
   238  120  124 1    
   239  120  241 1    
   240  121  122 am   BACKBONE|DICT|INTERRES
   241  121  123 2    
   242  122  242 1    
   243  122  243 1    
   244  124  125 1    
   245  124  244 1    
   246  124  245 1    
   247  125  126 1    
   248  126  246 1    
   249  126  247 1    
@<TRIPOS>SUBSTRUCTURE
     1 UNK         1 GROUP             0       ****    0 ROOT    
