@<TRIPOS>MOLECULE
3R540
247   249    1
SMALL
USER_CHARGES


@<TRIPOS>ATOM
      1 CA         -1.2660  -14.2832  -49.2679 C.3       0 UNK        -0.1800 
      2 C          -0.2125  -13.2389  -48.9226 C.2       0 UNK         0.5000 
      3 O          -0.4339  -12.0482  -49.1430 O.2       0 UNK        -0.5000 
      4 N           0.9345  -13.6811  -48.3928 N.am      1 UNK        -0.5000 
      5 CA          2.0555  -12.8401  -47.9659 C.3       1 UNK         0.1400 
      6 C6          3.3809  -13.6394  -47.8268 C.3       23 UNK        -0.0398 
      7 S7          3.8030  -14.6221  -49.3097 S.3       23 UNK        -0.2404 
      8 C8          3.4740  -16.3280  -48.7322 C.3       23 UNK        -0.0205 
      9 C9          2.5819  -17.1593  -49.6534 C.ar      23 UNK        -0.0193 
     10 C10         1.5700  -16.5820  -50.4323 C.ar      23 UNK        -0.1150 
     11 C11         0.7469  -17.3774  -51.2326 C.ar      23 UNK        -0.0193 
     12 C12         0.9333  -18.7603  -51.2437 C.ar      23 UNK        -0.1150 
     13 C13         1.9177  -19.3621  -50.4602 C.ar      23 UNK        -0.0193 
     14 C14         2.7506  -18.5485  -49.6806 C.ar      23 UNK        -0.1150 
     15 C15         2.0395  -20.8868  -50.4916 C.3       23 UNK        -0.0205 
     16 S16         2.6972  -21.6560  -48.9725 S.3       23 UNK        -0.2404 
     17 C17         1.5462  -21.0444  -47.6969 C.3       23 UNK        -0.0398 
     18 CA          0.5648  -22.1254  -47.1846 C.3       11 UNK         0.1400 
     19 N           0.2320  -21.9154  -45.7740 N.am      11 UNK        -0.5000 
     20 C          -0.4468  -22.7730  -45.0020 C.2       10 UNK         0.5000 
     21 O          -0.8355  -23.8754  -45.3863 O.2       10 UNK        -0.5000 
     22 CA         -0.7927  -22.2944  -43.5788 C.3       10 UNK         0.1400 
     23 CB          0.3878  -22.5072  -42.6197 C.3       10 UNK        -0.1800 
     24 N          -1.2059  -20.8896  -43.5502 N.am      10 UNK        -0.5000 
     25 C          -2.3251  -20.4266  -44.1256 C.2       9 UNK         0.5000 
     26 O          -3.1494  -21.1464  -44.6883 O.2       9 UNK        -0.5000 
     27 CA         -2.5362  -18.9021  -44.1177 C.3       9 UNK         0.1400 
     28 CB         -3.1054  -18.4383  -42.7688 C.3       9 UNK        -0.1800 
     29 N          -1.3127  -18.1587  -44.4214 N.am      9 UNK        -0.5000 
     30 C          -0.6402  -18.2392  -45.5787 C.2       8 UNK         0.5000 
     31 O          -1.0057  -18.9185  -46.5352 O.2       8 UNK        -0.5000 
     32 CA          0.6946  -17.4807  -45.6682 C.3       8 UNK         0.1400 
     33 CB          0.4517  -15.9997  -45.9776 C.3       8 UNK        -0.1800 
     34 N           1.4976  -17.6057  -44.4529 N.am      8 UNK        -0.5000 
     35 C           1.9583  -18.7628  -43.9576 C.2       7 UNK         0.5000 
     36 O           1.7888  -19.8542  -44.4982 O.2       7 UNK        -0.5000 
     37 CA          2.6799  -18.6955  -42.6035 C.3       7 UNK         0.1400 
     38 CB          4.1483  -18.2815  -42.7817 C.3       7 UNK        -0.1800 
     39 N           2.0071  -17.7716  -41.6918 N.am      7 UNK        -0.5000 
     40 C           0.8404  -18.0317  -41.0857 C.2       6 UNK         0.5000 
     41 O           0.2391  -19.1017  -41.1922 O.2       6 UNK        -0.5000 
     42 CA          0.2287  -16.8922  -40.2483 C.3       6 UNK         0.1400 
     43 CB          0.8312  -16.8742  -38.8356 C.3       6 UNK        -0.1800 
     44 N           0.4018  -15.5753  -40.8669 N.am      6 UNK        -0.5000 
     45 C          -0.2009  -15.1936  -42.0014 C.2       5 UNK         0.5000 
     46 O          -0.9836  -15.9067  -42.6275 O.2       5 UNK        -0.5000 
     47 CA          0.1551  -13.8001  -42.5543 C.3       5 UNK         0.1400 
     48 CB         -0.7618  -12.7281  -41.9477 C.3       5 UNK        -0.1800 
     49 N           1.5526  -13.3969  -42.3733 N.am      5 UNK        -0.5000 
     50 C           2.6259  -14.0899  -42.7806 C.2       4 UNK         0.5000 
     51 O           2.5721  -15.2345  -43.2324 O.2       4 UNK        -0.5000 
     52 CA          3.9680  -13.3473  -42.7079 C.3       4 UNK         0.1400 
     53 CB          5.1383  -14.1478  -43.3097 C.3       4 UNK        -0.1800 
     54 N           3.8310  -12.0768  -43.4137 N.am      4 UNK        -0.5000 
     55 C           4.3909  -10.9176  -43.0459 C.2       3 UNK         0.5000 
     56 O           5.1056  -10.7959  -42.0501 O.2       3 UNK        -0.5000 
     57 CA          4.1236   -9.6806  -43.9312 C.3       3 UNK         0.1400 
     58 CB          5.3686   -9.3431  -44.7666 C.3       3 UNK        -0.1800 
     59 N           2.9825   -9.8316  -44.8365 N.am      3 UNK        -0.5000 
     60 C           1.6965   -9.8630  -44.4618 C.2       2 UNK         0.5000 
     61 O           1.3210   -9.7112  -43.2991 O.2       2 UNK        -0.5000 
     62 CA          0.6563  -10.1445  -45.5668 C.3       2 UNK         0.1400 
     63 CB          0.0492   -8.8298  -46.0789 C.3       2 UNK        -0.1800 
     64 N           1.1632  -10.9141  -46.7117 N.am      2 UNK        -0.5000 
     65 C           1.6908  -12.1434  -46.6393 C.2       1 UNK         0.5000 
     66 O           1.8742  -12.7351  -45.5762 O.2       1 UNK        -0.5000 
     67 C          -0.7009  -22.2171  -48.0650 C.2       11 UNK         0.5000 
     68 O          -0.8037  -23.1192  -48.8943 O.2       11 UNK        -0.5000 
     69 N          -1.6658  -21.3161  -47.8351 N.am      12 UNK        -0.5000 
     70 CA         -2.9695  -21.2955  -48.4977 C.3       12 UNK         0.1400 
     71 CB         -3.6966  -19.9892  -48.1507 C.3       12 UNK        -0.1800 
     72 C          -3.8447  -22.5161  -48.1548 C.2       12 UNK         0.5000 
     73 O          -4.5566  -23.0151  -49.0283 O.2       12 UNK        -0.5000 
     74 N          -3.7576  -22.9894  -46.9033 N.am      13 UNK        -0.5000 
     75 CA         -4.3991  -24.2175  -46.4359 C.3       13 UNK         0.1400 
     76 CB         -4.3367  -24.2944  -44.9034 C.3       13 UNK        -0.1800 
     77 C          -3.7863  -25.4753  -47.0789 C.2       13 UNK         0.5000 
     78 O          -4.5265  -26.3798  -47.4636 O.2       13 UNK        -0.5000 
     79 N          -2.4535  -25.4993  -47.2207 N.am      14 UNK        -0.5000 
     80 CA         -1.7169  -26.5541  -47.9205 C.3       14 UNK         0.1400 
     81 CB         -0.2125  -26.3957  -47.6542 C.3       14 UNK        -0.1800 
     82 C          -2.0086  -26.5801  -49.4339 C.2       14 UNK         0.5000 
     83 O          -2.0641  -27.6602  -50.0244 O.2       14 UNK        -0.5000 
     84 N          -2.2247  -25.3996  -50.0298 N.am      15 UNK        -0.5000 
     85 CA         -2.5949  -25.1927  -51.4292 C.3       15 UNK         0.1400 
     86 CB         -2.2627  -23.7460  -51.8241 C.3       15 UNK        -0.1800 
     87 C          -4.0697  -25.5588  -51.7025 C.2       15 UNK         0.5000 
     88 O          -4.8940  -24.6855  -51.9949 O.2       15 UNK        -0.5000 
     89 N          -4.3634  -26.8611  -51.5827 N.am      16 UNK        -0.5000 
     90 CA         -5.6335  -27.5432  -51.8630 C.3       16 UNK         0.1400 
     91 CB         -5.9807  -27.4231  -53.3619 C.3       16 UNK        -0.1800 
     92 C          -6.8104  -27.1081  -50.9638 C.2       16 UNK         0.5000 
     93 O          -7.9628  -27.3739  -51.3083 O.2       16 UNK        -0.5000 
     94 N          -6.5075  -26.4308  -49.8451 N.am      17 UNK        -0.5000 
     95 CA         -7.4395  -25.7743  -48.9194 C.3       17 UNK         0.1400 
     96 CB         -8.2802  -26.8168  -48.1543 C.3       17 UNK        -0.1800 
     97 C          -8.2985  -24.6785  -49.5878 C.2       17 UNK         0.5000 
     98 O          -9.3816  -24.3606  -49.0936 O.2       17 UNK        -0.5000 
     99 N          -7.8026  -24.1305  -50.7039 N.am      18 UNK        -0.5000 
    100 CA        -8.5177  -23.2019  -51.5763 C.3       18 UNK         0.1400 
    101 CB        -8.9430  -23.9663  -52.8428 C.3       18 UNK        -0.1800 
    102 C         -7.6684  -21.9726  -51.9375 C.2       18 UNK         0.5000 
    103 O         -8.1338  -21.1424  -52.7194 O.2       18 UNK        -0.5000 
    104 N         -6.4431  -21.8817  -51.3935 N.am      19 UNK        -0.5000 
    105 CA        -5.4173  -20.8870  -51.7205 C.3       19 UNK         0.1400 
    106 CB        -5.8514  -19.4719  -51.2841 C.3       19 UNK        -0.1800 
    107 C         -5.0021  -20.9581  -53.2040 C.2       19 UNK         0.5000 
    108 O         -4.8236  -19.9238  -53.8500 O.2       19 UNK        -0.5000 
    109 N         -4.8532  -22.1864  -53.7239 N.am      20 UNK        -0.5000 
    110 CA        -4.5715  -22.4780  -55.1352 C.3       20 UNK         0.1400 
    111 CB        -4.6161  -23.9992  -55.3465 C.3       20 UNK        -0.1800 
    112 C         -3.2409  -21.8942  -55.6552 C.2       20 UNK         0.5000 
    113 O         -3.1091  -21.6498  -56.8545 O.2       20 UNK        -0.5000 
    114 N         -2.2925  -21.6642  -54.7391 N.am      21 UNK        -0.5000 
    115 CA        -1.0104  -21.0123  -54.9928 C.3       21 UNK         0.1400 
    116 CB        -0.0266  -21.4381  -53.8913 C.3       21 UNK        -0.1800 
    117 C         -1.1175  -19.4749  -55.0740 C.2       21 UNK         0.5000 
    118 O         -0.2215  -18.8476  -55.6402 O.2       21 UNK        -0.5000 
    119 N         -2.1888  -18.8959  -54.5147 N.am      22 UNK        -0.5000 
    120 CA        -2.4785  -17.4529  -54.5455 C.3       22 UNK         0.1400 
    121 C         -3.5059  -17.0906  -55.6506 C.2       22 UNK         0.5000 
    122 N         -4.5141  -17.9187  -55.8958 N.am      22 UNK        -0.7600 
    123 O         -3.3844  -16.0526  -56.2952 O.2       22 UNK        -0.5000 
    124 C124       -2.9615  -16.9047  -53.1728 C.3       23 UNK        -0.0398 
    125 S125       -1.9781  -17.4358  -51.7275 S.3       23 UNK        -0.2404 
    126 C126       -0.3298  -16.7569  -52.1095 C.3       23 UNK        -0.0205 
    127 H127       -2.1279  -14.1777  -48.6094 H         1 UNK         0.0600 
    128 H128       -1.6040  -14.1513  -50.2957 H         1 UNK         0.0600 
    129 H129       -0.8838  -15.2993  -49.1688 H         1 UNK         0.0600 
    130 H130        1.0567  -14.6690  -48.2344 H         1 UNK         0.3000 
    131 H131        2.2151  -12.0726  -48.7264 H         1 UNK         0.0600 
    132 H132        4.2055  -12.9467  -47.6507 H         1 UNK         0.0800 
    133 H133        3.3656  -14.2922  -46.9530 H         1 UNK         0.0800 
    134 H134        4.4384  -16.8228  -48.6069 H         1 UNK         0.0800 
    135 H135        3.0093  -16.3231  -47.7470 H         1 UNK         0.0800 
    136 H136        1.4226  -15.5128  -50.4285 H         1 UNK         0.1150 
    137 H137        0.2911  -19.3690  -51.8613 H         1 UNK         0.1150 
    138 H138        3.5253  -18.9968  -49.0753 H         1 UNK         0.1150 
    139 H139        1.0636  -21.3324  -50.6930 H         1 UNK         0.0800 
    140 H140        2.6825  -21.1641  -51.3277 H         1 UNK         0.0800 
    141 H141        1.0183  -20.1497  -48.0297 H         1 UNK         0.0800 
    142 H142        2.1875  -20.7086  -46.8826 H         1 UNK         0.0800 
    143 H143        1.0640  -23.0956  -47.2342 H         1 UNK         0.0600 
    144 H144        0.5652  -21.0519  -45.3542 H         1 UNK         0.3000 
    145 H145       -1.6299  -22.8971  -43.2207 H         1 UNK         0.0600 
    146 H146        0.1265  -22.2138  -41.6027 H         1 UNK         0.0600 
    147 H147        0.6810  -23.5573  -42.5912 H         1 UNK         0.0600 
    148 H148        1.2635  -21.9309  -42.9177 H         1 UNK         0.0600 
    149 H149       -0.5813  -20.2353  -43.0963 H         1 UNK         0.3000 
    150 H150       -3.2680  -18.6659  -44.8927 H         1 UNK         0.0600 
    151 H151       -4.0175  -18.9826  -42.5208 H         1 UNK         0.0600 
    152 H152       -3.3566  -17.3779  -42.7920 H         1 UNK         0.0600 
    153 H153       -2.3960  -18.5958  -41.9559 H         1 UNK         0.0600 
    154 H154       -0.9814  -17.5189  -43.7050 H         1 UNK         0.3000 
    155 H155        1.2705  -17.9118  -46.4898 H         1 UNK         0.0600 
    156 H156       -0.0666  -15.8896  -46.9292 H         1 UNK         0.0600 
    157 H157        1.3891  -15.4484  -46.0366 H         1 UNK         0.0600 
    158 H158       -0.1655  -15.5245  -45.2167 H         1 UNK         0.0600 
    159 H159        1.7263  -16.7454  -43.9605 H         1 UNK         0.3000 
    160 H160        2.6617  -19.6941  -42.1615 H         1 UNK         0.0600 
    161 H161        4.6663  -18.2401  -41.8236 H         1 UNK         0.0600 
    162 H162        4.2414  -17.3050  -43.2568 H         1 UNK         0.0600 
    163 H163        4.6791  -18.9995  -43.4081 H         1 UNK         0.0600 
    164 H164        2.3912  -16.8387  -41.6305 H         1 UNK         0.3000 
    165 H165       -0.8423  -17.0867  -40.1584 H         1 UNK         0.0600 
    166 H166        0.3474  -16.1236  -38.2103 H         1 UNK         0.0600 
    167 H167        0.7002  -17.8390  -38.3437 H         1 UNK         0.0600 
    168 H168        1.9000  -16.6577  -38.8549 H         1 UNK         0.0600 
    169 H169        1.0370  -14.9326  -40.4172 H         1 UNK         0.3000 
    170 H170       -0.0273  -13.8220  -43.6298 H         1 UNK         0.0600 
    171 H171       -1.8123  -12.9861  -42.0885 H         1 UNK         0.0600 
    172 H172       -0.5916  -12.6126  -40.8766 H         1 UNK         0.0600 
    173 H173       -0.6011  -11.7587  -42.4202 H         1 UNK         0.0600 
    174 H174        1.7007  -12.4566  -42.0359 H         1 UNK         0.3000 
    175 H175        4.1733  -13.1715  -41.6501 H         1 UNK         0.0600 
    176 H176        6.0737  -13.5928  -43.2383 H         1 UNK         0.0600 
    177 H177        5.2800  -15.0905  -42.7805 H         1 UNK         0.0600 
    178 H178        4.9657  -14.3801  -44.3614 H         1 UNK         0.0600 
    179 H179        3.2123  -12.1000  -44.2195 H         1 UNK         0.3000 
    180 H180        3.9209   -8.8403  -43.2639 H         1 UNK         0.0600 
    181 H181        5.6150  -10.1457  -45.4630 H         1 UNK         0.0600 
    182 H182        6.2383   -9.1848  -44.1275 H         1 UNK         0.0600 
    183 H183        5.2217   -8.4297  -45.3434 H         1 UNK         0.0600 
    184 H184        3.1950   -9.9622  -45.8143 H         1 UNK         0.3000 
    185 H185       -0.1422  -10.7327  -45.1097 H         1 UNK         0.0600 
    186 H186       -0.7612   -9.0174  -46.7836 H         1 UNK         0.0600 
    187 H187       -0.3658   -8.2436  -45.2577 H         1 UNK         0.0600 
    188 H188        0.7949   -8.2115  -46.5801 H         1 UNK         0.0600 
    189 H189        0.9940  -10.5187  -47.6265 H         1 UNK         0.3000 
    190 H190       -1.4817  -20.5585  -47.1802 H         1 UNK         0.3000 
    191 H191       -2.7890  -21.3077  -49.5733 H         1 UNK         0.0600 
    192 H192       -3.8174  -19.8710  -47.0739 H         1 UNK         0.0600 
    193 H193       -4.6914  -19.9634  -48.5936 H         1 UNK         0.0600 
    194 H194       -3.1488  -19.1233  -48.5236 H         1 UNK         0.0600 
    195 H195       -3.2150  -22.4697  -46.2213 H         1 UNK         0.3000 
    196 H196       -5.4508  -24.1700  -46.7203 H         1 UNK         0.0600 
    197 H197       -3.3105  -24.3331  -44.5396 H         1 UNK         0.0600 
    198 H198       -4.8473  -25.1860  -44.5378 H         1 UNK         0.0600 
    199 H199       -4.8211  -23.4317  -44.4459 H         1 UNK         0.0600 
    200 H200       -1.9038  -24.7469  -46.8172 H         1 UNK         0.3000 
    201 H201       -2.0334  -27.5141  -47.5074 H         1 UNK         0.0600 
    202 H202        0.1701  -25.4509  -48.0398 H         1 UNK         0.0600 
    203 H203        0.3541  -27.1972  -48.1297 H         1 UNK         0.0600 
    204 H204        0.0045  -26.4323  -46.5865 H         1 UNK         0.0600 
    205 H205       -2.0882  -24.5598  -49.4770 H         1 UNK         0.3000 
    206 H206       -1.9779  -25.8479  -52.0475 H         1 UNK         0.0600 
    207 H207       -1.2119  -23.5177  -51.6446 H         1 UNK         0.0600 
    208 H208       -2.4497  -23.5960  -52.8849 H         1 UNK         0.0600 
    209 H209       -2.8630  -23.0264  -51.2690 H         1 UNK         0.0600 
    210 H210       -3.6135  -27.4606  -51.2497 H         1 UNK         0.3000 
    211 H211       -5.4633  -28.5984  -51.6452 H         1 UNK         0.0600 
    212 H212       -6.2497  -26.4018  -53.6329 H         1 UNK         0.0600 
    213 H213       -6.8251  -28.0619  -53.6228 H         1 UNK         0.0600 
    214 H214       -5.1420  -27.7267  -53.9883 H         1 UNK         0.0600 
    215 H215       -5.5286  -26.2938  -49.6304 H         1 UNK         0.3000 
    216 H216       -6.8250  -25.2513  -48.1897 H         1 UNK         0.0600 
    217 H217       -7.6423  -27.5638  -47.6818 H         1 UNK         0.0600 
    218 H218       -8.8644  -26.3454  -47.3633 H         1 UNK         0.0600 
    219 H219       -8.9785  -27.3364  -48.8107 H         1 UNK         0.0600 
    220 H220       -6.9026  -24.4552  -51.0396 H         1 UNK         0.3000 
    221 H221       -9.4139  -22.8226  -51.0817 H         1 UNK         0.0600 
    222 H222       -8.0778  -24.3331  -53.3971 H         1 UNK         0.0600 
    223 H223       -9.5669  -24.8248  -52.5933 H         1 UNK         0.0600 
    224 H224       -9.5209  -23.3306  -53.5147 H         1 UNK         0.0600 
    225 H225       -6.1496  -22.6030  -50.7463 H         1 UNK         0.3000 
    226 H226       -4.5349  -21.1559  -51.1422 H         1 UNK         0.0600 
    227 H227       -6.2438  -19.4703  -50.2679 H         1 UNK         0.0600 
    228 H228       -5.0064  -18.7833  -51.3095 H         1 UNK         0.0600 
    229 H229       -6.6243  -19.0638  -51.9361 H         1 UNK         0.0600 
    230 H230       -5.0075  -22.9897  -53.1216 H         1 UNK         0.3000 
    231 H231       -5.3722  -22.0287  -55.7261 H         1 UNK         0.0600 
    232 H232       -5.5839  -24.4084  -55.0564 H         1 UNK         0.0600 
    233 H233       -3.8489  -24.5105  -54.7646 H         1 UNK         0.0600 
    234 H234       -4.4573  -24.2540  -56.3951 H         1 UNK         0.0600 
    235 H235       -2.4981  -21.8978  -53.7804 H         1 UNK         0.3000 
    236 H236       -0.6188  -21.3609  -55.9508 H         1 UNK         0.0600 
    237 H237        0.9246  -20.9116  -53.9816 H         1 UNK         0.0600 
    238 H238       -0.4264  -21.2372  -52.8977 H         1 UNK         0.0600 
    239 H239        0.1875  -22.5054  -53.9505 H         1 UNK         0.0600 
    240 H240       -2.9221  -19.4760  -54.1259 H         1 UNK         0.3000 
    241 H241       -1.5676  -16.9115  -54.8035 H         1 UNK         0.0600 
    242 H242       -4.6610  -18.7330  -55.3057 H         1 UNK         0.3800 
    243 H243       -5.1819  -17.6931  -56.6155 H         1 UNK         0.3800 
    244 H244       -2.9821  -15.8137  -53.1899 H         1 UNK         0.0800 
    245 H245       -3.9891  -17.2208  -52.9842 H         1 UNK         0.0800 
    246 H246       -0.3532  -15.6718  -52.0003 H         1 UNK         0.0800 
    247 H247       -0.0655  -16.9632  -53.1458 H         1 UNK         0.0800 
@<TRIPOS>BOND
     1    1    2 1    
     2    1  127 1    
     3    1  128 1    
     4    1  129 1    
     5    2    3 2    
     6    2    4 am   BACKBONE|DICT|INTERRES
     7    4    5 1    
     8    4  130 1    
     9    5    6 1    
    10    5   65 1    
    11    5  131 1    
    12    6    7 1    
    13    6  132 1    
    14    6  133 1    
    15    7    8 1    
    16    8    9 1    
    17    8  134 1    
    18    8  135 1    
    19    9   10 ar   
    20    9   14 ar   
    21   10   11 ar   
    22   10  136 1    
    23   11   12 ar   
    24   11  126 1    
    25   12   13 ar   
    26   12  137 1    
    27   13   14 ar   
    28   13   15 1    
    29   14  138 1    
    30   15   16 1    
    31   15  139 1    
    32   15  140 1    
    33   16   17 1    
    34   17   18 1    
    35   17  141 1    
    36   17  142 1    
    37   18   19 1    
    38   18   67 1    
    39   18  143 1    
    40   19   20 am   BACKBONE|DICT|INTERRES
    41   19  144 1    
    42   20   21 2    
    43   20   22 1    
    44   22   23 1    
    45   22   24 1    
    46   22  145 1    
    47   23  146 1    
    48   23  147 1    
    49   23  148 1    
    50   24   25 am   BACKBONE|DICT|INTERRES
    51   24  149 1    
    52   25   26 2    
    53   25   27 1    
    54   27   28 1    
    55   27   29 1    
    56   27  150 1    
    57   28  151 1    
    58   28  152 1    
    59   28  153 1    
    60   29   30 am   BACKBONE|DICT|INTERRES
    61   29  154 1    
    62   30   31 2    
    63   30   32 1    
    64   32   33 1    
    65   32   34 1    
    66   32  155 1    
    67   33  156 1    
    68   33  157 1    
    69   33  158 1    
    70   34   35 am   BACKBONE|DICT|INTERRES
    71   34  159 1    
    72   35   36 2    
    73   35   37 1    
    74   37   38 1    
    75   37   39 1    
    76   37  160 1    
    77   38  161 1    
    78   38  162 1    
    79   38  163 1    
    80   39   40 am   BACKBONE|DICT|INTERRES
    81   39  164 1    
    82   40   41 2    
    83   40   42 1    
    84   42   43 1    
    85   42   44 1    
    86   42  165 1    
    87   43  166 1    
    88   43  167 1    
    89   43  168 1    
    90   44   45 am   BACKBONE|DICT|INTERRES
    91   44  169 1    
    92   45   46 2    
    93   45   47 1    
    94   47   48 1    
    95   47   49 1    
    96   47  170 1    
    97   48  171 1    
    98   48  172 1    
    99   48  173 1    
   100   49   50 am   BACKBONE|DICT|INTERRES
   101   49  174 1    
   102   50   51 2    
   103   50   52 1    
   104   52   53 1    
   105   52   54 1    
   106   52  175 1    
   107   53  176 1    
   108   53  177 1    
   109   53  178 1    
   110   54   55 am   BACKBONE|DICT|INTERRES
   111   54  179 1    
   112   55   56 2    
   113   55   57 1    
   114   57   58 1    
   115   57   59 1    
   116   57  180 1    
   117   58  181 1    
   118   58  182 1    
   119   58  183 1    
   120   59   60 am   BACKBONE|DICT|INTERRES
   121   59  184 1    
   122   60   61 2    
   123   60   62 1    
   124   62   63 1    
   125   62   64 1    
   126   62  185 1    
   127   63  186 1    
   128   63  187 1    
   129   63  188 1    
   130   64   65 am   BACKBONE|DICT|INTERRES
   131   64  189 1    
   132   65   66 2    
   133   67   68 2    
   134   67   69 am   BACKBONE|DICT|INTERRES
   135   69   70 1    
   136   69  190 1    
   137   70   71 1    
   138   70   72 1    
   139   70  191 1    
   140   71  192 1    
   141   71  193 1    
   142   71  194 1    
   143   72   73 2    
   144   72   74 am   BACKBONE|DICT|INTERRES
   145   74   75 1    
   146   74  195 1    
   147   75   76 1    
   148   75   77 1    
   149   75  196 1    
   150   76  197 1    
   151   76  198 1    
   152   76  199 1    
   153   77   78 2    
   154   77   79 am   BACKBONE|DICT|INTERRES
   155   79   80 1    
   156   79  200 1    
   157   80   81 1    
   158   80   82 1    
   159   80  201 1    
   160   81  202 1    
   161   81  203 1    
   162   81  204 1    
   163   82   83 2    
   164   82   84 am   BACKBONE|DICT|INTERRES
   165   84   85 1    
   166   84  205 1    
   167   85   86 1    
   168   85   87 1    
   169   85  206 1    
   170   86  207 1    
   171   86  208 1    
   172   86  209 1    
   173   87   88 2    
   174   87   89 am   BACKBONE|DICT|INTERRES
   175   89   90 1    
   176   89  210 1    
   177   90   91 1    
   178   90   92 1    
   179   90  211 1    
   180   91  212 1    
   181   91  213 1    
   182   91  214 1    
   183   92   93 2    
   184   92   94 am   BACKBONE|DICT|INTERRES
   185   94   95 1    
   186   94  215 1    
   187   95   96 1    
   188   95   97 1    
   189   95  216 1    
   190   96  217 1    
   191   96  218 1    
   192   96  219 1    
   193   97   98 2    
   194   97   99 am   BACKBONE|DICT|INTERRES
   195   99  100 1    
   196   99  220 1    
   197  100  101 1    
   198  100  102 1    
   199  100  221 1    
   200  101  222 1    
   201  101  223 1    
   202  101  224 1    
   203  102  103 2    
   204  102  104 am   BACKBONE|DICT|INTERRES
   205  104  105 1    
   206  104  225 1    
   207  105  106 1    
   208  105  107 1    
   209  105  226 1    
   210  106  227 1    
   211  106  228 1    
   212  106  229 1    
   213  107  108 2    
   214  107  109 am   BACKBONE|DICT|INTERRES
   215  109  110 1    
   216  109  230 1    
   217  110  111 1    
   218  110  112 1    
   219  110  231 1    
   220  111  232 1    
   221  111  233 1    
   222  111  234 1    
   223  112  113 2    
   224  112  114 am   BACKBONE|DICT|INTERRES
   225  114  115 1    
   226  114  235 1    
   227  115  116 1    
   228  115  117 1    
   229  115  236 1    
   230  116  237 1    
   231  116  238 1    
   232  116  239 1    
   233  117  118 2    
   234  117  119 am   BACKBONE|DICT|INTERRES
   235  119  120 1    
   236  119  240 1    
   237  120  121 1    
   238  120  124 1    
   239  120  241 1    
   240  121  122 am   BACKBONE|DICT|INTERRES
   241  121  123 2    
   242  122  242 1    
   243  122  243 1    
   244  124  125 1    
   245  124  244 1    
   246  124  245 1    
   247  125  126 1    
   248  126  246 1    
   249  126  247 1    
@<TRIPOS>SUBSTRUCTURE
     1 UNK         1 GROUP             0       ****    0 ROOT    
