@<TRIPOS>MOLECULE
3R540
247   249    1
SMALL
USER_CHARGES


@<TRIPOS>ATOM
      1 CA          7.8029  -15.6802  -46.0830 C.3       0 UNK        -0.1800 
      2 C           6.6699  -14.7102  -45.7838 C.2       0 UNK         0.5000 
      3 O           6.1769  -14.6716  -44.6570 O.2       0 UNK        -0.5000 
      4 N           6.2706  -13.9061  -46.7788 N.am      1 UNK        -0.5000 
      5 CA          5.1317  -12.9736  -46.7332 C.3       1 UNK         0.1400 
      6 C6          4.7215  -12.4706  -48.1400 C.3       23 UNK        -0.0398 
      7 S7          4.3563  -13.8217  -49.3115 S.3       23 UNK        -0.2404 
      8 C8          2.6955  -14.3190  -48.7561 C.3       23 UNK        -0.0205 
      9 C9          2.0952  -15.3799  -49.6637 C.ar      23 UNK        -0.0193 
     10 C10         1.0141  -15.0660  -50.4916 C.ar      23 UNK        -0.1150 
     11 C11         0.4530  -16.0373  -51.3246 C.ar      23 UNK        -0.0193 
     12 C12         0.9847  -17.3311  -51.3269 C.ar      23 UNK        -0.1150 
     13 C13         2.0746  -17.6541  -50.5148 C.ar      23 UNK        -0.0193 
     14 C14         2.6173  -16.6772  -49.6748 C.ar      23 UNK        -0.1150 
     15 C15         2.6975  -19.0409  -50.5812 C.3       23 UNK        -0.0205 
     16 S16         2.2905  -20.0573  -49.1306 S.3       23 UNK        -0.2404 
     17 C17         0.5360  -20.4545  -49.4289 C.3       23 UNK        -0.0398 
     18 CA          0.0632  -21.6105  -48.5163 C.3       11 UNK         0.1400 
     19 N           0.0320  -21.2344  -47.0983 N.am      11 UNK        -0.5000 
     20 C          -0.1040  -22.1042  -46.0883 C.2       10 UNK         0.5000 
     21 O          -0.1662  -23.3220  -46.2481 O.2       10 UNK        -0.5000 
     22 CA         -0.2527  -21.5250  -44.6689 C.3       10 UNK         0.1400 
     23 CB          1.1176  -21.2129  -44.0501 C.3       10 UNK        -0.1800 
     24 N          -1.1046  -20.3356  -44.6331 N.am      10 UNK        -0.5000 
     25 C          -2.4093  -20.3336  -44.9422 C.2       9 UNK         0.5000 
     26 O          -3.0418  -21.3504  -45.2259 O.2       9 UNK        -0.5000 
     27 CA         -3.1154  -18.9663  -45.0016 C.3       9 UNK         0.1400 
     28 CB         -3.5568  -18.5128  -43.6025 C.3       9 UNK        -0.1800 
     29 N          -2.2873  -17.9305  -45.6204 N.am      9 UNK        -0.5000 
     30 C          -1.8559  -17.9616  -46.8895 C.2       8 UNK         0.5000 
     31 O          -2.1627  -18.8446  -47.6889 O.2       8 UNK        -0.5000 
     32 CA         -0.8657  -16.8619  -47.3168 C.3       8 UNK         0.1400 
     33 CB         -1.5972  -15.5636  -47.6866 C.3       8 UNK        -0.1800 
     34 N           0.1361  -16.5922  -46.2836 N.am      8 UNK        -0.5000 
     35 C           1.0682  -17.4774  -45.9036 C.2       7 UNK         0.5000 
     36 O           1.1861  -18.5947  -46.4010 O.2       7 UNK        -0.5000 
     37 CA          1.9840  -17.0717  -44.7360 C.3       7 UNK         0.1400 
     38 CB          3.1339  -16.1829  -45.2243 C.3       7 UNK        -0.1800 
     39 N           1.2617  -16.3900  -43.6620 N.am      7 UNK        -0.5000 
     40 C           0.3212  -16.9704  -42.9042 C.2       6 UNK         0.5000 
     41 O          -0.0078  -18.1516  -43.0111 O.2       6 UNK        -0.5000 
     42 CA         -0.4064  -16.0719  -41.8893 C.3       6 UNK         0.1400 
     43 CB          0.4524  -15.8585  -40.6340 C.3       6 UNK        -0.1800 
     44 N          -0.7874  -14.7720  -42.4420 N.am      6 UNK        -0.5000 
     45 C          -1.6071  -14.5707  -43.4809 C.2       5 UNK         0.5000 
     46 O          -2.1366  -15.4843  -44.1122 O.2       5 UNK        -0.5000 
     47 CA         -1.8579  -13.1141  -43.9218 C.3       5 UNK         0.1400 
     48 CB         -2.9790  -12.4627  -43.0904 C.3       5 UNK        -0.1800 
     49 N          -0.6479  -12.2801  -43.9613 N.am      5 UNK        -0.5000 
     50 C           0.1193  -11.8647  -42.9445 C.2       4 UNK         0.5000 
     51 O          -0.1309  -12.0691  -41.7540 O.2       4 UNK        -0.5000 
     52 CA          1.4126  -11.1285  -43.3359 C.3       4 UNK         0.1400 
     53 CB          1.2628   -9.6151  -43.1220 C.3       4 UNK        -0.1800 
     54 N           2.5819  -11.6025  -42.5949 N.am      4 UNK        -0.5000 
     55 C           3.0114  -12.8697  -42.5204 C.2       3 UNK         0.5000 
     56 O           2.4376  -13.8243  -43.0499 O.2       3 UNK        -0.5000 
     57 CA          4.3530  -13.0749  -41.7904 C.3       3 UNK         0.1400 
     58 CB          4.6349  -14.5527  -41.4671 C.3       3 UNK        -0.1800 
     59 N           5.4286  -12.5552  -42.6323 N.am      3 UNK        -0.5000 
     60 C           5.7828  -11.2629  -42.7136 C.2       2 UNK         0.5000 
     61 O           5.3754  -10.3973  -41.9376 O.2       2 UNK        -0.5000 
     62 CA          6.6811  -10.8548  -43.9012 C.3       2 UNK         0.1400 
     63 CB          8.1641  -10.9233  -43.5076 C.3       2 UNK        -0.1800 
     64 N           6.4580  -11.6900  -45.0835 N.am      2 UNK        -0.5000 
     65 C           5.2960  -11.7936  -45.7462 C.2       1 UNK         0.5000 
     66 O           4.3495  -11.0259  -45.5684 O.2       1 UNK        -0.5000 
     67 C          -1.2838  -22.1964  -48.9925 C.2       11 UNK         0.5000 
     68 O          -1.2806  -23.1664  -49.7501 O.2       11 UNK        -0.5000 
     69 N          -2.4091  -21.6448  -48.5153 N.am      12 UNK        -0.5000 
     70 CA         -3.7514  -22.1727  -48.7761 C.3       12 UNK         0.1400 
     71 CB         -4.8122  -21.1511  -48.3410 C.3       12 UNK        -0.1800 
     72 C          -3.9845  -23.5376  -48.1005 C.2       12 UNK         0.5000 
     73 O          -4.5819  -24.4240  -48.7119 O.2       12 UNK        -0.5000 
     74 N          -3.4719  -23.7016  -46.8726 N.am      13 UNK        -0.5000 
     75 CA         -3.4795  -24.9636  -46.1314 C.3       13 UNK         0.1400 
     76 CB         -3.0494  -24.7191  -44.6778 C.3       13 UNK        -0.1800 
     77 C          -2.6030  -26.0424  -46.7944 C.2       13 UNK         0.5000 
     78 O          -3.0234  -27.1964  -46.8694 O.2       13 UNK        -0.5000 
     79 N          -1.4314  -25.6491  -47.3155 N.am      14 UNK        -0.5000 
     80 CA         -0.5361  -26.5043  -48.1023 C.3       14 UNK         0.1400 
     81 CB          0.7956  -25.7777  -48.3412 C.3       14 UNK        -0.1800 
     82 C          -1.1601  -26.9562  -49.4380 C.2       14 UNK         0.5000 
     83 O          -0.9128  -28.0798  -49.8759 O.2       14 UNK        -0.5000 
     84 N          -2.0025  -26.0970  -50.0279 N.am      15 UNK        -0.5000 
     85 CA         -2.8469  -26.3924  -51.1878 C.3       15 UNK         0.1400 
     86 CB         -3.1995  -25.0716  -51.8956 C.3       15 UNK        -0.1800 
     87 C          -4.1244  -27.1853  -50.8285 C.2       15 UNK         0.5000 
     88 O          -4.9569  -27.4056  -51.7085 O.2       15 UNK        -0.5000 
     89 N          -4.2875  -27.5727  -49.5523 N.am      16 UNK        -0.5000 
     90 CA         -5.4061  -28.3297  -48.9754 C.3       16 UNK         0.1400 
     91 CB         -5.4214  -29.7691  -49.5302 C.3       16 UNK        -0.1800 
     92 C          -6.7710  -27.6241  -49.1206 C.2       16 UNK         0.5000 
     93 O          -7.8061  -28.2917  -49.1476 O.2       16 UNK        -0.5000 
     94 N          -6.7418  -26.2882  -49.2448 N.am      17 UNK        -0.5000 
     95 CA         -7.8591  -25.3911  -49.5500 C.3       17 UNK         0.1400 
     96 CB         -8.8765  -25.3667  -48.3911 C.3       17 UNK        -0.1800 
     97 C          -8.5242  -25.6499  -50.9224 C.2       17 UNK         0.5000 
     98 O          -9.6252  -25.1504  -51.1604 O.2       17 UNK        -0.5000 
     99 N          -7.8507  -26.3907  -51.8189 N.am      18 UNK        -0.5000 
    100 CA        -8.2971  -26.6313  -53.1954 C.3       18 UNK         0.1400 
    101 CB        -7.5277  -27.8232  -53.7838 C.3       18 UNK        -0.1800 
    102 C         -8.1265  -25.3822  -54.0805 C.2       18 UNK         0.5000 
    103 O         -8.8679  -25.2088  -55.0485 O.2       18 UNK        -0.5000 
    104 N         -7.1753  -24.5239  -53.7019 N.am      19 UNK        -0.5000 
    105 CA        -6.9935  -23.1683  -54.1907 C.3       19 UNK         0.1400 
    106 CB        -5.8004  -23.1239  -55.1580 C.3       19 UNK        -0.1800 
    107 C         -6.7326  -22.2907  -52.9617 C.2       19 UNK         0.5000 
    108 O         -6.0808  -22.7431  -52.0147 O.2       19 UNK        -0.5000 
    109 N         -7.2104  -21.0431  -53.0001 N.am      20 UNK        -0.5000 
    110 CA        -7.0027  -20.0360  -51.9582 C.3       20 UNK         0.1400 
    111 CB        -8.1529  -19.0150  -52.0190 C.3       20 UNK        -0.1800 
    112 C         -5.6150  -19.3813  -52.1061 C.2       20 UNK         0.5000 
    113 O         -5.5218  -18.1759  -52.3486 O.2       20 UNK        -0.5000 
    114 N         -4.5655  -20.2105  -52.0124 N.am      21 UNK        -0.5000 
    115 CA        -3.1517  -19.8932  -52.2240 C.3       21 UNK         0.1400 
    116 CB        -2.6223  -18.9996  -51.0825 C.3       21 UNK        -0.1800 
    117 C         -2.9131  -19.3077  -53.6309 C.2       21 UNK         0.5000 
    118 O         -2.8528  -20.0658  -54.5995 O.2       21 UNK        -0.5000 
    119 N         -2.8098  -17.9775  -53.7125 N.am      22 UNK        -0.5000 
    120 CA        -2.6920  -17.2023  -54.9558 C.3       22 UNK         0.1400 
    121 C         -4.0381  -17.0326  -55.7197 C.2       22 UNK         0.5000 
    122 N         -5.1904  -17.2970  -55.1139 N.am      22 UNK        -0.7600 
    123 O         -4.0355  -16.6568  -56.8888 O.2       22 UNK        -0.5000 
    124 C124       -2.0346  -15.8198  -54.7035 C.3       23 UNK        -0.0398 
    125 S125       -0.3652  -15.9498  -53.9765 S.3       23 UNK        -0.2404 
    126 C126       -0.7346  -15.6934  -52.2105 C.3       23 UNK        -0.0205 
    127 H127        8.1499  -15.5932  -47.1129 H         1 UNK         0.0600 
    128 H128        8.6467  -15.4871  -45.4208 H         1 UNK         0.0600 
    129 H129        7.4687  -16.7050  -45.9217 H         1 UNK         0.0600 
    130 H130        6.7244  -13.9803  -47.6785 H         1 UNK         0.3000 
    131 H131        4.2894  -13.5427  -46.3381 H         1 UNK         0.0600 
    132 H132        3.8443  -11.8233  -48.0838 H         1 UNK         0.0800 
    133 H133        5.5186  -11.8604  -48.5679 H         1 UNK         0.0800 
    134 H134        2.7516  -14.7152  -47.7442 H         1 UNK         0.0800 
    135 H135        2.0487  -13.4414  -48.7116 H         1 UNK         0.0800 
    136 H136        0.6079  -14.0643  -50.4858 H         1 UNK         0.1150 
    137 H137        0.5638  -18.0796  -51.9829 H         1 UNK         0.1150 
    138 H138        3.4588  -16.9220  -49.0418 H         1 UNK         0.1150 
    139 H139        2.3947  -19.5619  -51.4907 H         1 UNK         0.0800 
    140 H140        3.7820  -18.9387  -50.6401 H         1 UNK         0.0800 
    141 H141        0.4238  -20.7235  -50.4809 H         1 UNK         0.0800 
    142 H142       -0.0646  -19.5584  -49.2684 H         1 UNK         0.0800 
    143 H143        0.7918  -22.4184  -48.6130 H         1 UNK         0.0600 
    144 H144        0.1549  -20.2490  -46.8853 H         1 UNK         0.3000 
    145 H145       -0.7297  -22.2880  -44.0506 H         1 UNK         0.0600 
    146 H146        1.0150  -20.8531  -43.0262 H         1 UNK         0.0600 
    147 H147        1.7426  -22.1062  -44.0206 H         1 UNK         0.0600 
    148 H148        1.6575  -20.4560  -44.6176 H         1 UNK         0.0600 
    149 H149       -0.6648  -19.4645  -44.3525 H         1 UNK         0.3000 
    150 H150       -4.0101  -19.0839  -45.6163 H         1 UNK         0.0600 
    151 H151       -4.2021  -19.2584  -43.1364 H         1 UNK         0.0600 
    152 H152       -4.1183  -17.5796  -43.6501 H         1 UNK         0.0600 
    153 H153       -2.7051  -18.3559  -42.9409 H         1 UNK         0.0600 
    154 H154       -2.0321  -17.1404  -45.0338 H         1 UNK         0.3000 
    155 H155       -0.3410  -17.2157  -48.2074 H         1 UNK         0.0600 
    156 H156       -0.8982  -14.8051  -48.0393 H         1 UNK         0.0600 
    157 H157       -2.1447  -15.1502  -46.8395 H         1 UNK         0.0600 
    158 H158       -2.3156  -15.7398  -48.4883 H         1 UNK         0.0600 
    159 H159        0.0663  -15.7164  -45.7888 H         1 UNK         0.3000 
    160 H160        2.4163  -17.9866  -44.3257 H         1 UNK         0.0600 
    161 H161        2.7791  -15.1894  -45.4951 H         1 UNK         0.0600 
    162 H162        3.6324  -16.6130  -46.0942 H         1 UNK         0.0600 
    163 H163        3.8853  -16.0631  -44.4452 H         1 UNK         0.0600 
    164 H164        1.5170  -15.4217  -43.4800 H         1 UNK         0.3000 
    165 H165       -1.3231  -16.5851  -41.5924 H         1 UNK         0.0600 
    166 H166        1.3620  -15.3013  -40.8595 H         1 UNK         0.0600 
    167 H167       -0.0966  -15.3066  -39.8709 H         1 UNK         0.0600 
    168 H168        0.7496  -16.8122  -40.1959 H         1 UNK         0.0600 
    169 H169       -0.3942  -13.9481  -41.9964 H         1 UNK         0.3000 
    170 H170       -2.2102  -13.1621  -44.9535 H         1 UNK         0.0600 
    171 H171       -3.9049  -13.0327  -43.1776 H         1 UNK         0.0600 
    172 H172       -2.7298  -12.4131  -42.0303 H         1 UNK         0.0600 
    173 H173       -3.1874  -11.4497  -43.4344 H         1 UNK         0.0600 
    174 H174       -0.3288  -12.0623  -44.8950 H         1 UNK         0.3000 
    175 H175        1.6135  -11.3073  -44.3942 H         1 UNK         0.0600 
    176 H176        2.1497   -9.0796  -43.4619 H         1 UNK         0.0600 
    177 H177        0.4126   -9.2229  -43.6815 H         1 UNK         0.0600 
    178 H178        1.1051   -9.3722  -42.0703 H         1 UNK         0.0600 
    179 H179        3.1499  -10.8900  -42.1558 H         1 UNK         0.3000 
    180 H180        4.3175  -12.5257  -40.8472 H         1 UNK         0.0600 
    181 H181        4.6966  -15.1616  -42.3691 H         1 UNK         0.0600 
    182 H182        3.8475  -14.9722  -40.8404 H         1 UNK         0.0600 
    183 H183        5.5750  -14.6635  -40.9268 H         1 UNK         0.0600 
    184 H184        5.7791  -13.1994  -43.3353 H         1 UNK         0.3000 
    185 H185        6.4388   -9.8232  -44.1644 H         1 UNK         0.0600 
    186 H186        8.8041  -10.5748  -44.3184 H         1 UNK         0.0600 
    187 H187        8.3668  -10.2932  -42.6406 H         1 UNK         0.0600 
    188 H188        8.4664  -11.9400  -43.2531 H         1 UNK         0.0600 
    189 H189        7.1755  -12.3674  -45.2969 H         1 UNK         0.3000 
    190 H190       -2.3422  -20.8094  -47.9414 H         1 UNK         0.3000 
    191 H191       -3.8518  -22.3177  -49.8537 H         1 UNK         0.0600 
    192 H192       -4.6814  -20.1997  -48.8563 H         1 UNK         0.0600 
    193 H193       -5.8151  -21.5113  -48.5737 H         1 UNK         0.0600 
    194 H194       -4.7723  -20.9580  -47.2692 H         1 UNK         0.0600 
    195 H195       -3.0579  -22.8997  -46.4060 H         1 UNK         0.3000 
    196 H196       -4.5067  -25.3343  -46.1198 H         1 UNK         0.0600 
    197 H197       -3.0998  -25.6406  -44.0967 H         1 UNK         0.0600 
    198 H198       -3.6993  -23.9913  -44.1916 H         1 UNK         0.0600 
    199 H199       -2.0269  -24.3482  -44.6147 H         1 UNK         0.0600 
    200 H200       -1.1145  -24.6993  -47.1383 H         1 UNK         0.3000 
    201 H201       -0.3318  -27.4008  -47.5135 H         1 UNK         0.0600 
    202 H202        1.2684  -25.4995  -47.3991 H         1 UNK         0.0600 
    203 H203        0.6597  -24.8703  -48.9289 H         1 UNK         0.0600 
    204 H204        1.4963  -26.4156  -48.8811 H         1 UNK         0.0600 
    205 H205       -2.0984  -25.1700  -49.6300 H         1 UNK         0.3000 
    206 H206       -2.2760  -27.0060  -51.8872 H         1 UNK         0.0600 
    207 H207       -3.7544  -25.2530  -52.8169 H         1 UNK         0.0600 
    208 H208       -3.8150  -24.4278  -51.2678 H         1 UNK         0.0600 
    209 H209       -2.3014  -24.5150  -52.1638 H         1 UNK         0.0600 
    210 H210       -3.5730  -27.3109  -48.8839 H         1 UNK         0.3000 
    211 H211       -5.2147  -28.3919  -47.9038 H         1 UNK         0.0600 
    212 H212       -5.6804  -29.7918  -50.5893 H         1 UNK         0.0600 
    213 H213       -6.1493  -30.3861  -49.0023 H         1 UNK         0.0600 
    214 H214       -4.4486  -30.2466  -49.4123 H         1 UNK         0.0600 
    215 H215       -5.8385  -25.8247  -49.1764 H         1 UNK         0.3000 
    216 H216       -7.4210  -24.3942  -49.6209 H         1 UNK         0.0600 
    217 H217       -8.3838  -25.1680  -47.4393 H         1 UNK         0.0600 
    218 H218       -9.4128  -26.3116  -48.3017 H         1 UNK         0.0600 
    219 H219       -9.6202  -24.5829  -48.5386 H         1 UNK         0.0600 
    220 H220       -6.9431  -26.7685  -51.5674 H         1 UNK         0.3000 
    221 H221       -9.3584  -26.8875  -53.1754 H         1 UNK         0.0600 
    222 H222       -6.4658  -27.6023  -53.8961 H         1 UNK         0.0600 
    223 H223       -7.6223  -28.7067  -53.1522 H         1 UNK         0.0600 
    224 H224       -7.9122  -28.0840  -54.7706 H         1 UNK         0.0600 
    225 H225       -6.6484  -24.7318  -52.8633 H         1 UNK         0.3000 
    226 H226       -7.8957  -22.8182  -54.6970 H         1 UNK         0.0600 
    227 H227       -5.9730  -23.7630  -56.0241 H         1 UNK         0.0600 
    228 H228       -5.6331  -22.1111  -55.5267 H         1 UNK         0.0600 
    229 H229       -4.8790  -23.4544  -54.6764 H         1 UNK         0.0600 
    230 H230       -7.7040  -20.7328  -53.8248 H         1 UNK         0.3000 
    231 H231       -7.0356  -20.5155  -50.9773 H         1 UNK         0.0600 
    232 H232       -9.1175  -19.4994  -51.8660 H         1 UNK         0.0600 
    233 H233       -8.1855  -18.4985  -52.9791 H         1 UNK         0.0600 
    234 H234       -8.0445  -18.2578  -51.2413 H         1 UNK         0.0600 
    235 H235       -4.7805  -21.1936  -51.8819 H         1 UNK         0.3000 
    236 H236       -2.6084  -20.8387  -52.1815 H         1 UNK         0.0600 
    237 H237       -3.1607  -18.0557  -50.9975 H         1 UNK         0.0600 
    238 H238       -2.7185  -19.5077  -50.1274 H         1 UNK         0.0600 
    239 H239       -1.5657  -18.7736  -51.2176 H         1 UNK         0.0600 
    240 H240       -2.9452  -17.4429  -52.8686 H         1 UNK         0.3000 
    241 H241       -2.0350  -17.7575  -55.6283 H         1 UNK         0.0600 
    242 H242       -5.2155  -17.5849  -54.1395 H         1 UNK         0.3800 
    243 H243       -6.0525  -17.1811  -55.6218 H         1 UNK         0.3800 
    244 H244       -1.9333  -15.2735  -55.6430 H         1 UNK         0.0800 
    245 H245       -2.6668  -15.2016  -54.0637 H         1 UNK         0.0800 
    246 H246       -1.5793  -16.3092  -51.9072 H         1 UNK         0.0800 
    247 H247       -1.0421  -14.6568  -52.0634 H         1 UNK         0.0800 
@<TRIPOS>BOND
     1    1    2 1    
     2    1  127 1    
     3    1  128 1    
     4    1  129 1    
     5    2    3 2    
     6    2    4 am   BACKBONE|DICT|INTERRES
     7    4    5 1    
     8    4  130 1    
     9    5    6 1    
    10    5   65 1    
    11    5  131 1    
    12    6    7 1    
    13    6  132 1    
    14    6  133 1    
    15    7    8 1    
    16    8    9 1    
    17    8  134 1    
    18    8  135 1    
    19    9   10 ar   
    20    9   14 ar   
    21   10   11 ar   
    22   10  136 1    
    23   11   12 ar   
    24   11  126 1    
    25   12   13 ar   
    26   12  137 1    
    27   13   14 ar   
    28   13   15 1    
    29   14  138 1    
    30   15   16 1    
    31   15  139 1    
    32   15  140 1    
    33   16   17 1    
    34   17   18 1    
    35   17  141 1    
    36   17  142 1    
    37   18   19 1    
    38   18   67 1    
    39   18  143 1    
    40   19   20 am   BACKBONE|DICT|INTERRES
    41   19  144 1    
    42   20   21 2    
    43   20   22 1    
    44   22   23 1    
    45   22   24 1    
    46   22  145 1    
    47   23  146 1    
    48   23  147 1    
    49   23  148 1    
    50   24   25 am   BACKBONE|DICT|INTERRES
    51   24  149 1    
    52   25   26 2    
    53   25   27 1    
    54   27   28 1    
    55   27   29 1    
    56   27  150 1    
    57   28  151 1    
    58   28  152 1    
    59   28  153 1    
    60   29   30 am   BACKBONE|DICT|INTERRES
    61   29  154 1    
    62   30   31 2    
    63   30   32 1    
    64   32   33 1    
    65   32   34 1    
    66   32  155 1    
    67   33  156 1    
    68   33  157 1    
    69   33  158 1    
    70   34   35 am   BACKBONE|DICT|INTERRES
    71   34  159 1    
    72   35   36 2    
    73   35   37 1    
    74   37   38 1    
    75   37   39 1    
    76   37  160 1    
    77   38  161 1    
    78   38  162 1    
    79   38  163 1    
    80   39   40 am   BACKBONE|DICT|INTERRES
    81   39  164 1    
    82   40   41 2    
    83   40   42 1    
    84   42   43 1    
    85   42   44 1    
    86   42  165 1    
    87   43  166 1    
    88   43  167 1    
    89   43  168 1    
    90   44   45 am   BACKBONE|DICT|INTERRES
    91   44  169 1    
    92   45   46 2    
    93   45   47 1    
    94   47   48 1    
    95   47   49 1    
    96   47  170 1    
    97   48  171 1    
    98   48  172 1    
    99   48  173 1    
   100   49   50 am   BACKBONE|DICT|INTERRES
   101   49  174 1    
   102   50   51 2    
   103   50   52 1    
   104   52   53 1    
   105   52   54 1    
   106   52  175 1    
   107   53  176 1    
   108   53  177 1    
   109   53  178 1    
   110   54   55 am   BACKBONE|DICT|INTERRES
   111   54  179 1    
   112   55   56 2    
   113   55   57 1    
   114   57   58 1    
   115   57   59 1    
   116   57  180 1    
   117   58  181 1    
   118   58  182 1    
   119   58  183 1    
   120   59   60 am   BACKBONE|DICT|INTERRES
   121   59  184 1    
   122   60   61 2    
   123   60   62 1    
   124   62   63 1    
   125   62   64 1    
   126   62  185 1    
   127   63  186 1    
   128   63  187 1    
   129   63  188 1    
   130   64   65 am   BACKBONE|DICT|INTERRES
   131   64  189 1    
   132   65   66 2    
   133   67   68 2    
   134   67   69 am   BACKBONE|DICT|INTERRES
   135   69   70 1    
   136   69  190 1    
   137   70   71 1    
   138   70   72 1    
   139   70  191 1    
   140   71  192 1    
   141   71  193 1    
   142   71  194 1    
   143   72   73 2    
   144   72   74 am   BACKBONE|DICT|INTERRES
   145   74   75 1    
   146   74  195 1    
   147   75   76 1    
   148   75   77 1    
   149   75  196 1    
   150   76  197 1    
   151   76  198 1    
   152   76  199 1    
   153   77   78 2    
   154   77   79 am   BACKBONE|DICT|INTERRES
   155   79   80 1    
   156   79  200 1    
   157   80   81 1    
   158   80   82 1    
   159   80  201 1    
   160   81  202 1    
   161   81  203 1    
   162   81  204 1    
   163   82   83 2    
   164   82   84 am   BACKBONE|DICT|INTERRES
   165   84   85 1    
   166   84  205 1    
   167   85   86 1    
   168   85   87 1    
   169   85  206 1    
   170   86  207 1    
   171   86  208 1    
   172   86  209 1    
   173   87   88 2    
   174   87   89 am   BACKBONE|DICT|INTERRES
   175   89   90 1    
   176   89  210 1    
   177   90   91 1    
   178   90   92 1    
   179   90  211 1    
   180   91  212 1    
   181   91  213 1    
   182   91  214 1    
   183   92   93 2    
   184   92   94 am   BACKBONE|DICT|INTERRES
   185   94   95 1    
   186   94  215 1    
   187   95   96 1    
   188   95   97 1    
   189   95  216 1    
   190   96  217 1    
   191   96  218 1    
   192   96  219 1    
   193   97   98 2    
   194   97   99 am   BACKBONE|DICT|INTERRES
   195   99  100 1    
   196   99  220 1    
   197  100  101 1    
   198  100  102 1    
   199  100  221 1    
   200  101  222 1    
   201  101  223 1    
   202  101  224 1    
   203  102  103 2    
   204  102  104 am   BACKBONE|DICT|INTERRES
   205  104  105 1    
   206  104  225 1    
   207  105  106 1    
   208  105  107 1    
   209  105  226 1    
   210  106  227 1    
   211  106  228 1    
   212  106  229 1    
   213  107  108 2    
   214  107  109 am   BACKBONE|DICT|INTERRES
   215  109  110 1    
   216  109  230 1    
   217  110  111 1    
   218  110  112 1    
   219  110  231 1    
   220  111  232 1    
   221  111  233 1    
   222  111  234 1    
   223  112  113 2    
   224  112  114 am   BACKBONE|DICT|INTERRES
   225  114  115 1    
   226  114  235 1    
   227  115  116 1    
   228  115  117 1    
   229  115  236 1    
   230  116  237 1    
   231  116  238 1    
   232  116  239 1    
   233  117  118 2    
   234  117  119 am   BACKBONE|DICT|INTERRES
   235  119  120 1    
   236  119  240 1    
   237  120  121 1    
   238  120  124 1    
   239  120  241 1    
   240  121  122 am   BACKBONE|DICT|INTERRES
   241  121  123 2    
   242  122  242 1    
   243  122  243 1    
   244  124  125 1    
   245  124  244 1    
   246  124  245 1    
   247  125  126 1    
   248  126  246 1    
   249  126  247 1    
@<TRIPOS>SUBSTRUCTURE
     1 UNK         1 GROUP             0       ****    0 ROOT    
