@<TRIPOS>MOLECULE
3R540
247   249    1
SMALL
USER_CHARGES


@<TRIPOS>ATOM
      1 CA         -0.0597  -11.7684  -47.5977 C.3       0 UNK        -0.1800 
      2 C          -0.1871  -13.2229  -47.1707 C.2       0 UNK         0.5000 
      3 O          -0.7686  -13.5045  -46.1250 O.2       0 UNK        -0.5000 
      4 N           0.3284  -14.1508  -47.9879 N.am      1 UNK        -0.5000 
      5 CA          0.4007  -15.5963  -47.7218 C.3       1 UNK         0.1400 
      6 C6          1.2025  -16.3360  -48.8155 C.3       23 UNK        -0.0398 
      7 S7          2.9531  -15.8265  -48.8854 S.3       23 UNK        -0.2404 
      8 C8          3.4316  -16.3179  -50.5802 C.3       23 UNK        -0.0205 
      9 C9          2.9162  -17.6947  -50.9897 C.ar      23 UNK        -0.0193 
     10 C10         2.2549  -17.8551  -52.2103 C.ar      23 UNK        -0.1150 
     11 C11         1.7376  -19.0989  -52.5813 C.ar      23 UNK        -0.0193 
     12 C12         1.8572  -20.1816  -51.7038 C.ar      23 UNK        -0.1150 
     13 C13         2.5310  -20.0431  -50.4869 C.ar      23 UNK        -0.0193 
     14 C14         3.0836  -18.8021  -50.1524 C.ar      23 UNK        -0.1150 
     15 C15         2.6750  -21.2488  -49.5628 C.3       23 UNK        -0.0205 
     16 S16         2.4876  -20.8604  -47.7891 S.3       23 UNK        -0.2404 
     17 C17         0.7339  -20.3604  -47.6822 C.3       23 UNK        -0.0398 
     18 CA         -0.2088  -21.5414  -47.3537 C.3       11 UNK         0.1400 
     19 N           0.2088  -22.2719  -46.1521 N.am      11 UNK        -0.5000 
     20 C          -0.2735  -23.4660  -45.7801 C.2       10 UNK         0.5000 
     21 O          -1.1609  -24.0608  -46.3894 O.2       10 UNK        -0.5000 
     22 CA          0.2843  -24.0786  -44.4820 C.3       10 UNK         0.1400 
     23 CB          1.5318  -24.9207  -44.7860 C.3       10 UNK        -0.1800 
     24 N           0.6137  -23.0897  -43.4551 N.am      10 UNK        -0.5000 
     25 C          -0.2165  -22.1598  -42.9614 C.2       9 UNK         0.5000 
     26 O          -1.3965  -22.0474  -43.2924 O.2       9 UNK        -0.5000 
     27 CA          0.3903  -21.1441  -41.9779 C.3       9 UNK         0.1400 
     28 CB          0.1576  -21.5977  -40.5296 C.3       9 UNK        -0.1800 
     29 N           1.8212  -20.8907  -42.1822 N.am      9 UNK        -0.5000 
     30 C           2.3746  -20.4314  -43.3137 C.2       8 UNK         0.5000 
     31 O           1.7493  -20.2383  -44.3584 O.2       8 UNK        -0.5000 
     32 CA          3.8928  -20.1818  -43.2793 C.3       8 UNK         0.1400 
     33 CB          4.6291  -21.2516  -44.1006 C.3       8 UNK        -0.1800 
     34 N           4.2421  -18.8570  -43.7919 N.am      8 UNK        -0.5000 
     35 C           3.8497  -17.6981  -43.2468 C.2       7 UNK         0.5000 
     36 O           3.1735  -17.6233  -42.2175 O.2       7 UNK        -0.5000 
     37 CA          4.2976  -16.4207  -43.9826 C.3       7 UNK         0.1400 
     38 CB          3.6216  -16.3018  -45.3569 C.3       7 UNK        -0.1800 
     39 N           3.9925  -15.2224  -43.2010 N.am      7 UNK        -0.5000 
     40 C           4.7747  -14.7380  -42.2266 C.2       6 UNK         0.5000 
     41 O           5.8766  -15.2109  -41.9422 O.2       6 UNK        -0.5000 
     42 CA          4.2643  -13.5130  -41.4414 C.3       6 UNK         0.1400 
     43 CB          4.9292  -12.2286  -41.9612 C.3       6 UNK        -0.1800 
     44 N           2.8123  -13.3449  -41.4975 N.am      6 UNK        -0.5000 
     45 C           1.9278  -14.0666  -40.7971 C.2       5 UNK         0.5000 
     46 O           2.2437  -14.9459  -39.9946 O.2       5 UNK        -0.5000 
     47 CA          0.4325  -13.7526  -41.0179 C.3       5 UNK         0.1400 
     48 CB          0.1680  -12.3538  -41.6211 C.3       5 UNK        -0.1800 
     49 N          -0.2396  -14.7848  -41.8126 N.am      5 UNK        -0.5000 
     50 C           0.0910  -15.2003  -43.0454 C.2       4 UNK         0.5000 
     51 O           1.0582  -14.7715  -43.6754 O.2       4 UNK        -0.5000 
     52 CA         -0.8171  -16.2605  -43.6981 C.3       4 UNK         0.1400 
     53 CB         -0.0737  -17.6007  -43.7910 C.3       4 UNK        -0.1800 
     54 N          -2.0719  -16.4898  -42.9721 N.am      4 UNK        -0.5000 
     55 C          -3.2442  -15.8319  -43.0177 C.2       3 UNK         0.5000 
     56 O          -4.1395  -16.1285  -42.2289 O.2       3 UNK        -0.5000 
     57 CA         -3.5367  -14.7075  -44.0412 C.3       3 UNK         0.1400 
     58 CB         -2.9239  -13.3604  -43.6278 C.3       3 UNK        -0.1800 
     59 N          -3.2135  -15.0195  -45.4341 N.am      3 UNK        -0.5000 
     60 C          -3.8756  -15.9109  -46.1885 C.2       2 UNK         0.5000 
     61 O          -4.8336  -16.5666  -45.7800 O.2       2 UNK        -0.5000 
     62 CA         -3.4299  -16.0870  -47.6564 C.3       2 UNK         0.1400 
     63 CB         -4.3747  -15.3227  -48.5955 C.3       2 UNK        -0.1800 
     64 N          -2.0628  -15.6381  -47.9106 N.am      2 UNK        -0.5000 
     65 C          -0.9643  -16.2905  -47.5118 C.2       1 UNK         0.5000 
     66 O          -0.9967  -17.3998  -46.9810 O.2       1 UNK        -0.5000 
     67 C          -1.6761  -21.0656  -47.2764 C.2       11 UNK         0.5000 
     68 O          -2.3350  -20.9570  -48.3147 O.2       11 UNK        -0.5000 
     69 N          -2.1630  -20.8294  -46.0511 N.am      12 UNK        -0.5000 
     70 CA         -3.5484  -20.4868  -45.7545 C.3       12 UNK         0.1400 
     71 CB         -3.5813  -19.4890  -44.5880 C.3       12 UNK        -0.1800 
     72 C          -4.3728  -21.7425  -45.4247 C.2       12 UNK         0.5000 
     73 O          -5.4964  -21.8651  -45.9094 O.2       12 UNK        -0.5000 
     74 N          -3.8050  -22.6578  -44.6244 N.am      13 UNK        -0.5000 
     75 CA         -4.4703  -23.8641  -44.1238 C.3       13 UNK         0.1400 
     76 CB         -3.6324  -24.4873  -42.9978 C.3       13 UNK        -0.1800 
     77 C          -4.7757  -24.9036  -45.2170 C.2       13 UNK         0.5000 
     78 O          -5.8834  -25.4411  -45.2426 O.2       13 UNK        -0.5000 
     79 N          -3.8124  -25.1471  -46.1183 N.am      14 UNK        -0.5000 
     80 CA         -4.0041  -25.9746  -47.3165 C.3       14 UNK         0.1400 
     81 CB         -2.6589  -26.5909  -47.7336 C.3       14 UNK        -0.1800 
     82 C          -4.6120  -25.1650  -48.4798 C.2       14 UNK         0.5000 
     83 O          -4.9945  -25.7487  -49.4939 O.2       14 UNK        -0.5000 
     84 N          -4.6763  -23.8373  -48.3052 N.am      15 UNK        -0.5000 
     85 CA         -5.2221  -22.8234  -49.2057 C.3       15 UNK         0.1400 
     86 CB         -6.7402  -23.0058  -49.3841 C.3       15 UNK        -0.1800 
     87 C          -4.4598  -22.6951  -50.5376 C.2       15 UNK         0.5000 
     88 O          -5.0362  -22.2572  -51.5372 O.2       15 UNK        -0.5000 
     89 N          -3.1592  -23.0216  -50.5081 N.am      16 UNK        -0.5000 
     90 CA         -2.2215  -22.8857  -51.6231 C.3       16 UNK         0.1400 
     91 CB         -0.8461  -23.4270  -51.2078 C.3       16 UNK        -0.1800 
     92 C          -2.0999  -21.4353  -52.1207 C.2       16 UNK         0.5000 
     93 O          -2.0260  -21.2158  -53.3289 O.2       16 UNK        -0.5000 
     94 N          -2.1292  -20.4801  -51.1828 N.am      17 UNK        -0.5000 
     95 CA         -2.2046  -19.0512  -51.4678 C.3       17 UNK         0.1400 
     96 CB         -1.3431  -18.2871  -50.4549 C.3       17 UNK        -0.1800 
     97 C          -3.6543  -18.5442  -51.4151 C.2       17 UNK         0.5000 
     98 O          -4.0314  -17.7192  -52.2459 O.2       17 UNK        -0.5000 
     99 N          -4.4321  -19.0228  -50.4320 N.am      18 UNK        -0.5000 
    100 CA        -5.7563  -18.4832  -50.1105 C.3       18 UNK         0.1400 
    101 CB        -6.1749  -18.9337  -48.7028 C.3       18 UNK        -0.1800 
    102 C         -6.8630  -18.7962  -51.1344 C.2       18 UNK         0.5000 
    103 O         -7.7757  -17.9808  -51.2743 O.2       18 UNK        -0.5000 
    104 N         -6.7858  -19.9478  -51.8148 N.am      19 UNK        -0.5000 
    105 CA        -7.7863  -20.3814  -52.7935 C.3       19 UNK         0.1400 
    106 CB        -8.5570  -21.5988  -52.2576 C.3       19 UNK        -0.1800 
    107 C         -7.1449  -20.7024  -54.1475 C.2       19 UNK         0.5000 
    108 O         -7.6368  -20.2284  -55.1725 O.2       19 UNK        -0.5000 
    109 N         -6.0693  -21.5023  -54.1402 N.am      20 UNK        -0.5000 
    110 CA        -5.3940  -21.9489  -55.3611 C.3       20 UNK         0.1400 
    111 CB        -4.5477  -23.1910  -55.0508 C.3       20 UNK        -0.1800 
    112 C         -4.5324  -20.8520  -56.0118 C.2       20 UNK         0.5000 
    113 O         -4.3281  -20.8905  -57.2260 O.2       20 UNK        -0.5000 
    114 N         -4.0327  -19.9121  -55.1942 N.am      21 UNK        -0.5000 
    115 CA        -3.1796  -18.7724  -55.5557 C.3       21 UNK         0.1400 
    116 CB        -4.0186  -17.6992  -56.2780 C.3       21 UNK        -0.1800 
    117 C         -1.9113  -19.1735  -56.3433 C.2       21 UNK         0.5000 
    118 O         -1.4878  -18.4445  -57.2420 O.2       21 UNK        -0.5000 
    119 N         -1.3506  -20.3444  -56.0074 N.am      22 UNK        -0.5000 
    120 CA        -0.2455  -21.0209  -56.7108 C.3       22 UNK         0.1400 
    121 C         -0.5720  -21.4560  -58.1771 C.2       22 UNK         0.5000 
    122 N         -1.8280  -21.4876  -58.6079 N.am      22 UNK        -0.7600 
    123 O          0.3244  -21.8158  -58.9359 O.2       22 UNK        -0.5000 
    124 C124        1.1029  -20.2499  -56.5858 C.3       23 UNK        -0.0398 
    125 S125        1.9051  -20.4875  -54.9657 S.3       23 UNK        -0.2404 
    126 C126        1.0445  -19.2689  -53.9247 C.3       23 UNK        -0.0205 
    127 H127        0.4923  -11.2059  -46.8448 H         1 UNK         0.0600 
    128 H128       -1.0479  -11.3208  -47.7026 H         1 UNK         0.0600 
    129 H129        0.4633  -11.6688  -48.5491 H         1 UNK         0.0600 
    130 H130        0.7926  -13.8495  -48.8330 H         1 UNK         0.3000 
    131 H131        0.9325  -15.7104  -46.7767 H         1 UNK         0.0600 
    132 H132        1.1900  -17.4122  -48.6342 H         1 UNK         0.0800 
    133 H133        0.7444  -16.1800  -49.7935 H         1 UNK         0.0800 
    134 H134        3.0685  -15.5544  -51.2699 H         1 UNK         0.0800 
    135 H135        4.5194  -16.3100  -50.6569 H         1 UNK         0.0800 
    136 H136        2.1414  -17.0090  -52.8734 H         1 UNK         0.1150 
    137 H137        1.4410  -21.1391  -51.9844 H         1 UNK         0.1150 
    138 H138        3.6149  -18.6842  -49.2187 H         1 UNK         0.1150 
    139 H139        1.9537  -22.0235  -49.8260 H         1 UNK         0.0800 
    140 H140        3.6632  -21.6827  -49.7191 H         1 UNK         0.0800 
    141 H141        0.4388  -19.8809  -48.6158 H         1 UNK         0.0800 
    142 H142        0.6597  -19.5920  -46.9101 H         1 UNK         0.0800 
    143 H143       -0.1545  -22.2458  -48.1845 H         1 UNK         0.0600 
    144 H144        0.9073  -21.8137  -45.5769 H         1 UNK         0.3000 
    145 H145       -0.4796  -24.7399  -44.0722 H         1 UNK         0.0600 
    146 H146        1.8876  -25.4367  -43.8940 H         1 UNK         0.0600 
    147 H147        1.3153  -25.6829  -45.5359 H         1 UNK         0.0600 
    148 H148        2.3484  -24.3064  -45.1681 H         1 UNK         0.0600 
    149 H149        1.5670  -23.0872  -43.1248 H         1 UNK         0.3000 
    150 H150       -0.1370  -20.2007  -42.1274 H         1 UNK         0.0600 
    151 H151        0.6900  -22.5233  -40.3070 H         1 UNK         0.0600 
    152 H152       -0.9023  -21.7750  -40.3411 H         1 UNK         0.0600 
    153 H153        0.4890  -20.8393  -39.8201 H         1 UNK         0.0600 
    154 H154        2.4129  -21.0252  -41.3750 H         1 UNK         0.3000 
    155 H155        4.2407  -20.2411  -42.2459 H         1 UNK         0.0600 
    156 H156        4.3417  -21.2193  -45.1527 H         1 UNK         0.0600 
    157 H157        4.4041  -22.2527  -43.7308 H         1 UNK         0.0600 
    158 H158        5.7097  -21.1201  -44.0435 H         1 UNK         0.0600 
    159 H159        4.7655  -18.8391  -44.6545 H         1 UNK         0.3000 
    160 H160        5.3764  -16.4828  -44.1403 H         1 UNK         0.0600 
    161 H161        2.5384  -16.2774  -45.2662 H         1 UNK         0.0600 
    162 H162        3.8758  -17.1425  -46.0033 H         1 UNK         0.0600 
    163 H163        3.9326  -15.3929  -45.8720 H         1 UNK         0.0600 
    164 H164        3.0602  -14.8390  -43.3205 H         1 UNK         0.3000 
    165 H165        4.5576  -13.6478  -40.3981 H         1 UNK         0.0600 
    166 H166        4.6323  -11.3627  -41.3691 H         1 UNK         0.0600 
    167 H167        6.0163  -12.3009  -41.9059 H         1 UNK         0.0600 
    168 H168        4.6659  -12.0320  -43.0013 H         1 UNK         0.0600 
    169 H169        2.4602  -12.6646  -42.1552 H         1 UNK         0.3000 
    170 H170       -0.0294  -13.7721  -40.0297 H         1 UNK         0.0600 
    171 H171        0.6608  -11.5740  -41.0389 H         1 UNK         0.0600 
    172 H172        0.5148  -12.2713  -42.6517 H         1 UNK         0.0600 
    173 H173       -0.8978  -12.1266  -41.6166 H         1 UNK         0.0600 
    174 H174       -1.0299  -15.2290  -41.3679 H         1 UNK         0.3000 
    175 H175       -1.0161  -15.9259  -44.7097 H         1 UNK         0.0600 
    176 H176        0.8121  -17.5155  -44.4191 H         1 UNK         0.0600 
    177 H177        0.2563  -17.9470  -42.8113 H         1 UNK         0.0600 
    178 H178       -0.6963  -18.3776  -44.2343 H         1 UNK         0.0600 
    179 H179       -2.0126  -17.2317  -42.2914 H         1 UNK         0.3000 
    180 H180       -4.6185  -14.5581  -44.0094 H         1 UNK         0.0600 
    181 H181       -1.8460  -13.3336  -43.7675 H         1 UNK         0.0600 
    182 H182       -3.1254  -13.1421  -42.5784 H         1 UNK         0.0600 
    183 H183       -3.3472  -12.5451  -44.2144 H         1 UNK         0.0600 
    184 H184       -2.4213  -14.5227  -45.8312 H         1 UNK         0.3000 
    185 H185       -3.4939  -17.1507  -47.8949 H         1 UNK         0.0600 
    186 H186       -5.4102  -15.6311  -48.4457 H         1 UNK         0.0600 
    187 H187       -4.3277  -14.2466  -48.4236 H         1 UNK         0.0600 
    188 H188       -4.1258  -15.5070  -49.6409 H         1 UNK         0.0600 
    189 H189       -1.9515  -14.7267  -48.3303 H         1 UNK         0.3000 
    190 H190       -1.5596  -20.9890  -45.2550 H         1 UNK         0.3000 
    191 H191       -4.0004  -20.0022  -46.6216 H         1 UNK         0.0600 
    192 H192       -3.0383  -18.5794  -44.8427 H         1 UNK         0.0600 
    193 H193       -4.6052  -19.1974  -44.3508 H         1 UNK         0.0600 
    194 H194       -3.1361  -19.9020  -43.6823 H         1 UNK         0.0600 
    195 H195       -2.8871  -22.4598  -44.2314 H         1 UNK         0.3000 
    196 H196       -5.4247  -23.5542  -43.6928 H         1 UNK         0.0600 
    197 H197       -4.1369  -25.3546  -42.5700 H         1 UNK         0.0600 
    198 H198       -3.4664  -23.7757  -42.1887 H         1 UNK         0.0600 
    199 H199       -2.6594  -24.8189  -43.3568 H         1 UNK         0.0600 
    200 H200       -2.9131  -24.6772  -46.0413 H         1 UNK         0.3000 
    201 H201       -4.6904  -26.7920  -47.0861 H         1 UNK         0.0600 
    202 H202       -2.7992  -27.3226  -48.5301 H         1 UNK         0.0600 
    203 H203       -2.1818  -27.1055  -46.8995 H         1 UNK         0.0600 
    204 H204       -1.9649  -25.8376  -48.1070 H         1 UNK         0.0600 
    205 H205       -4.3536  -23.4870  -47.4148 H         1 UNK         0.3000 
    206 H206       -5.0625  -21.8776  -48.6901 H         1 UNK         0.0600 
    207 H207       -7.2349  -23.1521  -48.4238 H         1 UNK         0.0600 
    208 H208       -7.1832  -22.1206  -49.8373 H         1 UNK         0.0600 
    209 H209       -6.9748  -23.8607  -50.0191 H         1 UNK         0.0600 
    210 H210       -2.7773  -23.3439  -49.6316 H         1 UNK         0.3000 
    211 H211       -2.5944  -23.4989  -52.4441 H         1 UNK         0.0600 
    212 H212       -0.4103  -22.8417  -50.3992 H         1 UNK         0.0600 
    213 H213       -0.1479  -23.3957  -52.0455 H         1 UNK         0.0600 
    214 H214       -0.9109  -24.4639  -50.8774 H         1 UNK         0.0600 
    215 H215       -2.1907  -20.7562  -50.2067 H         1 UNK         0.3000 
    216 H216       -1.8118  -18.8412  -52.4636 H         1 UNK         0.0600 
    217 H217       -1.4048  -17.2112  -50.6225 H         1 UNK         0.0600 
    218 H218       -0.2950  -18.5697  -50.5379 H         1 UNK         0.0600 
    219 H219       -1.6622  -18.4819  -49.4312 H         1 UNK         0.0600 
    220 H220       -4.0394  -19.6909  -49.7858 H         1 UNK         0.3000 
    221 H221       -5.6632  -17.3966  -50.0876 H         1 UNK         0.0600 
    222 H222       -6.3295  -20.0096  -48.6470 H         1 UNK         0.0600 
    223 H223       -5.4316  -18.6555  -47.9568 H         1 UNK         0.0600 
    224 H224       -7.1124  -18.4598  -48.4090 H         1 UNK         0.0600 
    225 H225       -6.0056  -20.5763  -51.6537 H         1 UNK         0.3000 
    226 H226       -8.5152  -19.5892  -52.9760 H         1 UNK         0.0600 
    227 H227       -9.3322  -21.9075  -52.9599 H         1 UNK         0.0600 
    228 H228       -7.9023  -22.4561  -52.0990 H         1 UNK         0.0600 
    229 H229       -9.0494  -21.3686  -51.3127 H         1 UNK         0.0600 
    230 H230       -5.7192  -21.8674  -53.2582 H         1 UNK         0.3000 
    231 H231       -6.1547  -22.2404  -56.0887 H         1 UNK         0.0600 
    232 H232       -3.7545  -22.9654  -54.3418 H         1 UNK         0.0600 
    233 H233       -4.0773  -23.5792  -55.9551 H         1 UNK         0.0600 
    234 H234       -5.1573  -23.9909  -54.6301 H         1 UNK         0.0600 
    235 H235       -4.2320  -20.0094  -54.2096 H         1 UNK         0.3000 
    236 H236       -2.8255  -18.3398  -54.6205 H         1 UNK         0.0600 
    237 H237       -4.8878  -17.4163  -55.6840 H         1 UNK         0.0600 
    238 H238       -3.4363  -16.7932  -56.4494 H         1 UNK         0.0600 
    239 H239       -4.3743  -18.0510  -57.2469 H         1 UNK         0.0600 
    240 H240       -1.7354  -20.8407  -55.2080 H         1 UNK         0.3000 
    241 H241       -0.1246  -21.9730  -56.1930 H         1 UNK         0.0600 
    242 H242       -2.6033  -21.2069  -58.0143 H         1 UNK         0.3800 
    243 H243       -2.0142  -21.7851  -59.5522 H         1 UNK         0.3800 
    244 H244        1.8288  -20.6036  -57.3190 H         1 UNK         0.0800 
    245 H245        0.9833  -19.1862  -56.7913 H         1 UNK         0.0800 
    246 H246        0.9850  -18.3170  -54.4544 H         1 UNK         0.0800 
    247 H247        0.0218  -19.5986  -53.7542 H         1 UNK         0.0800 
@<TRIPOS>BOND
     1    1    2 1    
     2    1  127 1    
     3    1  128 1    
     4    1  129 1    
     5    2    3 2    
     6    2    4 am   BACKBONE|DICT|INTERRES
     7    4    5 1    
     8    4  130 1    
     9    5    6 1    
    10    5   65 1    
    11    5  131 1    
    12    6    7 1    
    13    6  132 1    
    14    6  133 1    
    15    7    8 1    
    16    8    9 1    
    17    8  134 1    
    18    8  135 1    
    19    9   10 ar   
    20    9   14 ar   
    21   10   11 ar   
    22   10  136 1    
    23   11   12 ar   
    24   11  126 1    
    25   12   13 ar   
    26   12  137 1    
    27   13   14 ar   
    28   13   15 1    
    29   14  138 1    
    30   15   16 1    
    31   15  139 1    
    32   15  140 1    
    33   16   17 1    
    34   17   18 1    
    35   17  141 1    
    36   17  142 1    
    37   18   19 1    
    38   18   67 1    
    39   18  143 1    
    40   19   20 am   BACKBONE|DICT|INTERRES
    41   19  144 1    
    42   20   21 2    
    43   20   22 1    
    44   22   23 1    
    45   22   24 1    
    46   22  145 1    
    47   23  146 1    
    48   23  147 1    
    49   23  148 1    
    50   24   25 am   BACKBONE|DICT|INTERRES
    51   24  149 1    
    52   25   26 2    
    53   25   27 1    
    54   27   28 1    
    55   27   29 1    
    56   27  150 1    
    57   28  151 1    
    58   28  152 1    
    59   28  153 1    
    60   29   30 am   BACKBONE|DICT|INTERRES
    61   29  154 1    
    62   30   31 2    
    63   30   32 1    
    64   32   33 1    
    65   32   34 1    
    66   32  155 1    
    67   33  156 1    
    68   33  157 1    
    69   33  158 1    
    70   34   35 am   BACKBONE|DICT|INTERRES
    71   34  159 1    
    72   35   36 2    
    73   35   37 1    
    74   37   38 1    
    75   37   39 1    
    76   37  160 1    
    77   38  161 1    
    78   38  162 1    
    79   38  163 1    
    80   39   40 am   BACKBONE|DICT|INTERRES
    81   39  164 1    
    82   40   41 2    
    83   40   42 1    
    84   42   43 1    
    85   42   44 1    
    86   42  165 1    
    87   43  166 1    
    88   43  167 1    
    89   43  168 1    
    90   44   45 am   BACKBONE|DICT|INTERRES
    91   44  169 1    
    92   45   46 2    
    93   45   47 1    
    94   47   48 1    
    95   47   49 1    
    96   47  170 1    
    97   48  171 1    
    98   48  172 1    
    99   48  173 1    
   100   49   50 am   BACKBONE|DICT|INTERRES
   101   49  174 1    
   102   50   51 2    
   103   50   52 1    
   104   52   53 1    
   105   52   54 1    
   106   52  175 1    
   107   53  176 1    
   108   53  177 1    
   109   53  178 1    
   110   54   55 am   BACKBONE|DICT|INTERRES
   111   54  179 1    
   112   55   56 2    
   113   55   57 1    
   114   57   58 1    
   115   57   59 1    
   116   57  180 1    
   117   58  181 1    
   118   58  182 1    
   119   58  183 1    
   120   59   60 am   BACKBONE|DICT|INTERRES
   121   59  184 1    
   122   60   61 2    
   123   60   62 1    
   124   62   63 1    
   125   62   64 1    
   126   62  185 1    
   127   63  186 1    
   128   63  187 1    
   129   63  188 1    
   130   64   65 am   BACKBONE|DICT|INTERRES
   131   64  189 1    
   132   65   66 2    
   133   67   68 2    
   134   67   69 am   BACKBONE|DICT|INTERRES
   135   69   70 1    
   136   69  190 1    
   137   70   71 1    
   138   70   72 1    
   139   70  191 1    
   140   71  192 1    
   141   71  193 1    
   142   71  194 1    
   143   72   73 2    
   144   72   74 am   BACKBONE|DICT|INTERRES
   145   74   75 1    
   146   74  195 1    
   147   75   76 1    
   148   75   77 1    
   149   75  196 1    
   150   76  197 1    
   151   76  198 1    
   152   76  199 1    
   153   77   78 2    
   154   77   79 am   BACKBONE|DICT|INTERRES
   155   79   80 1    
   156   79  200 1    
   157   80   81 1    
   158   80   82 1    
   159   80  201 1    
   160   81  202 1    
   161   81  203 1    
   162   81  204 1    
   163   82   83 2    
   164   82   84 am   BACKBONE|DICT|INTERRES
   165   84   85 1    
   166   84  205 1    
   167   85   86 1    
   168   85   87 1    
   169   85  206 1    
   170   86  207 1    
   171   86  208 1    
   172   86  209 1    
   173   87   88 2    
   174   87   89 am   BACKBONE|DICT|INTERRES
   175   89   90 1    
   176   89  210 1    
   177   90   91 1    
   178   90   92 1    
   179   90  211 1    
   180   91  212 1    
   181   91  213 1    
   182   91  214 1    
   183   92   93 2    
   184   92   94 am   BACKBONE|DICT|INTERRES
   185   94   95 1    
   186   94  215 1    
   187   95   96 1    
   188   95   97 1    
   189   95  216 1    
   190   96  217 1    
   191   96  218 1    
   192   96  219 1    
   193   97   98 2    
   194   97   99 am   BACKBONE|DICT|INTERRES
   195   99  100 1    
   196   99  220 1    
   197  100  101 1    
   198  100  102 1    
   199  100  221 1    
   200  101  222 1    
   201  101  223 1    
   202  101  224 1    
   203  102  103 2    
   204  102  104 am   BACKBONE|DICT|INTERRES
   205  104  105 1    
   206  104  225 1    
   207  105  106 1    
   208  105  107 1    
   209  105  226 1    
   210  106  227 1    
   211  106  228 1    
   212  106  229 1    
   213  107  108 2    
   214  107  109 am   BACKBONE|DICT|INTERRES
   215  109  110 1    
   216  109  230 1    
   217  110  111 1    
   218  110  112 1    
   219  110  231 1    
   220  111  232 1    
   221  111  233 1    
   222  111  234 1    
   223  112  113 2    
   224  112  114 am   BACKBONE|DICT|INTERRES
   225  114  115 1    
   226  114  235 1    
   227  115  116 1    
   228  115  117 1    
   229  115  236 1    
   230  116  237 1    
   231  116  238 1    
   232  116  239 1    
   233  117  118 2    
   234  117  119 am   BACKBONE|DICT|INTERRES
   235  119  120 1    
   236  119  240 1    
   237  120  121 1    
   238  120  124 1    
   239  120  241 1    
   240  121  122 am   BACKBONE|DICT|INTERRES
   241  121  123 2    
   242  122  242 1    
   243  122  243 1    
   244  124  125 1    
   245  124  244 1    
   246  124  245 1    
   247  125  126 1    
   248  126  246 1    
   249  126  247 1    
@<TRIPOS>SUBSTRUCTURE
     1 UNK         1 GROUP             0       ****    0 ROOT    
