@<TRIPOS>MOLECULE
3R540
247   249    1
SMALL
USER_CHARGES


@<TRIPOS>ATOM
      1 CA          2.4197  -12.3803  -48.8382 C.3       0 UNK        -0.1800 
      2 C           2.0790  -13.6113  -48.0021 C.2       0 UNK         0.5000 
      3 O           0.9262  -13.7691  -47.6112 O.2       0 UNK        -0.5000 
      4 N           3.0315  -14.5069  -47.7089 N.am      1 UNK        -0.5000 
      5 CA          4.4534  -14.4251  -48.0666 C.3       1 UNK         0.1400 
      6 C6          5.1061  -15.8291  -48.1332 C.3       23 UNK        -0.0398 
      7 S7          4.6748  -16.7140  -49.6720 S.3       23 UNK        -0.2404 
      8 C8          3.3245  -17.8301  -49.1678 C.3       23 UNK        -0.0205 
      9 C9          2.0807  -17.5879  -50.0095 C.ar      23 UNK        -0.0193 
     10 C10         2.0003  -18.0950  -51.3106 C.ar      23 UNK        -0.1150 
     11 C11         0.8760  -17.8461  -52.1049 C.ar      23 UNK        -0.0193 
     12 C12        -0.1818  -17.0992  -51.5797 C.ar      23 UNK        -0.1150 
     13 C13        -0.1188  -16.5985  -50.2761 C.ar      23 UNK        -0.0193 
     14 C14         1.0156  -16.8435  -49.4971 C.ar      23 UNK        -0.1150 
     15 C15        -1.2725  -15.7808  -49.7182 C.3       23 UNK        -0.0205 
     16 S16        -2.5995  -16.8430  -49.0719 S.3       23 UNK        -0.2404 
     17 C17        -1.8381  -17.5132  -47.5526 C.3       23 UNK        -0.0398 
     18 CA         -1.2815  -18.9480  -47.7168 C.3       11 UNK         0.1400 
     19 N          -0.4300  -19.3418  -46.5901 N.am      11 UNK        -0.5000 
     20 C           0.3178  -20.4555  -46.5683 C.2       10 UNK         0.5000 
     21 O           0.4109  -21.2337  -47.5148 O.2       10 UNK        -0.5000 
     22 CA          1.0504  -20.7954  -45.2603 C.3       10 UNK         0.1400 
     23 CB          2.4832  -20.2542  -45.2953 C.3       10 UNK        -0.1800 
     24 N           0.3614  -20.3233  -44.0573 N.am      10 UNK        -0.5000 
     25 C          -0.8242  -20.7947  -43.6449 C.2       9 UNK         0.5000 
     26 O          -1.5046  -21.5857  -44.3006 O.2       9 UNK        -0.5000 
     27 CA         -1.3399  -20.3011  -42.2868 C.3       9 UNK         0.1400 
     28 CB         -0.5841  -20.9824  -41.1341 C.3       9 UNK        -0.1800 
     29 N          -1.2155  -18.8483  -42.1591 N.am      9 UNK        -0.5000 
     30 C          -2.2215  -18.0334  -41.8151 C.2       8 UNK         0.5000 
     31 O          -3.3668  -18.4236  -41.5833 O.2       8 UNK        -0.5000 
     32 CA         -1.9190  -16.5269  -41.6939 C.3       8 UNK         0.1400 
     33 CB         -1.6853  -16.1354  -40.2267 C.3       8 UNK        -0.1800 
     34 N          -0.7944  -16.0509  -42.5017 N.am      8 UNK        -0.5000 
     35 C          -0.8038  -15.9840  -43.8406 C.2       7 UNK         0.5000 
     36 O          -1.6952  -16.4624  -44.5395 O.2       7 UNK        -0.5000 
     37 CA          0.3727  -15.2611  -44.5096 C.3       7 UNK         0.1400 
     38 CB          0.2341  -13.7413  -44.3258 C.3       7 UNK        -0.1800 
     39 N           1.6346  -15.7194  -43.9363 N.am      7 UNK        -0.5000 
     40 C           2.5667  -16.4193  -44.5929 C.2       6 UNK         0.5000 
     41 O           2.5385  -16.6104  -45.8083 O.2       6 UNK        -0.5000 
     42 CA          3.7279  -17.0231  -43.7693 C.3       6 UNK         0.1400 
     43 CB          5.0092  -16.2030  -43.9578 C.3       6 UNK        -0.1800 
     44 N           3.4689  -17.1268  -42.3341 N.am      6 UNK        -0.5000 
     45 C           2.4783  -17.8073  -41.7427 C.2       5 UNK         0.5000 
     46 O           1.6832  -18.5280  -42.3454 O.2       5 UNK        -0.5000 
     47 CA          2.2960  -17.5648  -40.2306 C.3       5 UNK         0.1400 
     48 CB          2.9997  -18.6649  -39.4241 C.3       5 UNK        -0.1800 
     49 N           2.7784  -16.2487  -39.7849 N.am      5 UNK        -0.5000 
     50 C           2.3603  -15.0640  -40.2576 C.2       4 UNK         0.5000 
     51 O           1.4551  -14.9567  -41.0910 O.2       4 UNK        -0.5000 
     52 CA          3.1111  -13.8052  -39.7832 C.3       4 UNK         0.1400 
     53 CB          4.5735  -14.0828  -39.3679 C.3       4 UNK        -0.1800 
     54 N           3.0732  -12.8235  -40.8629 N.am      4 UNK        -0.5000 
     55 C           3.2786  -11.5085  -40.7637 C.2       3 UNK         0.5000 
     56 O           3.5781  -10.9441  -39.7095 O.2       3 UNK        -0.5000 
     57 CA          3.1249  -10.6965  -42.0706 C.3       3 UNK         0.1400 
     58 CB          3.1869   -9.1767  -41.8322 C.3       3 UNK        -0.1800 
     59 N           4.1177  -11.0480  -43.0922 N.am      3 UNK        -0.5000 
     60 C           4.1118  -12.1635  -43.8312 C.2       2 UNK         0.5000 
     61 O           3.2951  -13.0745  -43.6821 O.2       2 UNK        -0.5000 
     62 CA          5.1886  -12.2879  -44.9188 C.3       2 UNK         0.1400 
     63 CB          6.5487  -12.6968  -44.3193 C.3       2 UNK        -0.1800 
     64 N           4.7202  -13.2619  -45.9037 N.am      2 UNK        -0.5000 
     65 C           5.2300  -13.4774  -47.1226 C.2       1 UNK         0.5000 
     66 O           6.2491  -12.9256  -47.5384 O.2       1 UNK        -0.5000 
     67 C          -2.4053  -19.9769  -47.9468 C.2       11 UNK         0.5000 
     68 O          -2.5884  -20.4290  -49.0746 O.2       11 UNK        -0.5000 
     69 N          -3.0955  -20.3728  -46.8665 N.am      12 UNK        -0.5000 
     70 CA         -4.1591  -21.3779  -46.8944 C.3       12 UNK         0.1400 
     71 CB         -4.8745  -21.4107  -45.5360 C.3       12 UNK        -0.1800 
     72 C          -3.6420  -22.7755  -47.2760 C.2       12 UNK         0.5000 
     73 O          -4.3241  -23.4920  -48.0101 O.2       12 UNK        -0.5000 
     74 N          -2.4365  -23.1191  -46.8013 N.am      13 UNK        -0.5000 
     75 CA         -1.7323  -24.3518  -47.1480 C.3       13 UNK         0.1400 
     76 CB         -0.5127  -24.5287  -46.2311 C.3       13 UNK        -0.1800 
     77 C          -1.3235  -24.3923  -48.6320 C.2       13 UNK         0.5000 
     78 O          -1.6179  -25.3757  -49.3112 O.2       13 UNK        -0.5000 
     79 N          -0.6914  -23.3150  -49.1205 N.am      14 UNK        -0.5000 
     80 CA         -0.2516  -23.1636  -50.5104 C.3       14 UNK         0.1400 
     81 CB          0.6529  -21.9284  -50.6294 C.3       14 UNK        -0.1800 
     82 C          -1.4237  -23.0882  -51.5069 C.2       14 UNK         0.5000 
     83 O          -1.3302  -23.6438  -52.6016 O.2       14 UNK        -0.5000 
     84 N          -2.5254  -22.4503  -51.0900 N.am      15 UNK        -0.5000 
     85 CA         -3.7909  -22.3954  -51.8190 C.3       15 UNK         0.1400 
     86 CB         -4.6291  -21.2263  -51.2798 C.3       15 UNK        -0.1800 
     87 C          -4.6040  -23.7007  -51.7526 C.2       15 UNK         0.5000 
     88 O          -5.6287  -23.7853  -52.4321 O.2       15 UNK        -0.5000 
     89 N          -4.1688  -24.6720  -50.9362 N.am      16 UNK        -0.5000 
     90 CA         -4.7878  -25.9784  -50.6960 C.3       16 UNK         0.1400 
     91 CB         -4.6629  -26.8675  -51.9508 C.3       16 UNK        -0.1800 
     92 C          -6.2380  -25.8501  -50.1896 C.2       16 UNK         0.5000 
     93 O          -7.1439  -26.4741  -50.7413 O.2       16 UNK        -0.5000 
     94 N          -6.4389  -24.9814  -49.1871 N.am      17 UNK        -0.5000 
     95 CA         -7.7355  -24.5818  -48.6233 C.3       17 UNK         0.1400 
     96 CB         -8.3968  -25.7571  -47.8737 C.3       17 UNK        -0.1800 
     97 C          -8.6626  -23.9322  -49.6764 C.2       17 UNK         0.5000 
     98 O          -9.8734  -24.1579  -49.6688 O.2       17 UNK        -0.5000 
     99 N          -8.0469  -23.1479  -50.5729 N.am      18 UNK        -0.5000 
    100 CA        -8.6245  -22.4392  -51.7192 C.3       18 UNK         0.1400 
    101 CB        -9.7513  -21.4772  -51.2889 C.3       18 UNK        -0.1800 
    102 C         -9.0315  -23.3469  -52.8999 C.2       18 UNK         0.5000 
    103 O         -9.6726  -22.8571  -53.8307 O.2       18 UNK        -0.5000 
    104 N         -8.6305  -24.6276  -52.8861 N.am      19 UNK        -0.5000 
    105 CA        -8.8402  -25.5553  -54.0012 C.3       19 UNK         0.1400 
    106 CB        -8.6906  -27.0036  -53.5134 C.3       19 UNK        -0.1800 
    107 C         -7.8833  -25.2826  -55.1772 C.2       19 UNK         0.5000 
    108 O         -8.2915  -25.4190  -56.3312 O.2       19 UNK        -0.5000 
    109 N         -6.6390  -24.8944  -54.8661 N.am      20 UNK        -0.5000 
    110 CA        -5.6171  -24.5069  -55.8411 C.3       20 UNK         0.1400 
    111 CB        -4.2595  -25.0826  -55.4070 C.3       20 UNK        -0.1800 
    112 C         -5.5273  -22.9776  -55.9900 C.2       20 UNK         0.5000 
    113 O         -5.0651  -22.4994  -57.0254 O.2       20 UNK        -0.5000 
    114 N         -5.9461  -22.2394  -54.9501 N.am      21 UNK        -0.5000 
    115 CA        -6.0496  -20.7754  -54.8358 C.3       21 UNK         0.1400 
    116 CB        -6.9934  -20.2055  -55.9123 C.3       21 UNK        -0.1800 
    117 C         -4.7089  -20.0072  -54.8015 C.2       21 UNK         0.5000 
    118 O         -4.7048  -18.8385  -54.4153 O.2       21 UNK        -0.5000 
    119 N         -3.6027  -20.6632  -55.1731 N.am      22 UNK        -0.5000 
    120 CA        -2.2416  -20.1065  -55.2609 C.3       22 UNK         0.1400 
    121 C         -2.0456  -19.0799  -56.4217 C.2       22 UNK         0.5000 
    122 N         -2.8939  -19.0788  -57.4436 N.am      22 UNK        -0.7600 
    123 O         -1.1072  -18.2888  -56.4197 O.2       22 UNK        -0.5000 
    124 C124       -1.6962  -19.6178  -53.8841 C.3       23 UNK        -0.0398 
    125 S125        0.0766  -19.9998  -53.6689 S.3       23 UNK        -0.2404 
    126 C126        0.8283  -18.3476  -53.5413 C.3       23 UNK        -0.0205 
    127 H127        3.1992  -11.7845  -48.3645 H         1 UNK         0.0600 
    128 H128        1.5420  -11.7440  -48.9533 H         1 UNK         0.0600 
    129 H129        2.7507  -12.6708  -49.8352 H         1 UNK         0.0600 
    130 H130        2.7769  -15.3114  -47.1412 H         1 UNK         0.3000 
    131 H131        4.5379  -13.9851  -49.0617 H         1 UNK         0.0600 
    132 H132        6.1948  -15.7481  -48.1252 H         1 UNK         0.0800 
    133 H133        4.8475  -16.4341  -47.2647 H         1 UNK         0.0800 
    134 H134        3.0940  -17.7097  -48.1097 H         1 UNK         0.0800 
    135 H135        3.6522  -18.8634  -49.2894 H         1 UNK         0.0800 
    136 H136        2.8255  -18.6659  -51.7127 H         1 UNK         0.1150 
    137 H137       -1.0538  -16.9005  -52.1864 H         1 UNK         0.1150 
    138 H138        1.0704  -16.4530  -48.4908 H         1 UNK         0.1150 
    139 H139       -0.9279  -15.1046  -48.9354 H         1 UNK         0.0800 
    140 H140       -1.6822  -15.1462  -50.5053 H         1 UNK         0.0800 
    141 H141       -2.5875  -17.4812  -46.7606 H         1 UNK         0.0800 
    142 H142       -1.0425  -16.8388  -47.2348 H         1 UNK         0.0800 
    143 H143       -0.6491  -18.9638  -48.6069 H         1 UNK         0.0600 
    144 H144       -0.4631  -18.7643  -45.7629 H         1 UNK         0.3000 
    145 H145        1.1114  -21.8828  -45.1886 H         1 UNK         0.0600 
    146 H146        2.9986  -20.4158  -44.3483 H         1 UNK         0.0600 
    147 H147        3.0643  -20.7490  -46.0744 H         1 UNK         0.0600 
    148 H148        2.4920  -19.1902  -45.5167 H         1 UNK         0.0600 
    149 H149        0.8784  -19.6854  -43.4554 H         1 UNK         0.3000 
    150 H150       -2.3868  -20.6052  -42.2245 H         1 UNK         0.0600 
    151 H151       -0.6528  -22.0683  -41.2094 H         1 UNK         0.0600 
    152 H152       -1.0023  -20.6963  -40.1689 H         1 UNK         0.0600 
    153 H153        0.4741  -20.7189  -41.1297 H         1 UNK         0.0600 
    154 H154       -0.2971  -18.4553  -42.3328 H         1 UNK         0.3000 
    155 H155       -2.8107  -15.9979  -42.0373 H         1 UNK         0.0600 
    156 H156       -0.8064  -16.6257  -39.8113 H         1 UNK         0.0600 
    157 H157       -2.5385  -16.4146  -39.6072 H         1 UNK         0.0600 
    158 H158       -1.5477  -15.0589  -40.1226 H         1 UNK         0.0600 
    159 H159       -0.0257  -15.6232  -41.9921 H         1 UNK         0.3000 
    160 H160        0.3271  -15.4800  -45.5779 H         1 UNK         0.0600 
    161 H161        0.3465  -13.4440  -43.2825 H         1 UNK         0.0600 
    162 H162       -0.7404  -13.3920  -44.6689 H         1 UNK         0.0600 
    163 H163        0.9858  -13.2090  -44.9072 H         1 UNK         0.0600 
    164 H164        1.7537  -15.5624  -42.9423 H         1 UNK         0.3000 
    165 H165        3.9140  -18.0287  -44.1456 H         1 UNK         0.0600 
    166 H166        5.8658  -16.6969  -43.4990 H         1 UNK         0.0600 
    167 H167        5.2456  -16.0600  -45.0112 H         1 UNK         0.0600 
    168 H168        4.9075  -15.2193  -43.5028 H         1 UNK         0.0600 
    169 H169        4.0620  -16.5669  -41.7407 H         1 UNK         0.3000 
    170 H170        1.2280  -17.6216  -40.0201 H         1 UNK         0.0600 
    171 H171        2.6441  -19.6533  -39.7189 H         1 UNK         0.0600 
    172 H172        4.0799  -18.6460  -39.5734 H         1 UNK         0.0600 
    173 H173        2.8053  -18.5571  -38.3568 H         1 UNK         0.0600 
    174 H174        3.5253  -16.2557  -39.1051 H         1 UNK         0.3000 
    175 H175        2.5634  -13.4070  -38.9271 H         1 UNK         0.0600 
    176 H176        5.1430  -14.5343  -40.1813 H         1 UNK         0.0600 
    177 H177        5.0860  -13.1652  -39.0792 H         1 UNK         0.0600 
    178 H178        4.6269  -14.7503  -38.5074 H         1 UNK         0.0600 
    179 H179        2.8327  -13.1969  -41.7780 H         1 UNK         0.3000 
    180 H180        2.1327  -10.9230  -42.4674 H         1 UNK         0.0600 
    181 H181        2.4391   -8.8636  -41.1024 H         1 UNK         0.0600 
    182 H182        2.9896   -8.6250  -42.7516 H         1 UNK         0.0600 
    183 H183        4.1632   -8.8665  -41.4575 H         1 UNK         0.0600 
    184 H184        4.8460  -10.3665  -43.2494 H         1 UNK         0.3000 
    185 H185        5.2867  -11.3190  -45.4123 H         1 UNK         0.0600 
    186 H186        6.8720  -11.9823  -43.5615 H         1 UNK         0.0600 
    187 H187        6.5121  -13.6762  -43.8458 H         1 UNK         0.0600 
    188 H188        7.3286  -12.7263  -45.0797 H         1 UNK         0.0600 
    189 H189        3.8581  -13.7216  -45.6342 H         1 UNK         0.3000 
    190 H190       -2.8432  -20.0057  -45.9608 H         1 UNK         0.3000 
    191 H191       -4.8848  -21.0764  -47.6526 H         1 UNK         0.0600 
    192 H192       -4.1982  -21.6926  -44.7284 H         1 UNK         0.0600 
    193 H193       -5.6928  -22.1319  -45.5447 H         1 UNK         0.0600 
    194 H194       -5.3019  -20.4381  -45.2915 H         1 UNK         0.0600 
    195 H195       -1.9700  -22.4846  -46.1629 H         1 UNK         0.3000 
    196 H196       -2.4133  -25.1860  -46.9659 H         1 UNK         0.0600 
    197 H197       -0.0208  -25.4835  -46.4199 H         1 UNK         0.0600 
    198 H198       -0.8024  -24.5126  -45.1801 H         1 UNK         0.0600 
    199 H199        0.2275  -23.7447  -46.3865 H         1 UNK         0.0600 
    200 H200       -0.4608  -22.5465  -48.4940 H         1 UNK         0.3000 
    201 H201        0.3436  -24.0426  -50.7661 H         1 UNK         0.0600 
    202 H202        1.4919  -21.9830  -49.9359 H         1 UNK         0.0600 
    203 H203        0.1076  -21.0056  -50.4243 H         1 UNK         0.0600 
    204 H204        1.0724  -21.8514  -51.6321 H         1 UNK         0.0600 
    205 H205       -2.4961  -21.9463  -50.2065 H         1 UNK         0.3000 
    206 H206       -3.5743  -22.2107  -52.8714 H         1 UNK         0.0600 
    207 H207       -4.0985  -20.2794  -51.3817 H         1 UNK         0.0600 
    208 H208       -5.5687  -21.1253  -51.8190 H         1 UNK         0.0600 
    209 H209       -4.8735  -21.3624  -50.2259 H         1 UNK         0.0600 
    210 H210       -3.3254  -24.4977  -50.4041 H         1 UNK         0.3000 
    211 H211       -4.2195  -26.4505  -49.8935 H         1 UNK         0.0600 
    212 H212       -5.2408  -26.4753  -52.7873 H         1 UNK         0.0600 
    213 H213       -5.0226  -27.8774  -51.7510 H         1 UNK         0.0600 
    214 H214       -3.6246  -26.9497  -52.2721 H         1 UNK         0.0600 
    215 H215       -5.6281  -24.4939  -48.8063 H         1 UNK         0.3000 
    216 H216       -7.5199  -23.8042  -47.8891 H         1 UNK         0.0600 
    217 H217       -9.2880  -25.4269  -47.3390 H         1 UNK         0.0600 
    218 H218       -7.7177  -26.1857  -47.1367 H         1 UNK         0.0600 
    219 H219       -8.7010  -26.5537  -48.5532 H         1 UNK         0.0600 
    220 H220       -7.0405  -23.0943  -50.5087 H         1 UNK         0.3000 
    221 H221       -7.8165  -21.8198  -52.1069 H         1 UNK         0.0600 
    222 H222      -10.6495  -22.0129  -50.9815 H         1 UNK         0.0600 
    223 H223       -9.4355  -20.8439  -50.4599 H         1 UNK         0.0600 
    224 H224      -10.0349  -20.8165  -52.1089 H         1 UNK         0.0600 
    225 H225       -8.1037  -24.9758  -52.0941 H         1 UNK         0.3000 
    226 H226       -9.8627  -25.4314  -54.3642 H         1 UNK         0.0600 
    227 H227       -9.3395  -27.2043  -52.6606 H         1 UNK         0.0600 
    228 H228       -8.9599  -27.7076  -54.3015 H         1 UNK         0.0600 
    229 H229       -7.6657  -27.2264  -53.2162 H         1 UNK         0.0600 
    230 H230       -6.3952  -24.7705  -53.8878 H         1 UNK         0.3000 
    231 H231       -5.8576  -24.9203  -56.8226 H         1 UNK         0.0600 
    232 H232       -4.3055  -26.1674  -55.3099 H         1 UNK         0.0600 
    233 H233       -3.9276  -24.6760  -54.4520 H         1 UNK         0.0600 
    234 H234       -3.4873  -24.8557  -56.1431 H         1 UNK         0.0600 
    235 H235       -6.2165  -22.7533  -54.1204 H         1 UNK         0.3000 
    236 H236       -6.5241  -20.5897  -53.8724 H         1 UNK         0.0600 
    237 H237       -6.5800  -20.3090  -56.9157 H         1 UNK         0.0600 
    238 H238       -7.9605  -20.7085  -55.8931 H         1 UNK         0.0600 
    239 H239       -7.1777  -19.1434  -55.7464 H         1 UNK         0.0600 
    240 H240       -3.7231  -21.5934  -55.5505 H         1 UNK         0.3000 
    241 H241       -1.6405  -20.9644  -55.5639 H         1 UNK         0.0600 
    242 H242       -2.7615  -18.4213  -58.1960 H         1 UNK         0.3800 
    243 H243       -3.6589  -19.7343  -57.4780 H         1 UNK         0.3800 
    244 H244       -2.2130  -20.1242  -53.0691 H         1 UNK         0.0800 
    245 H245       -1.8927  -18.5555  -53.7351 H         1 UNK         0.0800 
    246 H246        0.2949  -17.6383  -54.1753 H         1 UNK         0.0800 
    247 H247        1.8416  -18.3992  -53.9422 H         1 UNK         0.0800 
@<TRIPOS>BOND
     1    1    2 1    
     2    1  127 1    
     3    1  128 1    
     4    1  129 1    
     5    2    3 2    
     6    2    4 am   BACKBONE|DICT|INTERRES
     7    4    5 1    
     8    4  130 1    
     9    5    6 1    
    10    5   65 1    
    11    5  131 1    
    12    6    7 1    
    13    6  132 1    
    14    6  133 1    
    15    7    8 1    
    16    8    9 1    
    17    8  134 1    
    18    8  135 1    
    19    9   10 ar   
    20    9   14 ar   
    21   10   11 ar   
    22   10  136 1    
    23   11   12 ar   
    24   11  126 1    
    25   12   13 ar   
    26   12  137 1    
    27   13   14 ar   
    28   13   15 1    
    29   14  138 1    
    30   15   16 1    
    31   15  139 1    
    32   15  140 1    
    33   16   17 1    
    34   17   18 1    
    35   17  141 1    
    36   17  142 1    
    37   18   19 1    
    38   18   67 1    
    39   18  143 1    
    40   19   20 am   BACKBONE|DICT|INTERRES
    41   19  144 1    
    42   20   21 2    
    43   20   22 1    
    44   22   23 1    
    45   22   24 1    
    46   22  145 1    
    47   23  146 1    
    48   23  147 1    
    49   23  148 1    
    50   24   25 am   BACKBONE|DICT|INTERRES
    51   24  149 1    
    52   25   26 2    
    53   25   27 1    
    54   27   28 1    
    55   27   29 1    
    56   27  150 1    
    57   28  151 1    
    58   28  152 1    
    59   28  153 1    
    60   29   30 am   BACKBONE|DICT|INTERRES
    61   29  154 1    
    62   30   31 2    
    63   30   32 1    
    64   32   33 1    
    65   32   34 1    
    66   32  155 1    
    67   33  156 1    
    68   33  157 1    
    69   33  158 1    
    70   34   35 am   BACKBONE|DICT|INTERRES
    71   34  159 1    
    72   35   36 2    
    73   35   37 1    
    74   37   38 1    
    75   37   39 1    
    76   37  160 1    
    77   38  161 1    
    78   38  162 1    
    79   38  163 1    
    80   39   40 am   BACKBONE|DICT|INTERRES
    81   39  164 1    
    82   40   41 2    
    83   40   42 1    
    84   42   43 1    
    85   42   44 1    
    86   42  165 1    
    87   43  166 1    
    88   43  167 1    
    89   43  168 1    
    90   44   45 am   BACKBONE|DICT|INTERRES
    91   44  169 1    
    92   45   46 2    
    93   45   47 1    
    94   47   48 1    
    95   47   49 1    
    96   47  170 1    
    97   48  171 1    
    98   48  172 1    
    99   48  173 1    
   100   49   50 am   BACKBONE|DICT|INTERRES
   101   49  174 1    
   102   50   51 2    
   103   50   52 1    
   104   52   53 1    
   105   52   54 1    
   106   52  175 1    
   107   53  176 1    
   108   53  177 1    
   109   53  178 1    
   110   54   55 am   BACKBONE|DICT|INTERRES
   111   54  179 1    
   112   55   56 2    
   113   55   57 1    
   114   57   58 1    
   115   57   59 1    
   116   57  180 1    
   117   58  181 1    
   118   58  182 1    
   119   58  183 1    
   120   59   60 am   BACKBONE|DICT|INTERRES
   121   59  184 1    
   122   60   61 2    
   123   60   62 1    
   124   62   63 1    
   125   62   64 1    
   126   62  185 1    
   127   63  186 1    
   128   63  187 1    
   129   63  188 1    
   130   64   65 am   BACKBONE|DICT|INTERRES
   131   64  189 1    
   132   65   66 2    
   133   67   68 2    
   134   67   69 am   BACKBONE|DICT|INTERRES
   135   69   70 1    
   136   69  190 1    
   137   70   71 1    
   138   70   72 1    
   139   70  191 1    
   140   71  192 1    
   141   71  193 1    
   142   71  194 1    
   143   72   73 2    
   144   72   74 am   BACKBONE|DICT|INTERRES
   145   74   75 1    
   146   74  195 1    
   147   75   76 1    
   148   75   77 1    
   149   75  196 1    
   150   76  197 1    
   151   76  198 1    
   152   76  199 1    
   153   77   78 2    
   154   77   79 am   BACKBONE|DICT|INTERRES
   155   79   80 1    
   156   79  200 1    
   157   80   81 1    
   158   80   82 1    
   159   80  201 1    
   160   81  202 1    
   161   81  203 1    
   162   81  204 1    
   163   82   83 2    
   164   82   84 am   BACKBONE|DICT|INTERRES
   165   84   85 1    
   166   84  205 1    
   167   85   86 1    
   168   85   87 1    
   169   85  206 1    
   170   86  207 1    
   171   86  208 1    
   172   86  209 1    
   173   87   88 2    
   174   87   89 am   BACKBONE|DICT|INTERRES
   175   89   90 1    
   176   89  210 1    
   177   90   91 1    
   178   90   92 1    
   179   90  211 1    
   180   91  212 1    
   181   91  213 1    
   182   91  214 1    
   183   92   93 2    
   184   92   94 am   BACKBONE|DICT|INTERRES
   185   94   95 1    
   186   94  215 1    
   187   95   96 1    
   188   95   97 1    
   189   95  216 1    
   190   96  217 1    
   191   96  218 1    
   192   96  219 1    
   193   97   98 2    
   194   97   99 am   BACKBONE|DICT|INTERRES
   195   99  100 1    
   196   99  220 1    
   197  100  101 1    
   198  100  102 1    
   199  100  221 1    
   200  101  222 1    
   201  101  223 1    
   202  101  224 1    
   203  102  103 2    
   204  102  104 am   BACKBONE|DICT|INTERRES
   205  104  105 1    
   206  104  225 1    
   207  105  106 1    
   208  105  107 1    
   209  105  226 1    
   210  106  227 1    
   211  106  228 1    
   212  106  229 1    
   213  107  108 2    
   214  107  109 am   BACKBONE|DICT|INTERRES
   215  109  110 1    
   216  109  230 1    
   217  110  111 1    
   218  110  112 1    
   219  110  231 1    
   220  111  232 1    
   221  111  233 1    
   222  111  234 1    
   223  112  113 2    
   224  112  114 am   BACKBONE|DICT|INTERRES
   225  114  115 1    
   226  114  235 1    
   227  115  116 1    
   228  115  117 1    
   229  115  236 1    
   230  116  237 1    
   231  116  238 1    
   232  116  239 1    
   233  117  118 2    
   234  117  119 am   BACKBONE|DICT|INTERRES
   235  119  120 1    
   236  119  240 1    
   237  120  121 1    
   238  120  124 1    
   239  120  241 1    
   240  121  122 am   BACKBONE|DICT|INTERRES
   241  121  123 2    
   242  122  242 1    
   243  122  243 1    
   244  124  125 1    
   245  124  244 1    
   246  124  245 1    
   247  125  126 1    
   248  126  246 1    
   249  126  247 1    
@<TRIPOS>SUBSTRUCTURE
     1 UNK         1 GROUP             0       ****    0 ROOT    
