@<TRIPOS>MOLECULE
3R540
247   249    1
SMALL
USER_CHARGES


@<TRIPOS>ATOM
      1 CA         -0.2689  -18.8123  -49.6114 C.3       0 UNK        -0.1800 
      2 C          -0.4290  -17.3809  -50.0972 C.2       0 UNK         0.5000 
      3 O          -1.5185  -16.9920  -50.5140 O.2       0 UNK        -0.5000 
      4 N           0.6494  -16.5911  -50.0475 N.am      1 UNK        -0.5000 
      5 CA          0.7650  -15.1958  -50.4954 C.3       1 UNK         0.1400 
      6 C6          2.2489  -14.7915  -50.7247 C.3       23 UNK        -0.0398 
      7 S7          3.3886  -15.2839  -49.3767 S.3       23 UNK        -0.2404 
      8 C8          4.6388  -16.2709  -50.2653 C.3       23 UNK        -0.0205 
      9 C9          4.1690  -17.6881  -50.5694 C.ar      23 UNK        -0.0193 
     10 C10         3.4619  -17.9619  -51.7434 C.ar      23 UNK        -0.1150 
     11 C11         3.0479  -19.2618  -52.0409 C.ar      23 UNK        -0.0193 
     12 C12         3.3617  -20.3017  -51.1614 C.ar      23 UNK        -0.1150 
     13 C13         4.0919  -20.0498  -49.9943 C.ar      23 UNK        -0.0193 
     14 C14         4.4837  -18.7386  -49.7005 C.ar      23 UNK        -0.1150 
     15 C15         4.4903  -21.2053  -49.0797 C.3       23 UNK        -0.0205 
     16 S16         3.8991  -21.0192  -47.3647 S.3       23 UNK        -0.2404 
     17 C17         2.0940  -20.9807  -47.6016 C.3       23 UNK        -0.0398 
     18 CA          1.3769  -22.2891  -47.2014 C.3       11 UNK         0.1400 
     19 N           1.5911  -22.6641  -45.8013 N.am      11 UNK        -0.5000 
     20 C           1.2876  -23.8648  -45.2864 C.2       10 UNK         0.5000 
     21 O           0.8208  -24.7891  -45.9509 O.2       10 UNK        -0.5000 
     22 CA          1.4938  -24.0613  -43.7709 C.3       10 UNK         0.1400 
     23 CB          2.9274  -24.5291  -43.4814 C.3       10 UNK        -0.1800 
     24 N           1.2128  -22.8594  -42.9858 N.am      10 UNK        -0.5000 
     25 C           0.0320  -22.2273  -42.9438 C.2       9 UNK         0.5000 
     26 O          -0.9833  -22.6452  -43.4997 O.2       9 UNK        -0.5000 
     27 CA         -0.0150  -20.8734  -42.2090 C.3       9 UNK         0.1400 
     28 CB         -0.5533  -21.0517  -40.7822 C.3       9 UNK        -0.1800 
     29 N           1.2565  -20.1403  -42.1540 N.am      9 UNK        -0.5000 
     30 C           2.0081  -19.7950  -43.2098 C.2       8 UNK         0.5000 
     31 O           1.7987  -20.1842  -44.3600 O.2       8 UNK        -0.5000 
     32 CA          3.1349  -18.7952  -42.9264 C.3       8 UNK         0.1400 
     33 CB          4.0031  -18.5064  -44.1695 C.3       8 UNK        -0.1800 
     34 N           2.5453  -17.5542  -42.4232 N.am      8 UNK        -0.5000 
     35 C           3.2090  -16.6399  -41.7060 C.2       7 UNK         0.5000 
     36 O           4.3628  -16.8049  -41.3067 O.2       7 UNK        -0.5000 
     37 CA          2.5090  -15.3015  -41.4012 C.3       7 UNK         0.1400 
     38 CB          2.9998  -14.2171  -42.3742 C.3       7 UNK        -0.1800 
     39 N           1.0451  -15.3347  -41.4364 N.am      7 UNK        -0.5000 
     40 C           0.2816  -15.8123  -40.4428 C.2       6 UNK         0.5000 
     41 O           0.7302  -16.4406  -39.4836 O.2       6 UNK        -0.5000 
     42 CA         -1.2271  -15.5120  -40.5073 C.3       6 UNK         0.1400 
     43 CB         -1.5057  -14.0706  -40.0523 C.3       6 UNK        -0.1800 
     44 N          -1.7466  -15.6927  -41.8599 N.am      6 UNK        -0.5000 
     45 C          -2.5990  -16.6589  -42.2294 C.2       5 UNK         0.5000 
     46 O          -3.1590  -17.4208  -41.4403 O.2       5 UNK        -0.5000 
     47 CA         -2.8442  -16.8353  -43.7449 C.3       5 UNK         0.1400 
     48 CB         -4.1247  -16.1044  -44.1730 C.3       5 UNK        -0.1800 
     49 N          -1.7296  -16.3872  -44.5879 N.am      5 UNK        -0.5000 
     50 C          -0.4701  -16.8401  -44.4838 C.2       4 UNK         0.5000 
     51 O          -0.1429  -17.7319  -43.7091 O.2       4 UNK        -0.5000 
     52 CA          0.6324  -16.1448  -45.3040 C.3       4 UNK         0.1400 
     53 CB          0.9376  -16.9581  -46.5657 C.3       4 UNK        -0.1800 
     54 N           0.3207  -14.7692  -45.6847 N.am      4 UNK        -0.5000 
     55 C          -0.0355  -13.7710  -44.8628 C.2       3 UNK         0.5000 
     56 O          -0.0665  -13.8712  -43.6344 O.2       3 UNK        -0.5000 
     57 CA         -0.5077  -12.4713  -45.5417 C.3       3 UNK         0.1400 
     58 CB          0.6339  -11.4460  -45.5858 C.3       3 UNK        -0.1800 
     59 N          -1.0108  -12.6909  -46.9028 N.am      3 UNK        -0.5000 
     60 C          -2.0740  -13.4373  -47.2317 C.2       2 UNK         0.5000 
     61 O          -2.7915  -13.9995  -46.4042 O.2       2 UNK        -0.5000 
     62 CA         -2.3425  -13.6457  -48.7329 C.3       2 UNK         0.1400 
     63 CB         -2.5912  -12.3152  -49.4699 C.3       2 UNK        -0.1800 
     64 N          -1.3159  -14.4493  -49.4095 N.am      2 UNK        -0.5000 
     65 C          -0.0219  -14.1769  -49.6283 C.2       1 UNK         0.5000 
     66 O           0.5368  -13.1667  -49.1984 O.2       1 UNK        -0.5000 
     67 C          -0.1248  -22.1583  -47.5087 C.2       11 UNK         0.5000 
     68 O          -0.5821  -22.6599  -48.5342 O.2       11 UNK        -0.5000 
     69 N          -0.8671  -21.5069  -46.6016 N.am      12 UNK        -0.5000 
     70 CA         -2.3163  -21.3302  -46.6984 C.3       12 UNK         0.1400 
     71 CB         -2.7827  -20.3292  -45.6322 C.3       12 UNK        -0.1800 
     72 C          -3.0766  -22.6648  -46.5899 C.2       12 UNK         0.5000 
     73 O          -4.0513  -22.8664  -47.3154 O.2       12 UNK        -0.5000 
     74 N          -2.5859  -23.5637  -45.7242 N.am      13 UNK        -0.5000 
     75 CA         -3.0663  -24.9358  -45.5753 C.3       13 UNK         0.1400 
     76 CB         -2.4373  -25.5723  -44.3272 C.3       13 UNK        -0.1800 
     77 C          -2.7960  -25.7935  -46.8244 C.2       13 UNK         0.5000 
     78 O          -3.6982  -26.5024  -47.2687 O.2       13 UNK        -0.5000 
     79 N          -1.5871  -25.6868  -47.3976 N.am      14 UNK        -0.5000 
     80 CA         -1.1961  -26.3571  -48.6433 C.3       14 UNK         0.1400 
     81 CB          0.3114  -26.1797  -48.8783 C.3       14 UNK        -0.1800 
     82 C          -1.9991  -25.8668  -49.8634 C.2       14 UNK         0.5000 
     83 O          -2.3697  -26.6741  -50.7160 O.2       14 UNK        -0.5000 
     84 N          -2.2933  -24.5606  -49.8960 N.am      15 UNK        -0.5000 
     85 CA         -3.1786  -23.9140  -50.8659 C.3       15 UNK         0.1400 
     86 CB         -2.9306  -22.3979  -50.8111 C.3       15 UNK        -0.1800 
     87 C          -4.6752  -24.2175  -50.6363 C.2       15 UNK         0.5000 
     88 O          -5.4957  -23.8670  -51.4867 O.2       15 UNK        -0.5000 
     89 N          -5.0081  -24.8167  -49.4813 N.am      16 UNK        -0.5000 
     90 CA         -6.3480  -25.1492  -48.9854 C.3       16 UNK         0.1400 
     91 CB         -6.9463  -26.3061  -49.8110 C.3       16 UNK        -0.1800 
     92 C          -7.2829  -23.9240  -48.9109 C.2       16 UNK         0.5000 
     93 O          -8.4860  -24.0537  -49.1430 O.2       16 UNK        -0.5000 
     94 N          -6.6955  -22.7437  -48.6592 N.am      17 UNK        -0.5000 
     95 CA         -7.2563  -21.3867  -48.7307 C.3       17 UNK         0.1400 
     96 CB         -8.3657  -21.1901  -47.6816 C.3       17 UNK        -0.1800 
     97 C          -7.7366  -20.9434  -50.1332 C.2       17 UNK         0.5000 
     98 O          -7.6194  -19.7637  -50.4610 O.2       17 UNK        -0.5000 
     99 N          -8.2619  -21.8729  -50.9392 N.am      18 UNK        -0.5000 
    100 CA        -8.8218  -21.6483  -52.2705 C.3       18 UNK         0.1400 
    101 CB        -9.5007  -22.9413  -52.7472 C.3       18 UNK        -0.1800 
    102 C         -7.7942  -21.1663  -53.3101 C.2       18 UNK         0.5000 
    103 O         -8.1350  -20.3278  -54.1452 O.2       18 UNK        -0.5000 
    104 N         -6.5627  -21.6899  -53.2420 N.am      19 UNK        -0.5000 
    105 CA        -5.4719  -21.3566  -54.1633 C.3       19 UNK         0.1400 
    106 CB        -4.6859  -22.6374  -54.4948 C.3       19 UNK        -0.1800 
    107 C         -4.5485  -20.2445  -53.6235 C.2       19 UNK         0.5000 
    108 O         -3.4555  -20.0607  -54.1612 O.2       19 UNK        -0.5000 
    109 N         -4.9741  -19.5366  -52.5660 N.am      20 UNK        -0.5000 
    110 CA        -4.2434  -18.4201  -51.9635 C.3       20 UNK         0.1400 
    111 CB        -4.9027  -18.0453  -50.6270 C.3       20 UNK        -0.1800 
    112 C         -4.1394  -17.1928  -52.8945 C.2       20 UNK         0.5000 
    113 O         -4.8554  -17.0977  -53.8945 O.2       20 UNK        -0.5000 
    114 N         -3.2301  -16.2821  -52.5258 N.am      21 UNK        -0.5000 
    115 CA        -2.7232  -15.1434  -53.2990 C.3       21 UNK         0.1400 
    116 CB        -3.8436  -14.1639  -53.7058 C.3       21 UNK        -0.1800 
    117 C         -1.8392  -15.6090  -54.4759 C.2       21 UNK         0.5000 
    118 O         -1.8229  -14.9807  -55.5351 O.2       21 UNK        -0.5000 
    119 N         -1.1078  -16.7082  -54.2506 N.am      22 UNK        -0.5000 
    120 CA        -0.1779  -17.3499  -55.1931 C.3       22 UNK         0.1400 
    121 C          1.1860  -16.6200  -55.3875 C.2       22 UNK         0.5000 
    122 N          1.4779  -15.5397  -54.6732 N.am      22 UNK        -0.7600 
    123 O          1.9922  -17.0361  -56.2148 O.2       22 UNK        -0.5000 
    124 C124        0.0064  -18.8559  -54.8573 C.3       23 UNK        -0.0398 
    125 S125        0.5164  -19.1690  -53.1294 S.3       23 UNK        -0.2404 
    126 C126        2.2866  -19.5312  -53.3290 C.3       23 UNK        -0.0205 
    127 H127        0.7766  -19.1120  -49.6529 H         1 UNK         0.0600 
    128 H128       -0.6276  -18.9152  -48.5877 H         1 UNK         0.0600 
    129 H129       -0.8381  -19.4937  -50.2439 H         1 UNK         0.0600 
    130 H130        1.5132  -16.9733  -49.6870 H         1 UNK         0.3000 
    131 H131        0.2845  -15.1472  -51.4745 H         1 UNK         0.0600 
    132 H132        2.5899  -15.2341  -51.6580 H         1 UNK         0.0800 
    133 H133        2.3517  -13.7178  -50.8905 H         1 UNK         0.0800 
    134 H134        5.5419  -16.3100  -49.6545 H         1 UNK         0.0800 
    135 H135        4.9263  -15.7615  -51.1864 H         1 UNK         0.0800 
    136 H136        3.2360  -17.1692  -52.4409 H         1 UNK         0.1150 
    137 H137        3.0529  -21.3103  -51.3978 H         1 UNK         0.1150 
    138 H138        5.0485  -18.5403  -48.8003 H         1 UNK         0.1150 
    139 H139        4.1250  -22.1553  -49.4728 H         1 UNK         0.0800 
    140 H140        5.5783  -21.2795  -49.0669 H         1 UNK         0.0800 
    141 H141        1.7059  -20.1371  -47.0310 H         1 UNK         0.0800 
    142 H142        1.8840  -20.7600  -48.6466 H         1 UNK         0.0800 
    143 H143        1.7721  -23.0922  -47.8274 H         1 UNK         0.0600 
    144 H144        1.9091  -21.9197  -45.1869 H         1 UNK         0.3000 
    145 H145        0.8055  -24.8418  -43.4410 H         1 UNK         0.0600 
    146 H146        3.0646  -24.7509  -42.4229 H         1 UNK         0.0600 
    147 H147        3.1601  -25.4393  -44.0359 H         1 UNK         0.0600 
    148 H148        3.6620  -23.7745  -43.7657 H         1 UNK         0.0600 
    149 H149        1.9941  -22.4341  -42.5095 H         1 UNK         0.3000 
    150 H150       -0.7196  -20.2448  -42.7572 H         1 UNK         0.0600 
    151 H151       -1.5112  -21.5738  -40.7873 H         1 UNK         0.0600 
    152 H152       -0.7146  -20.0876  -40.2990 H         1 UNK         0.0600 
    153 H153        0.1337  -21.6297  -40.1630 H         1 UNK         0.0600 
    154 H154        1.5020  -19.7527  -41.2547 H         1 UNK         0.3000 
    155 H155        3.7678  -19.2387  -42.1550 H         1 UNK         0.0600 
    156 H156        4.8357  -17.8450  -43.9308 H         1 UNK         0.0600 
    157 H157        3.4226  -18.0391  -44.9656 H         1 UNK         0.0600 
    158 H158        4.4284  -19.4269  -44.5713 H         1 UNK         0.0600 
    159 H159        1.5735  -17.4003  -42.6755 H         1 UNK         0.3000 
    160 H160        2.8152  -15.0034  -40.3960 H         1 UNK         0.0600 
    161 H161        2.7433  -14.4539  -43.4068 H         1 UNK         0.0600 
    162 H162        4.0839  -14.1076  -42.3242 H         1 UNK         0.0600 
    163 H163        2.5653  -13.2460  -42.1361 H         1 UNK         0.0600 
    164 H164        0.6088  -14.8074  -42.1880 H         1 UNK         0.3000 
    165 H165       -1.7243  -16.1875  -39.8080 H         1 UNK         0.0600 
    166 H166       -1.0417  -13.3400  -40.7164 H         1 UNK         0.0600 
    167 H167       -2.5764  -13.8674  -40.0289 H         1 UNK         0.0600 
    168 H168       -1.1192  -13.8956  -39.0475 H         1 UNK         0.0600 
    169 H169       -1.3319  -15.1151  -42.5821 H         1 UNK         0.3000 
    170 H170       -2.9840  -17.9024  -43.9240 H         1 UNK         0.0600 
    171 H171       -4.9824  -16.4415  -43.5896 H         1 UNK         0.0600 
    172 H172       -4.0352  -15.0261  -44.0349 H         1 UNK         0.0600 
    173 H173       -4.3525  -16.2898  -45.2229 H         1 UNK         0.0600 
    174 H174       -1.9309  -15.6304  -45.2308 H         1 UNK         0.3000 
    175 H175        1.5328  -16.1176  -44.6893 H         1 UNK         0.0600 
    176 H176        0.0740  -16.9870  -47.2285 H         1 UNK         0.0600 
    177 H177        1.7793  -16.5388  -47.1159 H         1 UNK         0.0600 
    178 H178        1.1956  -17.9863  -46.3116 H         1 UNK         0.0600 
    179 H179        0.3173  -14.5701  -46.6740 H         1 UNK         0.3000 
    180 H180       -1.3220  -12.0622  -44.9405 H         1 UNK         0.0600 
    181 H181        1.4652  -11.7967  -46.1991 H         1 UNK         0.0600 
    182 H182        1.0224  -11.2495  -44.5855 H         1 UNK         0.0600 
    183 H183        0.2933  -10.4945  -45.9946 H         1 UNK         0.0600 
    184 H184       -0.4238  -12.3658  -47.6648 H         1 UNK         0.3000 
    185 H185       -3.2638  -14.2266  -48.8038 H         1 UNK         0.0600 
    186 H186       -1.7079  -11.6766  -49.4835 H         1 UNK         0.0600 
    187 H187       -2.8896  -12.4917  -50.5035 H         1 UNK         0.0600 
    188 H188       -3.3935  -11.7510  -48.9930 H         1 UNK         0.0600 
    189 H189       -1.6386  -15.3468  -49.7638 H         1 UNK         0.3000 
    190 H190       -0.4164  -21.1544  -45.7689 H         1 UNK         0.3000 
    191 H191       -2.5364  -20.9032  -47.6790 H         1 UNK         0.0600 
    192 H192       -3.8563  -20.1517  -45.7066 H         1 UNK         0.0600 
    193 H193       -2.2841  -19.3677  -45.7563 H         1 UNK         0.0600 
    194 H194       -2.5774  -20.6862  -44.6226 H         1 UNK         0.0600 
    195 H195       -1.8289  -23.2797  -45.1087 H         1 UNK         0.3000 
    196 H196       -4.1474  -24.8955  -45.4262 H         1 UNK         0.0600 
    197 H197       -2.8103  -26.5859  -44.1757 H         1 UNK         0.0600 
    198 H198       -2.6756  -24.9999  -43.4305 H         1 UNK         0.0600 
    199 H199       -1.3519  -25.6304  -44.4075 H         1 UNK         0.0600 
    200 H200       -0.8724  -25.1260  -46.9441 H         1 UNK         0.3000 
    201 H201       -1.3963  -27.4239  -48.5242 H         1 UNK         0.0600 
    202 H202        0.8904  -26.6107  -48.0614 H         1 UNK         0.0600 
    203 H203        0.5853  -25.1280  -48.9642 H         1 UNK         0.0600 
    204 H204        0.6256  -26.6775  -49.7965 H         1 UNK         0.0600 
    205 H205       -1.8709  -23.9526  -49.1997 H         1 UNK         0.3000 
    206 H206       -2.9206  -24.2720  -51.8643 H         1 UNK         0.0600 
    207 H207       -1.8974  -22.1555  -51.0612 H         1 UNK         0.0600 
    208 H208       -3.5671  -21.8689  -51.5170 H         1 UNK         0.0600 
    209 H209       -3.1397  -21.9919  -49.8216 H         1 UNK         0.0600 
    210 H210       -4.2559  -25.0448  -48.8444 H         1 UNK         0.3000 
    211 H211       -6.2212  -25.4986  -47.9601 H         1 UNK         0.0600 
    212 H212       -7.1499  -26.0050  -50.8392 H         1 UNK         0.0600 
    213 H213       -7.8852  -26.6535  -49.3784 H         1 UNK         0.0600 
    214 H214       -6.2684  -27.1593  -49.8393 H         1 UNK         0.0600 
    215 H215       -5.7039  -22.7785  -48.4385 H         1 UNK         0.3000 
    216 H216       -6.4336  -20.7209  -48.4654 H         1 UNK         0.0600 
    217 H217       -9.2378  -21.8108  -47.8885 H         1 UNK         0.0600 
    218 H218       -8.7026  -20.1529  -47.6628 H         1 UNK         0.0600 
    219 H219       -8.0089  -21.4342  -46.6810 H         1 UNK         0.0600 
    220 H220       -8.3518  -22.8100  -50.5585 H         1 UNK         0.3000 
    221 H221       -9.5868  -20.8744  -52.1802 H         1 UNK         0.0600 
    222 H222       -8.7891  -23.7654  -52.8162 H         1 UNK         0.0600 
    223 H223      -10.2967  -23.2429  -52.0661 H         1 UNK         0.0600 
    224 H224       -9.9489  -22.8088  -53.7328 H         1 UNK         0.0600 
    225 H225       -6.3536  -22.3816  -52.5269 H         1 UNK         0.3000 
    226 H226       -5.8872  -20.9847  -55.1020 H         1 UNK         0.0600 
    227 H227       -5.3488  -23.4299  -54.8422 H         1 UNK         0.0600 
    228 H228       -3.9574  -22.4561  -55.2859 H         1 UNK         0.0600 
    229 H229       -4.1394  -23.0121  -53.6310 H         1 UNK         0.0600 
    230 H230       -5.8961  -19.7249  -52.1974 H         1 UNK         0.3000 
    231 H231       -3.2292  -18.7691  -51.7571 H         1 UNK         0.0600 
    232 H232       -5.9154  -17.6679  -50.7726 H         1 UNK         0.0600 
    233 H233       -4.3363  -17.2705  -50.1092 H         1 UNK         0.0600 
    234 H234       -4.9542  -18.9045  -49.9580 H         1 UNK         0.0600 
    235 H235       -2.6924  -16.4932  -51.6849 H         1 UNK         0.3000 
    236 H236       -2.0589  -14.6026  -52.6236 H         1 UNK         0.0600 
    237 H237       -4.4591  -13.8909  -52.8487 H         1 UNK         0.0600 
    238 H238       -3.4235  -13.2423  -54.1101 H         1 UNK         0.0600 
    239 H239       -4.4968  -14.5827  -54.4713 H         1 UNK         0.0600 
    240 H240       -1.1821  -17.1624  -53.3519 H         1 UNK         0.3000 
    241 H241       -0.6526  -17.3090  -56.1751 H         1 UNK         0.0600 
    242 H242        0.8083  -15.1590  -54.0280 H         1 UNK         0.3800 
    243 H243        2.3565  -15.0709  -54.8272 H         1 UNK         0.3800 
    244 H244       -0.9433  -19.3700  -55.0093 H         1 UNK         0.0800 
    245 H245        0.7029  -19.3345  -55.5477 H         1 UNK         0.0800 
    246 H246        2.7065  -18.9178  -54.1273 H         1 UNK         0.0800 
    247 H247        2.4097  -20.5693  -53.6413 H         1 UNK         0.0800 
@<TRIPOS>BOND
     1    1    2 1    
     2    1  127 1    
     3    1  128 1    
     4    1  129 1    
     5    2    3 2    
     6    2    4 am   BACKBONE|DICT|INTERRES
     7    4    5 1    
     8    4  130 1    
     9    5    6 1    
    10    5   65 1    
    11    5  131 1    
    12    6    7 1    
    13    6  132 1    
    14    6  133 1    
    15    7    8 1    
    16    8    9 1    
    17    8  134 1    
    18    8  135 1    
    19    9   10 ar   
    20    9   14 ar   
    21   10   11 ar   
    22   10  136 1    
    23   11   12 ar   
    24   11  126 1    
    25   12   13 ar   
    26   12  137 1    
    27   13   14 ar   
    28   13   15 1    
    29   14  138 1    
    30   15   16 1    
    31   15  139 1    
    32   15  140 1    
    33   16   17 1    
    34   17   18 1    
    35   17  141 1    
    36   17  142 1    
    37   18   19 1    
    38   18   67 1    
    39   18  143 1    
    40   19   20 am   BACKBONE|DICT|INTERRES
    41   19  144 1    
    42   20   21 2    
    43   20   22 1    
    44   22   23 1    
    45   22   24 1    
    46   22  145 1    
    47   23  146 1    
    48   23  147 1    
    49   23  148 1    
    50   24   25 am   BACKBONE|DICT|INTERRES
    51   24  149 1    
    52   25   26 2    
    53   25   27 1    
    54   27   28 1    
    55   27   29 1    
    56   27  150 1    
    57   28  151 1    
    58   28  152 1    
    59   28  153 1    
    60   29   30 am   BACKBONE|DICT|INTERRES
    61   29  154 1    
    62   30   31 2    
    63   30   32 1    
    64   32   33 1    
    65   32   34 1    
    66   32  155 1    
    67   33  156 1    
    68   33  157 1    
    69   33  158 1    
    70   34   35 am   BACKBONE|DICT|INTERRES
    71   34  159 1    
    72   35   36 2    
    73   35   37 1    
    74   37   38 1    
    75   37   39 1    
    76   37  160 1    
    77   38  161 1    
    78   38  162 1    
    79   38  163 1    
    80   39   40 am   BACKBONE|DICT|INTERRES
    81   39  164 1    
    82   40   41 2    
    83   40   42 1    
    84   42   43 1    
    85   42   44 1    
    86   42  165 1    
    87   43  166 1    
    88   43  167 1    
    89   43  168 1    
    90   44   45 am   BACKBONE|DICT|INTERRES
    91   44  169 1    
    92   45   46 2    
    93   45   47 1    
    94   47   48 1    
    95   47   49 1    
    96   47  170 1    
    97   48  171 1    
    98   48  172 1    
    99   48  173 1    
   100   49   50 am   BACKBONE|DICT|INTERRES
   101   49  174 1    
   102   50   51 2    
   103   50   52 1    
   104   52   53 1    
   105   52   54 1    
   106   52  175 1    
   107   53  176 1    
   108   53  177 1    
   109   53  178 1    
   110   54   55 am   BACKBONE|DICT|INTERRES
   111   54  179 1    
   112   55   56 2    
   113   55   57 1    
   114   57   58 1    
   115   57   59 1    
   116   57  180 1    
   117   58  181 1    
   118   58  182 1    
   119   58  183 1    
   120   59   60 am   BACKBONE|DICT|INTERRES
   121   59  184 1    
   122   60   61 2    
   123   60   62 1    
   124   62   63 1    
   125   62   64 1    
   126   62  185 1    
   127   63  186 1    
   128   63  187 1    
   129   63  188 1    
   130   64   65 am   BACKBONE|DICT|INTERRES
   131   64  189 1    
   132   65   66 2    
   133   67   68 2    
   134   67   69 am   BACKBONE|DICT|INTERRES
   135   69   70 1    
   136   69  190 1    
   137   70   71 1    
   138   70   72 1    
   139   70  191 1    
   140   71  192 1    
   141   71  193 1    
   142   71  194 1    
   143   72   73 2    
   144   72   74 am   BACKBONE|DICT|INTERRES
   145   74   75 1    
   146   74  195 1    
   147   75   76 1    
   148   75   77 1    
   149   75  196 1    
   150   76  197 1    
   151   76  198 1    
   152   76  199 1    
   153   77   78 2    
   154   77   79 am   BACKBONE|DICT|INTERRES
   155   79   80 1    
   156   79  200 1    
   157   80   81 1    
   158   80   82 1    
   159   80  201 1    
   160   81  202 1    
   161   81  203 1    
   162   81  204 1    
   163   82   83 2    
   164   82   84 am   BACKBONE|DICT|INTERRES
   165   84   85 1    
   166   84  205 1    
   167   85   86 1    
   168   85   87 1    
   169   85  206 1    
   170   86  207 1    
   171   86  208 1    
   172   86  209 1    
   173   87   88 2    
   174   87   89 am   BACKBONE|DICT|INTERRES
   175   89   90 1    
   176   89  210 1    
   177   90   91 1    
   178   90   92 1    
   179   90  211 1    
   180   91  212 1    
   181   91  213 1    
   182   91  214 1    
   183   92   93 2    
   184   92   94 am   BACKBONE|DICT|INTERRES
   185   94   95 1    
   186   94  215 1    
   187   95   96 1    
   188   95   97 1    
   189   95  216 1    
   190   96  217 1    
   191   96  218 1    
   192   96  219 1    
   193   97   98 2    
   194   97   99 am   BACKBONE|DICT|INTERRES
   195   99  100 1    
   196   99  220 1    
   197  100  101 1    
   198  100  102 1    
   199  100  221 1    
   200  101  222 1    
   201  101  223 1    
   202  101  224 1    
   203  102  103 2    
   204  102  104 am   BACKBONE|DICT|INTERRES
   205  104  105 1    
   206  104  225 1    
   207  105  106 1    
   208  105  107 1    
   209  105  226 1    
   210  106  227 1    
   211  106  228 1    
   212  106  229 1    
   213  107  108 2    
   214  107  109 am   BACKBONE|DICT|INTERRES
   215  109  110 1    
   216  109  230 1    
   217  110  111 1    
   218  110  112 1    
   219  110  231 1    
   220  111  232 1    
   221  111  233 1    
   222  111  234 1    
   223  112  113 2    
   224  112  114 am   BACKBONE|DICT|INTERRES
   225  114  115 1    
   226  114  235 1    
   227  115  116 1    
   228  115  117 1    
   229  115  236 1    
   230  116  237 1    
   231  116  238 1    
   232  116  239 1    
   233  117  118 2    
   234  117  119 am   BACKBONE|DICT|INTERRES
   235  119  120 1    
   236  119  240 1    
   237  120  121 1    
   238  120  124 1    
   239  120  241 1    
   240  121  122 am   BACKBONE|DICT|INTERRES
   241  121  123 2    
   242  122  242 1    
   243  122  243 1    
   244  124  125 1    
   245  124  244 1    
   246  124  245 1    
   247  125  126 1    
   248  126  246 1    
   249  126  247 1    
@<TRIPOS>SUBSTRUCTURE
     1 UNK         1 GROUP             0       ****    0 ROOT    
