@<TRIPOS>MOLECULE
3R540
247   249    1
SMALL
USER_CHARGES


@<TRIPOS>ATOM
      1 CA          0.3429  -14.4361  -52.6338 C.3       0 UNK        -0.1800 
      2 C           1.0050  -13.7267  -51.4598 C.2       0 UNK         0.5000 
      3 O           2.0895  -13.1651  -51.6134 O.2       0 UNK        -0.5000 
      4 N           0.3589  -13.7509  -50.2917 N.am      1 UNK        -0.5000 
      5 CA          0.8069  -13.1266  -49.0480 C.3       1 UNK         0.1400 
      6 C6          2.0001  -13.8666  -48.3773 C.3       23 UNK        -0.0398 
      7 S7          1.6820  -15.6249  -47.9798 S.3       23 UNK        -0.2404 
      8 C8          2.6835  -16.4598  -49.2494 C.3       23 UNK        -0.0205 
      9 C9          2.0192  -17.7365  -49.7362 C.ar      23 UNK        -0.0193 
     10 C10         0.9128  -17.6586  -50.5838 C.ar      23 UNK        -0.1150 
     11 C11         0.3191  -18.8147  -51.0934 C.ar      23 UNK        -0.0193 
     12 C12         0.8284  -20.0650  -50.7281 C.ar      23 UNK        -0.1150 
     13 C13         1.9319  -20.1595  -49.8703 C.ar      23 UNK        -0.0193 
     14 C14         2.5253  -18.9895  -49.3821 C.ar      23 UNK        -0.1150 
     15 C15         2.4957  -21.5260  -49.4913 C.3       23 UNK        -0.0205 
     16 S16         2.5983  -21.7801  -47.6868 S.3       23 UNK        -0.2404 
     17 C17         0.8686  -21.4947  -47.1950 C.3       23 UNK        -0.0398 
     18 CA          0.3285  -22.5546  -46.2067 C.3       11 UNK         0.1400 
     19 N           1.0287  -22.5065  -44.9245 N.am      11 UNK        -0.5000 
     20 C           1.3349  -23.5537  -44.1519 C.2       10 UNK         0.5000 
     21 O           1.0468  -24.7176  -44.4357 O.2       10 UNK        -0.5000 
     22 CA          2.0701  -23.2291  -42.8319 C.3       10 UNK         0.1400 
     23 CB          2.8613  -24.4259  -42.2647 C.3       10 UNK        -0.1800 
     24 N           2.9098  -22.0281  -42.9249 N.am      10 UNK        -0.5000 
     25 C           3.9982  -21.8410  -43.6887 C.2       9 UNK         0.5000 
     26 O           4.5144  -22.7238  -44.3746 O.2       9 UNK        -0.5000 
     27 CA          4.6115  -20.4239  -43.7127 C.3       9 UNK         0.1400 
     28 CB          4.3777  -19.7640  -45.0814 C.3       9 UNK        -0.1800 
     29 N           4.0864  -19.5360  -42.6733 N.am      9 UNK        -0.5000 
     30 C           4.4104  -19.5898  -41.3747 C.2       8 UNK         0.5000 
     31 O           5.2454  -20.3663  -40.9097 O.2       8 UNK        -0.5000 
     32 CA          3.6401  -18.6439  -40.4318 C.3       8 UNK         0.1400 
     33 CB          4.3105  -17.2631  -40.3749 C.3       8 UNK        -0.1800 
     34 N           2.2294  -18.4903  -40.8009 N.am      8 UNK        -0.5000 
     35 C           1.3288  -19.4840  -40.7852 C.2       7 UNK         0.5000 
     36 O           1.5857  -20.6335  -40.4280 O.2       7 UNK        -0.5000 
     37 CA         -0.0808  -19.1611  -41.3087 C.3       7 UNK         0.1400 
     38 CB         -0.9180  -18.4431  -40.2406 C.3       7 UNK        -0.1800 
     39 N          -0.0554  -18.3717  -42.5409 N.am      7 UNK        -0.5000 
     40 C           0.4260  -18.8128  -43.7116 C.2       6 UNK         0.5000 
     41 O           0.8308  -19.9602  -43.8865 O.2       6 UNK        -0.5000 
     42 CA          0.5056  -17.8059  -44.8718 C.3       6 UNK         0.1400 
     43 CB         -0.8410  -17.7073  -45.6025 C.3       6 UNK        -0.1800 
     44 N           0.9342  -16.4810  -44.4283 N.am      6 UNK        -0.5000 
     45 C           2.1292  -16.2140  -43.8832 C.2       5 UNK         0.5000 
     46 O           3.0189  -17.0515  -43.7398 O.2       5 UNK        -0.5000 
     47 CA          2.3409  -14.7895  -43.3457 C.3       5 UNK         0.1400 
     48 CB          2.7084  -13.8154  -44.4740 C.3       5 UNK        -0.1800 
     49 N           1.1604  -14.3003  -42.6347 N.am      5 UNK        -0.5000 
     50 C           0.7477  -14.7652  -41.4476 C.2       4 UNK         0.5000 
     51 O           1.3467  -15.6287  -40.8065 O.2       4 UNK        -0.5000 
     52 CA         -0.5758  -14.1939  -40.9055 C.3       4 UNK         0.1400 
     53 CB         -0.3333  -12.8630  -40.1782 C.3       4 UNK        -0.1800 
     54 N          -1.5772  -13.9974  -41.9557 N.am      4 UNK        -0.5000 
     55 C          -2.1721  -14.9942  -42.6262 C.2       3 UNK         0.5000 
     56 O          -1.9617  -16.1856  -42.4053 O.2       3 UNK        -0.5000 
     57 CA         -3.1248  -14.5931  -43.7690 C.3       3 UNK         0.1400 
     58 CB         -4.5378  -14.3320  -43.2269 C.3       3 UNK        -0.1800 
     59 N          -2.6736  -13.4272  -44.5371 N.am      3 UNK        -0.5000 
     60 C          -1.5095  -13.3553  -45.1958 C.2       2 UNK         0.5000 
     61 O          -0.6601  -14.2474  -45.1714 O.2       2 UNK        -0.5000 
     62 CA         -1.2253  -12.0463  -45.9568 C.3       2 UNK         0.1400 
     63 CB         -0.7098  -10.9736  -44.9841 C.3       2 UNK        -0.1800 
     64 N          -0.2322  -12.2267  -47.0180 N.am      2 UNK        -0.5000 
     65 C          -0.4121  -12.9716  -48.1169 C.2       1 UNK         0.5000 
     66 O          -1.4852  -13.5087  -48.4124 O.2       1 UNK        -0.5000 
     67 C          -1.1822  -22.3205  -46.0364 C.2       11 UNK         0.5000 
     68 O          -1.9205  -22.6283  -46.9690 O.2       11 UNK        -0.5000 
     69 N          -1.6153  -21.7461  -44.9016 N.am      12 UNK        -0.5000 
     70 CA         -2.9565  -21.1930  -44.6571 C.3       12 UNK         0.1400 
     71 CB         -3.0788  -20.7754  -43.1847 C.3       12 UNK        -0.1800 
     72 C          -4.1475  -22.0813  -45.0666 C.2       12 UNK         0.5000 
     73 O          -5.1193  -21.5675  -45.6204 O.2       12 UNK        -0.5000 
     74 N          -4.0348  -23.3946  -44.8285 N.am      13 UNK        -0.5000 
     75 CA         -5.0431  -24.3933  -45.1938 C.3       13 UNK         0.1400 
     76 CB         -4.6686  -25.7385  -44.5535 C.3       13 UNK        -0.1800 
     77 C          -5.2356  -24.5562  -46.7160 C.2       13 UNK         0.5000 
     78 O          -6.3415  -24.8762  -47.1528 O.2       13 UNK        -0.5000 
     79 N          -4.1670  -24.3284  -47.4899 N.am      14 UNK        -0.5000 
     80 CA         -4.1715  -24.3556  -48.9504 C.3       14 UNK         0.1400 
     81 CB         -2.8344  -24.9259  -49.4497 C.3       14 UNK        -0.1800 
     82 C          -4.4055  -22.9483  -49.5189 C.2       14 UNK         0.5000 
     83 O          -5.1902  -22.7926  -50.4547 O.2       14 UNK        -0.5000 
     84 N          -3.7422  -21.9401  -48.9341 N.am      15 UNK        -0.5000 
     85 CA         -3.7938  -20.5309  -49.3333 C.3       15 UNK         0.1400 
     86 CB         -2.7570  -19.7291  -48.5345 C.3       15 UNK        -0.1800 
     87 C          -5.1936  -19.8980  -49.2176 C.2       15 UNK         0.5000 
     88 O          -5.4858  -18.9578  -49.9556 O.2       15 UNK        -0.5000 
     89 N          -6.0628  -20.4674  -48.3699 N.am      16 UNK        -0.5000 
     90 CA         -7.4974  -20.1686  -48.3020 C.3       16 UNK         0.1400 
     91 CB         -8.1183  -20.9686  -47.1469 C.3       16 UNK        -0.1800 
     92 C          -8.2572  -20.4510  -49.6187 C.2       16 UNK         0.5000 
     93 O          -9.2754  -19.8089  -49.8772 O.2       16 UNK        -0.5000 
     94 N          -7.7344  -21.3770  -50.4340 N.am      17 UNK        -0.5000 
     95 CA         -8.1943  -21.6995  -51.7856 C.3       17 UNK         0.1400 
     96 CB         -8.4794  -23.2102  -51.8543 C.3       17 UNK        -0.1800 
     97 C          -7.1511  -21.2668  -52.8400 C.2       17 UNK         0.5000 
     98 O          -7.1392  -21.8071  -53.9473 O.2       17 UNK        -0.5000 
     99 N          -6.2681  -20.3243  -52.4695 N.am      18 UNK        -0.5000 
    100 CA        -5.1543  -19.7674  -53.2472 C.3       18 UNK         0.1400 
    101 CB        -5.6791  -19.0087  -54.4823 C.3       18 UNK        -0.1800 
    102 C         -4.0594  -20.7915  -53.6152 C.2       18 UNK         0.5000 
    103 O         -3.2607  -20.5272  -54.5145 O.2       18 UNK        -0.5000 
    104 N         -4.0427  -21.9535  -52.9447 N.am      19 UNK        -0.5000 
    105 CA        -3.1192  -23.0829  -53.1225 C.3       19 UNK         0.1400 
    106 CB        -1.7223  -22.7025  -52.5902 C.3       19 UNK        -0.1800 
    107 C         -3.0653  -23.6571  -54.5580 C.2       19 UNK         0.5000 
    108 O         -2.1158  -24.3662  -54.8935 O.2       19 UNK        -0.5000 
    109 N         -4.0713  -23.3180  -55.3808 N.am      20 UNK        -0.5000 
    110 CA        -4.1619  -23.5401  -56.8274 C.3       20 UNK         0.1400 
    111 CB        -4.3533  -25.0403  -57.1331 C.3       20 UNK        -0.1800 
    112 C         -2.9939  -22.9071  -57.6231 C.2       20 UNK         0.5000 
    113 O         -2.6369  -23.4202  -58.6858 O.2       20 UNK        -0.5000 
    114 N         -2.4106  -21.8168  -57.1008 N.am      21 UNK        -0.5000 
    115 CA        -1.2091  -21.1853  -57.6531 C.3       21 UNK         0.1400 
    116 CB         0.0380  -21.8131  -57.0069 C.3       21 UNK        -0.1800 
    117 C         -1.1920  -19.6577  -57.4830 C.2       21 UNK         0.5000 
    118 O         -0.6646  -18.9663  -58.3556 O.2       21 UNK        -0.5000 
    119 N         -1.7530  -19.1506  -56.3793 N.am      22 UNK        -0.5000 
    120 CA        -1.7668  -17.7218  -56.0225 C.3       22 UNK         0.1400 
    121 C         -2.9219  -16.9085  -56.6781 C.2       22 UNK         0.5000 
    122 N         -3.8174  -17.5177  -57.4459 N.am      22 UNK        -0.7600 
    123 O         -3.0012  -15.6966  -56.4974 O.2       22 UNK        -0.5000 
    124 C124       -1.7333  -17.5197  -54.4841 C.3       23 UNK        -0.0398 
    125 S125       -0.2444  -18.2499  -53.7215 S.3       23 UNK        -0.2404 
    126 C126       -0.8476  -18.6893  -52.0613 C.3       23 UNK        -0.0205 
    127 H127       -0.6121  -14.8810  -52.3527 H         1 UNK         0.0600 
    128 H128        0.1640  -13.7328  -53.4469 H         1 UNK         0.0600 
    129 H129        0.9897  -15.2312  -53.0053 H         1 UNK         0.0600 
    130 H130       -0.5522  -14.1856  -50.2070 H         1 UNK         0.3000 
    131 H131        1.1317  -12.1127  -49.2912 H         1 UNK         0.0600 
    132 H132        2.2916  -13.3593  -47.4583 H         1 UNK         0.0800 
    133 H133        2.8793  -13.7918  -49.0175 H         1 UNK         0.0800 
    134 H134        3.6749  -16.6651  -48.8431 H         1 UNK         0.0800 
    135 H135        2.8335  -15.8052  -50.1086 H         1 UNK         0.0800 
    136 H136        0.5251  -16.6912  -50.8656 H         1 UNK         0.1150 
    137 H137        0.3750  -20.9624  -51.1244 H         1 UNK         0.1150 
    138 H138        3.3845  -19.0575  -48.7296 H         1 UNK         0.1150 
    139 H139        1.8944  -22.3272  -49.9241 H         1 UNK         0.0800 
    140 H140        3.4942  -21.6257  -49.9184 H         1 UNK         0.0800 
    141 H141        0.2570  -21.4834  -48.0991 H         1 UNK         0.0800 
    142 H142        0.7986  -20.4916  -46.7705 H         1 UNK         0.0800 
    143 H143        0.4541  -23.5413  -46.6576 H         1 UNK         0.0600 
    144 H144        1.2554  -21.5756  -44.5803 H         1 UNK         0.3000 
    145 H145        1.2888  -22.9864  -42.1105 H         1 UNK         0.0600 
    146 H146        3.3691  -24.1583  -41.3380 H         1 UNK         0.0600 
    147 H147        2.1969  -25.2610  -42.0398 H         1 UNK         0.0600 
    148 H148        3.6117  -24.7884  -42.9674 H         1 UNK         0.0600 
    149 H149        2.5722  -21.2315  -42.4000 H         1 UNK         0.3000 
    150 H150        5.6880  -20.5306  -43.5652 H         1 UNK         0.0600 
    151 H151        4.8022  -20.3662  -45.8856 H         1 UNK         0.0600 
    152 H152        4.8447  -18.7803  -45.1321 H         1 UNK         0.0600 
    153 H153        3.3146  -19.6409  -45.2908 H         1 UNK         0.0600 
    154 H154        3.4489  -18.8078  -42.9831 H         1 UNK         0.3000 
    155 H155        3.6748  -19.0776  -39.4302 H         1 UNK         0.0600 
    156 H156        4.2915  -16.7651  -41.3443 H         1 UNK         0.0600 
    157 H157        5.3541  -17.3480  -40.0697 H         1 UNK         0.0600 
    158 H158        3.8127  -16.6127  -39.6555 H         1 UNK         0.0600 
    159 H159        1.9285  -17.5593  -41.0709 H         1 UNK         0.3000 
    160 H160       -0.5665  -20.1133  -41.5290 H         1 UNK         0.0600 
    161 H161       -1.9458  -18.3038  -40.5762 H         1 UNK         0.0600 
    162 H162       -0.5096  -17.4622  -39.9983 H         1 UNK         0.0600 
    163 H163       -0.9536  -19.0221  -39.3171 H         1 UNK         0.0600 
    164 H164       -0.4491  -17.4370  -42.4916 H         1 UNK         0.3000 
    165 H165        1.2495  -18.1720  -45.5824 H         1 UNK         0.0600 
    166 H166       -0.7813  -17.0205  -46.4473 H         1 UNK         0.0600 
    167 H167       -1.1420  -18.6793  -45.9942 H         1 UNK         0.0600 
    168 H168       -1.6341  -17.3571  -44.9418 H         1 UNK         0.0600 
    169 H169        0.2800  -15.7140  -44.5685 H         1 UNK         0.3000 
    170 H170        3.1760  -14.8201  -42.6426 H         1 UNK         0.0600 
    171 H171        3.5796  -14.1688  -45.0270 H         1 UNK         0.0600 
    172 H172        1.8926  -13.7011  -45.1858 H         1 UNK         0.0600 
    173 H173        2.9495  -12.8282  -44.0797 H         1 UNK         0.0600 
    174 H174        0.5732  -13.6460  -43.1296 H         1 UNK         0.3000 
    175 H175       -0.9754  -14.9089  -40.1832 H         1 UNK         0.0600 
    176 H176       -1.2511  -12.4894  -39.7238 H         1 UNK         0.0600 
    177 H177        0.3984  -12.9838  -39.3782 H         1 UNK         0.0600 
    178 H178        0.0436  -12.0951  -40.8550 H         1 UNK         0.0600 
    179 H179       -1.8064  -13.0458  -42.2011 H         1 UNK         0.3000 
    180 H180       -3.1778  -15.4376  -44.4591 H         1 UNK         0.0600 
    181 H181       -4.5607  -13.4706  -42.5583 H         1 UNK         0.0600 
    182 H182       -4.9060  -15.1926  -42.6666 H         1 UNK         0.0600 
    183 H183       -5.2437  -14.1481  -44.0370 H         1 UNK         0.0600 
    184 H184       -3.3141  -12.6480  -44.5873 H         1 UNK         0.3000 
    185 H185       -2.1553  -11.6987  -46.4114 H         1 UNK         0.0600 
    186 H186        0.2237  -11.2768  -44.5077 H         1 UNK         0.0600 
    187 H187       -0.5321  -10.0284  -45.4976 H         1 UNK         0.0600 
    188 H188       -1.4337  -10.7775  -44.1921 H         1 UNK         0.0600 
    189 H189        0.6748  -11.8207  -46.8449 H         1 UNK         0.3000 
    190 H190       -0.9156  -21.5275  -44.2061 H         1 UNK         0.3000 
    191 H191       -3.0324  -20.2837  -45.2537 H         1 UNK         0.0600 
    192 H192       -2.4227  -19.9354  -42.9636 H         1 UNK         0.0600 
    193 H193       -2.8280  -21.5938  -42.5091 H         1 UNK         0.0600 
    194 H194       -4.0934  -20.4517  -42.9478 H         1 UNK         0.0600 
    195 H195       -3.1921  -23.7337  -44.3884 H         1 UNK         0.3000 
    196 H196       -5.9995  -24.0714  -44.7764 H         1 UNK         0.0600 
    197 H197       -5.4128  -26.5019  -44.7842 H         1 UNK         0.0600 
    198 H198       -4.6142  -25.6575  -43.4677 H         1 UNK         0.0600 
    199 H199       -3.7045  -26.1004  -44.9130 H         1 UNK         0.0600 
    200 H200       -3.3138  -23.9954  -47.0536 H         1 UNK         0.3000 
    201 H201       -4.9721  -25.0051  -49.3107 H         1 UNK         0.0600 
    202 H202       -2.6590  -25.9231  -49.0461 H         1 UNK         0.0600 
    203 H203       -1.9897  -24.2979  -49.1638 H         1 UNK         0.0600 
    204 H204       -2.8257  -25.0125  -50.5359 H         1 UNK         0.0600 
    205 H205       -3.1023  -22.1675  -48.1749 H         1 UNK         0.3000 
    206 H206       -3.5085  -20.4850  -50.3859 H         1 UNK         0.0600 
    207 H207       -1.7530  -20.1291  -48.6749 H         1 UNK         0.0600 
    208 H208       -2.7359  -18.6865  -48.8548 H         1 UNK         0.0600 
    209 H209       -2.9802  -19.7401  -47.4692 H         1 UNK         0.0600 
    210 H210       -5.7242  -21.1912  -47.7476 H         1 UNK         0.3000 
    211 H211       -7.6064  -19.1047  -48.0828 H         1 UNK         0.0600 
    212 H212       -7.9782  -22.0422  -47.2811 H         1 UNK         0.0600 
    213 H213       -9.1904  -20.7823  -47.0707 H         1 UNK         0.0600 
    214 H214       -7.6738  -20.6897  -46.1915 H         1 UNK         0.0600 
    215 H215       -6.8799  -21.8489  -50.1535 H         1 UNK         0.3000 
    216 H216       -9.1181  -21.1653  -52.0149 H         1 UNK         0.0600 
    217 H217       -8.8862  -23.4920  -52.8262 H         1 UNK         0.0600 
    218 H218       -9.2094  -23.5070  -51.1011 H         1 UNK         0.0600 
    219 H219       -7.5740  -23.7966  -51.6923 H         1 UNK         0.0600 
    220 H220       -6.3549  -19.9413  -51.5346 H         1 UNK         0.3000 
    221 H221       -4.6690  -19.0379  -52.5980 H         1 UNK         0.0600 
    222 H222       -6.0940  -19.6848  -55.2302 H         1 UNK         0.0600 
    223 H223       -6.4550  -18.2945  -54.2071 H         1 UNK         0.0600 
    224 H224       -4.8812  -18.4444  -54.9627 H         1 UNK         0.0600 
    225 H225       -4.7379  -22.0940  -52.2179 H         1 UNK         0.3000 
    226 H226       -3.5079  -23.8886  -52.5001 H         1 UNK         0.0600 
    227 H227       -1.7801  -22.3241  -51.5695 H         1 UNK         0.0600 
    228 H228       -1.2510  -21.9370  -53.2077 H         1 UNK         0.0600 
    229 H229       -1.0570  -23.5664  -52.5753 H         1 UNK         0.0600 
    230 H230       -4.8048  -22.7436  -54.9872 H         1 UNK         0.3000 
    231 H231       -5.0628  -23.0202  -57.1560 H         1 UNK         0.0600 
    232 H232       -5.1856  -25.4552  -56.5646 H         1 UNK         0.0600 
    233 H233       -3.4612  -25.6193  -56.8932 H         1 UNK         0.0600 
    234 H234       -4.5729  -25.2008  -58.1892 H         1 UNK         0.0600 
    235 H235       -2.7644  -21.4463  -56.2251 H         1 UNK         0.3000 
    236 H236       -1.1648  -21.3689  -58.7287 H         1 UNK         0.0600 
    237 H237        0.9518  -21.3581  -57.3912 H         1 UNK         0.0600 
    238 H238        0.0340  -21.6831  -55.9237 H         1 UNK         0.0600 
    239 H239        0.0945  -22.8818  -57.2143 H         1 UNK         0.0600 
    240 H240       -2.1867  -19.7640  -55.6936 H         1 UNK         0.3000 
    241 H241       -0.8523  -17.2726  -56.4148 H         1 UNK         0.0600 
    242 H242       -4.5556  -16.9800  -57.8721 H         1 UNK         0.3800 
    243 H243       -3.7553  -18.5087  -57.6126 H         1 UNK         0.3800 
    244 H244       -1.7379  -16.4575  -54.2340 H         1 UNK         0.0800 
    245 H245       -2.6252  -17.9456  -54.0247 H         1 UNK         0.0800 
    246 H246       -1.4150  -19.6193  -52.1132 H         1 UNK         0.0800 
    247 H247       -1.5344  -17.9220  -51.7005 H         1 UNK         0.0800 
@<TRIPOS>BOND
     1    1    2 1    
     2    1  127 1    
     3    1  128 1    
     4    1  129 1    
     5    2    3 2    
     6    2    4 am   BACKBONE|DICT|INTERRES
     7    4    5 1    
     8    4  130 1    
     9    5    6 1    
    10    5   65 1    
    11    5  131 1    
    12    6    7 1    
    13    6  132 1    
    14    6  133 1    
    15    7    8 1    
    16    8    9 1    
    17    8  134 1    
    18    8  135 1    
    19    9   10 ar   
    20    9   14 ar   
    21   10   11 ar   
    22   10  136 1    
    23   11   12 ar   
    24   11  126 1    
    25   12   13 ar   
    26   12  137 1    
    27   13   14 ar   
    28   13   15 1    
    29   14  138 1    
    30   15   16 1    
    31   15  139 1    
    32   15  140 1    
    33   16   17 1    
    34   17   18 1    
    35   17  141 1    
    36   17  142 1    
    37   18   19 1    
    38   18   67 1    
    39   18  143 1    
    40   19   20 am   BACKBONE|DICT|INTERRES
    41   19  144 1    
    42   20   21 2    
    43   20   22 1    
    44   22   23 1    
    45   22   24 1    
    46   22  145 1    
    47   23  146 1    
    48   23  147 1    
    49   23  148 1    
    50   24   25 am   BACKBONE|DICT|INTERRES
    51   24  149 1    
    52   25   26 2    
    53   25   27 1    
    54   27   28 1    
    55   27   29 1    
    56   27  150 1    
    57   28  151 1    
    58   28  152 1    
    59   28  153 1    
    60   29   30 am   BACKBONE|DICT|INTERRES
    61   29  154 1    
    62   30   31 2    
    63   30   32 1    
    64   32   33 1    
    65   32   34 1    
    66   32  155 1    
    67   33  156 1    
    68   33  157 1    
    69   33  158 1    
    70   34   35 am   BACKBONE|DICT|INTERRES
    71   34  159 1    
    72   35   36 2    
    73   35   37 1    
    74   37   38 1    
    75   37   39 1    
    76   37  160 1    
    77   38  161 1    
    78   38  162 1    
    79   38  163 1    
    80   39   40 am   BACKBONE|DICT|INTERRES
    81   39  164 1    
    82   40   41 2    
    83   40   42 1    
    84   42   43 1    
    85   42   44 1    
    86   42  165 1    
    87   43  166 1    
    88   43  167 1    
    89   43  168 1    
    90   44   45 am   BACKBONE|DICT|INTERRES
    91   44  169 1    
    92   45   46 2    
    93   45   47 1    
    94   47   48 1    
    95   47   49 1    
    96   47  170 1    
    97   48  171 1    
    98   48  172 1    
    99   48  173 1    
   100   49   50 am   BACKBONE|DICT|INTERRES
   101   49  174 1    
   102   50   51 2    
   103   50   52 1    
   104   52   53 1    
   105   52   54 1    
   106   52  175 1    
   107   53  176 1    
   108   53  177 1    
   109   53  178 1    
   110   54   55 am   BACKBONE|DICT|INTERRES
   111   54  179 1    
   112   55   56 2    
   113   55   57 1    
   114   57   58 1    
   115   57   59 1    
   116   57  180 1    
   117   58  181 1    
   118   58  182 1    
   119   58  183 1    
   120   59   60 am   BACKBONE|DICT|INTERRES
   121   59  184 1    
   122   60   61 2    
   123   60   62 1    
   124   62   63 1    
   125   62   64 1    
   126   62  185 1    
   127   63  186 1    
   128   63  187 1    
   129   63  188 1    
   130   64   65 am   BACKBONE|DICT|INTERRES
   131   64  189 1    
   132   65   66 2    
   133   67   68 2    
   134   67   69 am   BACKBONE|DICT|INTERRES
   135   69   70 1    
   136   69  190 1    
   137   70   71 1    
   138   70   72 1    
   139   70  191 1    
   140   71  192 1    
   141   71  193 1    
   142   71  194 1    
   143   72   73 2    
   144   72   74 am   BACKBONE|DICT|INTERRES
   145   74   75 1    
   146   74  195 1    
   147   75   76 1    
   148   75   77 1    
   149   75  196 1    
   150   76  197 1    
   151   76  198 1    
   152   76  199 1    
   153   77   78 2    
   154   77   79 am   BACKBONE|DICT|INTERRES
   155   79   80 1    
   156   79  200 1    
   157   80   81 1    
   158   80   82 1    
   159   80  201 1    
   160   81  202 1    
   161   81  203 1    
   162   81  204 1    
   163   82   83 2    
   164   82   84 am   BACKBONE|DICT|INTERRES
   165   84   85 1    
   166   84  205 1    
   167   85   86 1    
   168   85   87 1    
   169   85  206 1    
   170   86  207 1    
   171   86  208 1    
   172   86  209 1    
   173   87   88 2    
   174   87   89 am   BACKBONE|DICT|INTERRES
   175   89   90 1    
   176   89  210 1    
   177   90   91 1    
   178   90   92 1    
   179   90  211 1    
   180   91  212 1    
   181   91  213 1    
   182   91  214 1    
   183   92   93 2    
   184   92   94 am   BACKBONE|DICT|INTERRES
   185   94   95 1    
   186   94  215 1    
   187   95   96 1    
   188   95   97 1    
   189   95  216 1    
   190   96  217 1    
   191   96  218 1    
   192   96  219 1    
   193   97   98 2    
   194   97   99 am   BACKBONE|DICT|INTERRES
   195   99  100 1    
   196   99  220 1    
   197  100  101 1    
   198  100  102 1    
   199  100  221 1    
   200  101  222 1    
   201  101  223 1    
   202  101  224 1    
   203  102  103 2    
   204  102  104 am   BACKBONE|DICT|INTERRES
   205  104  105 1    
   206  104  225 1    
   207  105  106 1    
   208  105  107 1    
   209  105  226 1    
   210  106  227 1    
   211  106  228 1    
   212  106  229 1    
   213  107  108 2    
   214  107  109 am   BACKBONE|DICT|INTERRES
   215  109  110 1    
   216  109  230 1    
   217  110  111 1    
   218  110  112 1    
   219  110  231 1    
   220  111  232 1    
   221  111  233 1    
   222  111  234 1    
   223  112  113 2    
   224  112  114 am   BACKBONE|DICT|INTERRES
   225  114  115 1    
   226  114  235 1    
   227  115  116 1    
   228  115  117 1    
   229  115  236 1    
   230  116  237 1    
   231  116  238 1    
   232  116  239 1    
   233  117  118 2    
   234  117  119 am   BACKBONE|DICT|INTERRES
   235  119  120 1    
   236  119  240 1    
   237  120  121 1    
   238  120  124 1    
   239  120  241 1    
   240  121  122 am   BACKBONE|DICT|INTERRES
   241  121  123 2    
   242  122  242 1    
   243  122  243 1    
   244  124  125 1    
   245  124  244 1    
   246  124  245 1    
   247  125  126 1    
   248  126  246 1    
   249  126  247 1    
@<TRIPOS>SUBSTRUCTURE
     1 UNK         1 GROUP             0       ****    0 ROOT    
