@<TRIPOS>MOLECULE
3R540
247   249    1
SMALL
USER_CHARGES


@<TRIPOS>ATOM
      1 CA         -3.5139  -11.9822  -52.2874 C.3       0 UNK        -0.1800 
      2 C          -2.4166  -12.6773  -51.4938 C.2       0 UNK         0.5000 
      3 O          -1.2958  -12.8103  -51.9850 O.2       0 UNK        -0.5000 
      4 N          -2.7395  -13.1348  -50.2786 N.am      1 UNK        -0.5000 
      5 CA         -1.8174  -13.8169  -49.3671 C.3       1 UNK         0.1400 
      6 C6         -2.5594  -14.5079  -48.1965 C.3       23 UNK        -0.0398 
      7 S7         -3.8041  -15.7261  -48.7373 S.3       23 UNK        -0.2404 
      8 C8         -2.7726  -17.2049  -48.9749 C.3       23 UNK        -0.0205 
      9 C9         -3.6250  -18.4477  -49.1692 C.ar      23 UNK        -0.0193 
     10 C10        -3.8043  -19.0014  -50.4399 C.ar      23 UNK        -0.1150 
     11 C11        -4.5592  -20.1667  -50.6087 C.ar      23 UNK        -0.0193 
     12 C12        -5.1372  -20.7764  -49.4896 C.ar      23 UNK        -0.1150 
     13 C13        -4.9726  -20.2256  -48.2158 C.ar      23 UNK        -0.0193 
     14 C14        -4.2134  -19.0658  -48.0640 C.ar      23 UNK        -0.1150 
     15 C15        -5.6286  -20.8683  -47.0044 C.3       23 UNK        -0.0205 
     16 S16        -4.7639  -22.3755  -46.4729 S.3       23 UNK        -0.2404 
     17 C17        -3.2696  -21.7161  -45.6494 C.3       23 UNK        -0.0398 
     18 CA         -2.0808  -22.7027  -45.7432 C.3       11 UNK         0.1400 
     19 N          -0.8017  -22.0809  -45.3920 N.am      11 UNK        -0.5000 
     20 C           0.3941  -22.6148  -45.6788 C.2       10 UNK         0.5000 
     21 O           0.5357  -23.6159  -46.3839 O.2       10 UNK        -0.5000 
     22 CA          1.6403  -21.9382  -45.0768 C.3       10 UNK         0.1400 
     23 CB          2.3042  -21.0136  -46.1022 C.3       10 UNK        -0.1800 
     24 N           1.3576  -21.1996  -43.8432 N.am      10 UNK        -0.5000 
     25 C           1.0682  -21.8000  -42.6817 C.2       9 UNK         0.5000 
     26 O           0.9956  -23.0224  -42.5538 O.2       9 UNK        -0.5000 
     27 CA          0.7629  -20.8985  -41.4726 C.3       9 UNK         0.1400 
     28 CB          2.0255  -20.2077  -40.9363 C.3       9 UNK        -0.1800 
     29 N          -0.2962  -19.9133  -41.7119 N.am      9 UNK        -0.5000 
     30 C          -1.5670  -20.2405  -41.9894 C.2       8 UNK         0.5000 
     31 O          -1.9339  -21.3777  -42.2837 O.2       8 UNK        -0.5000 
     32 CA         -2.6105  -19.1216  -41.9059 C.3       8 UNK         0.1400 
     33 CB         -2.6263  -18.4546  -40.5189 C.3       8 UNK        -0.1800 
     34 N          -2.3608  -18.1198  -42.9342 N.am      8 UNK        -0.5000 
     35 C          -3.1468  -17.9288  -44.0004 C.2       7 UNK         0.5000 
     36 O          -4.1659  -18.5795  -44.2337 O.2       7 UNK        -0.5000 
     37 CA         -2.7343  -16.8174  -44.9781 C.3       7 UNK         0.1400 
     38 CB         -3.3063  -15.4651  -44.5292 C.3       7 UNK        -0.1800 
     39 N          -1.2918  -16.7026  -45.1960 N.am      7 UNK        -0.5000 
     40 C          -0.5187  -17.6582  -45.7334 C.2       6 UNK         0.5000 
     41 O          -0.8932  -18.8089  -45.9536 O.2       6 UNK        -0.5000 
     42 CA          0.9093  -17.2411  -46.1154 C.3       6 UNK         0.1400 
     43 CB          0.9013  -16.3081  -47.3312 C.3       6 UNK        -0.1800 
     44 N           1.5834  -16.5878  -45.0012 N.am      6 UNK        -0.5000 
     45 C           2.1733  -17.2600  -44.0060 C.2       5 UNK         0.5000 
     46 O           2.2747  -18.4849  -43.9763 O.2       5 UNK        -0.5000 
     47 CA          2.6852  -16.4275  -42.8180 C.3       5 UNK         0.1400 
     48 CB          4.0458  -15.7939  -43.1436 C.3       5 UNK        -0.1800 
     49 N           1.7441  -15.3802  -42.4248 N.am      5 UNK        -0.5000 
     50 C           0.4811  -15.5907  -42.0277 C.2       4 UNK         0.5000 
     51 O          -0.0196  -16.7086  -41.8894 O.2       4 UNK        -0.5000 
     52 CA         -0.3800  -14.3375  -41.7848 C.3       4 UNK         0.1400 
     53 CB         -0.3241  -13.9324  -40.3048 C.3       4 UNK        -0.1800 
     54 N          -0.0097  -13.1845  -42.6150 N.am      4 UNK        -0.5000 
     55 C          -0.0173  -13.1459  -43.9560 C.2       3 UNK         0.5000 
     56 O          -0.3364  -14.1078  -44.6596 O.2       3 UNK        -0.5000 
     57 CA          0.3823  -11.8031  -44.6074 C.3       3 UNK         0.1400 
     58 CB          1.5685  -11.1202  -43.8904 C.3       3 UNK        -0.1800 
     59 N           0.6496  -11.9126  -46.0463 N.am      3 UNK        -0.5000 
     60 C           1.6129  -12.6211  -46.6510 C.2       2 UNK         0.5000 
     61 O           2.4330  -13.3222  -46.0538 O.2       2 UNK        -0.5000 
     62 CA          1.6314  -12.5426  -48.1935 C.3       2 UNK         0.1400 
     63 CB          2.9368  -13.0909  -48.7975 C.3       2 UNK        -0.1800 
     64 N           0.5022  -13.2648  -48.7821 N.am      2 UNK        -0.5000 
     65 C          -0.7648  -12.8336  -48.8139 C.2       1 UNK         0.5000 
     66 O          -1.1201  -11.7294  -48.3926 O.2       1 UNK        -0.5000 
     67 C          -2.3153  -23.9840  -44.9132 C.2       11 UNK         0.5000 
     68 O          -2.7305  -24.9979  -45.4712 O.2       11 UNK        -0.5000 
     69 N          -2.0136  -23.9327  -43.6083 N.am      12 UNK        -0.5000 
     70 CA         -2.0924  -25.0781  -42.7021 C.3       12 UNK         0.1400 
     71 CB         -1.9837  -24.5904  -41.2492 C.3       12 UNK        -0.1800 
     72 C          -1.0259  -26.1477  -43.0036 C.2       12 UNK         0.5000 
     73 O          -1.3316  -27.3396  -42.9488 O.2       12 UNK        -0.5000 
     74 N           0.2006  -25.7064  -43.3158 N.am      13 UNK        -0.5000 
     75 CA          1.3378  -26.5748  -43.6230 C.3       13 UNK         0.1400 
     76 CB          2.6350  -25.7551  -43.5593 C.3       13 UNK        -0.1800 
     77 C           1.2239  -27.2851  -44.9849 C.2       13 UNK         0.5000 
     78 O           1.6813  -28.4225  -45.1072 O.2       13 UNK        -0.5000 
     79 N           0.6383  -26.6098  -45.9808 N.am      14 UNK        -0.5000 
     80 CA          0.5010  -27.0988  -47.3482 C.3       14 UNK         0.1400 
     81 CB          1.7771  -26.7593  -48.1493 C.3       14 UNK        -0.1800 
     82 C          -0.7919  -26.5321  -47.9544 C.2       14 UNK         0.5000 
     83 O          -1.8692  -27.0573  -47.6735 O.2       14 UNK        -0.5000 
     84 N          -0.6611  -25.4855  -48.7765 N.am      15 UNK        -0.5000 
     85 CA         -1.7512  -24.7570  -49.4284 C.3       15 UNK         0.1400 
     86 CB         -2.3071  -25.5705  -50.6155 C.3       15 UNK        -0.1800 
     87 C          -1.2768  -23.3531  -49.8518 C.2       15 UNK         0.5000 
     88 O          -1.7483  -22.8221  -50.8592 O.2       15 UNK        -0.5000 
     89 N          -0.3031  -22.7965  -49.1098 N.am      16 UNK        -0.5000 
     90 CA          0.3208  -21.4800  -49.3125 C.3       16 UNK         0.1400 
     91 CB         -0.6758  -20.3663  -48.9451 C.3       16 UNK        -0.1800 
     92 C           0.9349  -21.2801  -50.7153 C.2       16 UNK         0.5000 
     93 O           0.9316  -20.1643  -51.2377 O.2       16 UNK        -0.5000 
     94 N           1.3940  -22.3852  -51.3256 N.am      17 UNK        -0.5000 
     95 CA          1.9036  -22.5062  -52.6996 C.3       17 UNK         0.1400 
     96 CB          3.2557  -21.7747  -52.8305 C.3       17 UNK        -0.1800 
     97 C           0.8981  -22.0652  -53.7910 C.2       17 UNK         0.5000 
     98 O           1.3092  -21.8062  -54.9231 O.2       17 UNK        -0.5000 
     99 N          -0.3909  -21.9581  -53.4262 N.am      18 UNK        -0.5000 
    100 CA        -1.4912  -21.3688  -54.1940 C.3       18 UNK         0.1400 
    101 CB        -1.8537  -22.2553  -55.4024 C.3       18 UNK        -0.1800 
    102 C         -1.2546  -19.8899  -54.5828 C.2       18 UNK         0.5000 
    103 O         -1.8135  -19.4296  -55.5792 O.2       18 UNK        -0.5000 
    104 N         -0.4389  -19.1669  -53.7965 N.am      19 UNK        -0.5000 
    105 CA         0.1011  -17.8397  -54.1178 C.3       19 UNK         0.1400 
    106 CB         1.0678  -17.4087  -53.0041 C.3       19 UNK        -0.1800 
    107 C         -0.9500  -16.7409  -54.3632 C.2       19 UNK         0.5000 
    108 O         -0.7129  -15.8469  -55.1762 O.2       19 UNK        -0.5000 
    109 N         -2.0917  -16.8348  -53.6711 N.am      20 UNK        -0.5000 
    110 CA        -3.2127  -15.9020  -53.8016 C.3       20 UNK         0.1400 
    111 CB        -3.9890  -15.8762  -52.4768 C.3       20 UNK        -0.1800 
    112 C         -4.1640  -16.2460  -54.9647 C.2       20 UNK         0.5000 
    113 O         -5.0737  -15.4595  -55.2300 O.2       20 UNK        -0.5000 
    114 N         -3.9709  -17.4114  -55.6074 N.am      21 UNK        -0.5000 
    115 CA        -4.8440  -18.0178  -56.6204 C.3       21 UNK         0.1400 
    116 CB        -4.8273  -17.1979  -57.9274 C.3       21 UNK        -0.1800 
    117 C         -6.2641  -18.2639  -56.0663 C.2       21 UNK         0.5000 
    118 O         -7.2539  -17.8279  -56.6571 O.2       21 UNK        -0.5000 
    119 N         -6.3189  -18.9240  -54.9014 N.am      22 UNK        -0.5000 
    120 CA        -7.5347  -19.1453  -54.1006 C.3       22 UNK         0.1400 
    121 C         -8.6073  -20.0934  -54.7208 C.2       22 UNK         0.5000 
    122 N         -8.3102  -20.8369  -55.7796 N.am      22 UNK        -0.7600 
    123 O         -9.7348  -20.1442  -54.2366 O.2       22 UNK        -0.5000 
    124 C124       -7.1845  -19.5277  -52.6364 C.3       23 UNK        -0.0398 
    125 S125       -6.4189  -21.1798  -52.4532 S.3       23 UNK        -0.2404 
    126 C126       -4.6998  -20.7875  -51.9930 C.3       23 UNK        -0.0205 
    127 H127       -3.2238  -10.9552  -52.5090 H         1 UNK         0.0600 
    128 H128       -4.4570  -11.9597  -51.7408 H         1 UNK         0.0600 
    129 H129       -3.6814  -12.5020  -53.2308 H         1 UNK         0.0600 
    130 H130       -3.6730  -12.9884  -49.9228 H         1 UNK         0.3000 
    131 H131       -1.2993  -14.5887  -49.9406 H         1 UNK         0.0600 
    132 H132       -3.0748  -13.7634  -47.5869 H         1 UNK         0.0800 
    133 H133       -1.8572  -15.0031  -47.5260 H         1 UNK         0.0800 
    134 H134       -2.1117  -17.0549  -49.8297 H         1 UNK         0.0800 
    135 H135       -2.1268  -17.3518  -48.1110 H         1 UNK         0.0800 
    136 H136       -3.3323  -18.5390  -51.2929 H         1 UNK         0.1150 
    137 H137       -5.7138  -21.6828  -49.6088 H         1 UNK         0.1150 
    138 H138       -4.0819  -18.6484  -47.0787 H         1 UNK         0.1150 
    139 H139       -5.6816  -20.1672  -46.1695 H         1 UNK         0.0800 
    140 H140       -6.6595  -21.1245  -47.2525 H         1 UNK         0.0800 
    141 H141       -3.5057  -21.4731  -44.6120 H         1 UNK         0.0800 
    142 H142       -2.9959  -20.7739  -46.1251 H         1 UNK         0.0800 
    143 H143       -2.0029  -23.0089  -46.7878 H         1 UNK         0.0600 
    144 H144       -0.8353  -21.2385  -44.8348 H         1 UNK         0.3000 
    145 H145        2.3581  -22.7234  -44.8351 H         1 UNK         0.0600 
    146 H146        3.1211  -20.4432  -45.6603 H         1 UNK         0.0600 
    147 H147        2.7271  -21.5927  -46.9234 H         1 UNK         0.0600 
    148 H148        1.5855  -20.3140  -46.5245 H         1 UNK         0.0600 
    149 H149        1.4614  -20.1878  -43.8740 H         1 UNK         0.3000 
    150 H150        0.4022  -21.5569  -40.6792 H         1 UNK         0.0600 
    151 H151        2.8041  -20.9389  -40.7157 H         1 UNK         0.0600 
    152 H152        1.8164  -19.6682  -40.0125 H         1 UNK         0.0600 
    153 H153        2.4393  -19.4984  -41.6493 H         1 UNK         0.0600 
    154 H154       -0.0688  -18.9418  -41.5392 H         1 UNK         0.3000 
    155 H155       -3.5888  -19.5860  -42.0471 H         1 UNK         0.0600 
    156 H156       -1.6876  -17.9527  -40.2859 H         1 UNK         0.0600 
    157 H157       -2.8055  -19.1922  -39.7357 H         1 UNK         0.0600 
    158 H158       -3.4222  -17.7127  -40.4532 H         1 UNK         0.0600 
    159 H159       -1.5215  -17.5591  -42.8234 H         1 UNK         0.3000 
    160 H160       -3.1813  -17.0454  -45.9435 H         1 UNK         0.0600 
    161 H161       -3.0525  -14.6708  -45.2303 H         1 UNK         0.0600 
    162 H162       -2.9353  -15.1765  -43.5480 H         1 UNK         0.0600 
    163 H163       -4.3944  -15.5062  -44.4667 H         1 UNK         0.0600 
    164 H164       -0.8864  -15.7847  -45.0208 H         1 UNK         0.3000 
    165 H165        1.4661  -18.1327  -46.3997 H         1 UNK         0.0600 
    166 H166        0.4120  -15.3658  -47.0935 H         1 UNK         0.0600 
    167 H167        1.9170  -16.0861  -47.6573 H         1 UNK         0.0600 
    168 H168        0.3769  -16.7595  -48.1743 H         1 UNK         0.0600 
    169 H169        1.5022  -15.5808  -44.9398 H         1 UNK         0.3000 
    170 H170        2.8123  -17.0987  -41.9667 H         1 UNK         0.0600 
    171 H171        4.7717  -16.5557  -43.4311 H         1 UNK         0.0600 
    172 H172        3.9723  -15.0821  -43.9673 H         1 UNK         0.0600 
    173 H173        4.4528  -15.2675  -42.2802 H         1 UNK         0.0600 
    174 H174        2.0603  -14.4267  -42.5198 H         1 UNK         0.3000 
    175 H175       -1.4108  -14.6005  -42.0197 H         1 UNK         0.0600 
    176 H176        0.6797  -13.6257  -40.0084 H         1 UNK         0.0600 
    177 H177       -1.0043  -13.1066  -40.0953 H         1 UNK         0.0600 
    178 H178       -0.6173  -14.7632  -39.6612 H         1 UNK         0.0600 
    179 H179        0.2590  -12.3495  -42.1150 H         1 UNK         0.3000 
    180 H180       -0.4863  -11.1501  -44.5146 H         1 UNK         0.0600 
    181 H181        2.4376  -11.7760  -43.8270 H         1 UNK         0.0600 
    182 H182        1.3060  -10.8217  -42.8752 H         1 UNK         0.0600 
    183 H183        1.8743  -10.2147  -44.4147 H         1 UNK         0.0600 
    184 H184       -0.0275  -11.4601  -46.6512 H         1 UNK         0.3000 
    185 H185        1.5592  -11.4885  -48.4704 H         1 UNK         0.0600 
    186 H186        3.8031  -12.5650  -48.3943 H         1 UNK         0.0600 
    187 H187        3.0701  -14.1519  -48.5852 H         1 UNK         0.0600 
    188 H188        2.9548  -12.9612  -49.8797 H         1 UNK         0.0600 
    189 H189        0.7159  -14.1801  -49.1492 H         1 UNK         0.3000 
    190 H190       -1.7274  -23.0479  -43.1973 H         1 UNK         0.3000 
    191 H191       -3.0729  -25.5420  -42.8284 H         1 UNK         0.0600 
    192 H192       -1.0346  -24.0875  -41.0615 H         1 UNK         0.0600 
    193 H193       -2.0584  -25.4243  -40.5502 H         1 UNK         0.0600 
    194 H194       -2.7842  -23.8907  -41.0085 H         1 UNK         0.0600 
    195 H195        0.3885  -24.7093  -43.2539 H         1 UNK         0.3000 
    196 H196        1.3900  -27.3457  -42.8512 H         1 UNK         0.0600 
    197 H197        3.5065  -26.3911  -43.7192 H         1 UNK         0.0600 
    198 H198        2.7550  -25.2770  -42.5869 H         1 UNK         0.0600 
    199 H199        2.6538  -24.9773  -44.3222 H         1 UNK         0.0600 
    200 H200        0.2893  -25.6735  -45.8104 H         1 UNK         0.3000 
    201 H201        0.3826  -28.1845  -47.3398 H         1 UNK         0.0600 
    202 H202        2.6370  -27.3012  -47.7554 H         1 UNK         0.0600 
    203 H203        2.0160  -25.6958  -48.1075 H         1 UNK         0.0600 
    204 H204        1.6742  -27.0439  -49.1973 H         1 UNK         0.0600 
    205 H205        0.2706  -25.1417  -48.9580 H         1 UNK         0.3000 
    206 H206       -2.5533  -24.6077  -48.7026 H         1 UNK         0.0600 
    207 H207       -2.6756  -26.5450  -50.2957 H         1 UNK         0.0600 
    208 H208       -3.1433  -25.0545  -51.0893 H         1 UNK         0.0600 
    209 H209       -1.5452  -25.7341  -51.3783 H         1 UNK         0.0600 
    210 H210       -0.0020  -23.2853  -48.2719 H         1 UNK         0.3000 
    211 H211        1.1551  -21.4258  -48.6176 H         1 UNK         0.0600 
    212 H212       -1.1207  -20.5391  -47.9658 H         1 UNK         0.0600 
    213 H213       -1.4854  -20.3118  -49.6711 H         1 UNK         0.0600 
    214 H214       -0.1906  -19.3903  -48.9154 H         1 UNK         0.0600 
    215 H215        1.3308  -23.2527  -50.8138 H         1 UNK         0.3000 
    216 H216        2.0827  -23.5691  -52.8672 H         1 UNK         0.0600 
    217 H217        3.7221  -21.9785  -53.7951 H         1 UNK         0.0600 
    218 H218        3.9556  -22.0984  -52.0602 H         1 UNK         0.0600 
    219 H219        3.1401  -20.6936  -52.7460 H         1 UNK         0.0600 
    220 H220       -0.6352  -22.2179  -52.4754 H         1 UNK         0.3000 
    221 H221       -2.3474  -21.3684  -53.5227 H         1 UNK         0.0600 
    222 H222       -1.0654  -22.2554  -56.1556 H         1 UNK         0.0600 
    223 H223       -2.0259  -23.2870  -55.0959 H         1 UNK         0.0600 
    224 H224       -2.7670  -21.9060  -55.8854 H         1 UNK         0.0600 
    225 H225       -0.0348  -19.6165  -52.9806 H         1 UNK         0.3000 
    226 H226        0.6750  -17.9438  -55.0407 H         1 UNK         0.0600 
    227 H227        1.8965  -18.1107  -52.9091 H         1 UNK         0.0600 
    228 H228        1.4971  -16.4276  -53.2119 H         1 UNK         0.0600 
    229 H229        0.5660  -17.3512  -52.0372 H         1 UNK         0.0600 
    230 H230       -2.2003  -17.6060  -53.0312 H         1 UNK         0.3000 
    231 H231       -2.8214  -14.8982  -53.9807 H         1 UNK         0.0600 
    232 H232       -3.3206  -15.6961  -51.6368 H         1 UNK         0.0600 
    233 H233       -4.5202  -16.8107  -52.2972 H         1 UNK         0.0600 
    234 H234       -4.7313  -15.0772  -52.4749 H         1 UNK         0.0600 
    235 H235       -3.1597  -17.9687  -55.3590 H         1 UNK         0.3000 
    236 H236       -4.4238  -18.9995  -56.8442 H         1 UNK         0.0600 
    237 H237       -5.2690  -16.2097  -57.7969 H         1 UNK         0.0600 
    238 H238       -3.8094  -17.0640  -58.2934 H         1 UNK         0.0600 
    239 H239       -5.3902  -17.7055  -58.7115 H         1 UNK         0.0600 
    240 H240       -5.4597  -19.2639  -54.4995 H         1 UNK         0.3000 
    241 H241       -8.0292  -18.1734  -54.0477 H         1 UNK         0.0600 
    242 H242       -7.3902  -20.8015  -56.1872 H         1 UNK         0.3800 
    243 H243       -9.0125  -21.4417  -56.1757 H         1 UNK         0.3800 
    244 H244       -8.0863  -19.5102  -52.0222 H         1 UNK         0.0800 
    245 H245       -6.5293  -18.7709  -52.2033 H         1 UNK         0.0800 
    246 H246       -4.2700  -20.1386  -52.7562 H         1 UNK         0.0800 
    247 H247       -4.1233  -21.7133  -52.0057 H         1 UNK         0.0800 
@<TRIPOS>BOND
     1    1    2 1    
     2    1  127 1    
     3    1  128 1    
     4    1  129 1    
     5    2    3 2    
     6    2    4 am   BACKBONE|DICT|INTERRES
     7    4    5 1    
     8    4  130 1    
     9    5    6 1    
    10    5   65 1    
    11    5  131 1    
    12    6    7 1    
    13    6  132 1    
    14    6  133 1    
    15    7    8 1    
    16    8    9 1    
    17    8  134 1    
    18    8  135 1    
    19    9   10 ar   
    20    9   14 ar   
    21   10   11 ar   
    22   10  136 1    
    23   11   12 ar   
    24   11  126 1    
    25   12   13 ar   
    26   12  137 1    
    27   13   14 ar   
    28   13   15 1    
    29   14  138 1    
    30   15   16 1    
    31   15  139 1    
    32   15  140 1    
    33   16   17 1    
    34   17   18 1    
    35   17  141 1    
    36   17  142 1    
    37   18   19 1    
    38   18   67 1    
    39   18  143 1    
    40   19   20 am   BACKBONE|DICT|INTERRES
    41   19  144 1    
    42   20   21 2    
    43   20   22 1    
    44   22   23 1    
    45   22   24 1    
    46   22  145 1    
    47   23  146 1    
    48   23  147 1    
    49   23  148 1    
    50   24   25 am   BACKBONE|DICT|INTERRES
    51   24  149 1    
    52   25   26 2    
    53   25   27 1    
    54   27   28 1    
    55   27   29 1    
    56   27  150 1    
    57   28  151 1    
    58   28  152 1    
    59   28  153 1    
    60   29   30 am   BACKBONE|DICT|INTERRES
    61   29  154 1    
    62   30   31 2    
    63   30   32 1    
    64   32   33 1    
    65   32   34 1    
    66   32  155 1    
    67   33  156 1    
    68   33  157 1    
    69   33  158 1    
    70   34   35 am   BACKBONE|DICT|INTERRES
    71   34  159 1    
    72   35   36 2    
    73   35   37 1    
    74   37   38 1    
    75   37   39 1    
    76   37  160 1    
    77   38  161 1    
    78   38  162 1    
    79   38  163 1    
    80   39   40 am   BACKBONE|DICT|INTERRES
    81   39  164 1    
    82   40   41 2    
    83   40   42 1    
    84   42   43 1    
    85   42   44 1    
    86   42  165 1    
    87   43  166 1    
    88   43  167 1    
    89   43  168 1    
    90   44   45 am   BACKBONE|DICT|INTERRES
    91   44  169 1    
    92   45   46 2    
    93   45   47 1    
    94   47   48 1    
    95   47   49 1    
    96   47  170 1    
    97   48  171 1    
    98   48  172 1    
    99   48  173 1    
   100   49   50 am   BACKBONE|DICT|INTERRES
   101   49  174 1    
   102   50   51 2    
   103   50   52 1    
   104   52   53 1    
   105   52   54 1    
   106   52  175 1    
   107   53  176 1    
   108   53  177 1    
   109   53  178 1    
   110   54   55 am   BACKBONE|DICT|INTERRES
   111   54  179 1    
   112   55   56 2    
   113   55   57 1    
   114   57   58 1    
   115   57   59 1    
   116   57  180 1    
   117   58  181 1    
   118   58  182 1    
   119   58  183 1    
   120   59   60 am   BACKBONE|DICT|INTERRES
   121   59  184 1    
   122   60   61 2    
   123   60   62 1    
   124   62   63 1    
   125   62   64 1    
   126   62  185 1    
   127   63  186 1    
   128   63  187 1    
   129   63  188 1    
   130   64   65 am   BACKBONE|DICT|INTERRES
   131   64  189 1    
   132   65   66 2    
   133   67   68 2    
   134   67   69 am   BACKBONE|DICT|INTERRES
   135   69   70 1    
   136   69  190 1    
   137   70   71 1    
   138   70   72 1    
   139   70  191 1    
   140   71  192 1    
   141   71  193 1    
   142   71  194 1    
   143   72   73 2    
   144   72   74 am   BACKBONE|DICT|INTERRES
   145   74   75 1    
   146   74  195 1    
   147   75   76 1    
   148   75   77 1    
   149   75  196 1    
   150   76  197 1    
   151   76  198 1    
   152   76  199 1    
   153   77   78 2    
   154   77   79 am   BACKBONE|DICT|INTERRES
   155   79   80 1    
   156   79  200 1    
   157   80   81 1    
   158   80   82 1    
   159   80  201 1    
   160   81  202 1    
   161   81  203 1    
   162   81  204 1    
   163   82   83 2    
   164   82   84 am   BACKBONE|DICT|INTERRES
   165   84   85 1    
   166   84  205 1    
   167   85   86 1    
   168   85   87 1    
   169   85  206 1    
   170   86  207 1    
   171   86  208 1    
   172   86  209 1    
   173   87   88 2    
   174   87   89 am   BACKBONE|DICT|INTERRES
   175   89   90 1    
   176   89  210 1    
   177   90   91 1    
   178   90   92 1    
   179   90  211 1    
   180   91  212 1    
   181   91  213 1    
   182   91  214 1    
   183   92   93 2    
   184   92   94 am   BACKBONE|DICT|INTERRES
   185   94   95 1    
   186   94  215 1    
   187   95   96 1    
   188   95   97 1    
   189   95  216 1    
   190   96  217 1    
   191   96  218 1    
   192   96  219 1    
   193   97   98 2    
   194   97   99 am   BACKBONE|DICT|INTERRES
   195   99  100 1    
   196   99  220 1    
   197  100  101 1    
   198  100  102 1    
   199  100  221 1    
   200  101  222 1    
   201  101  223 1    
   202  101  224 1    
   203  102  103 2    
   204  102  104 am   BACKBONE|DICT|INTERRES
   205  104  105 1    
   206  104  225 1    
   207  105  106 1    
   208  105  107 1    
   209  105  226 1    
   210  106  227 1    
   211  106  228 1    
   212  106  229 1    
   213  107  108 2    
   214  107  109 am   BACKBONE|DICT|INTERRES
   215  109  110 1    
   216  109  230 1    
   217  110  111 1    
   218  110  112 1    
   219  110  231 1    
   220  111  232 1    
   221  111  233 1    
   222  111  234 1    
   223  112  113 2    
   224  112  114 am   BACKBONE|DICT|INTERRES
   225  114  115 1    
   226  114  235 1    
   227  115  116 1    
   228  115  117 1    
   229  115  236 1    
   230  116  237 1    
   231  116  238 1    
   232  116  239 1    
   233  117  118 2    
   234  117  119 am   BACKBONE|DICT|INTERRES
   235  119  120 1    
   236  119  240 1    
   237  120  121 1    
   238  120  124 1    
   239  120  241 1    
   240  121  122 am   BACKBONE|DICT|INTERRES
   241  121  123 2    
   242  122  242 1    
   243  122  243 1    
   244  124  125 1    
   245  124  244 1    
   246  124  245 1    
   247  125  126 1    
   248  126  246 1    
   249  126  247 1    
@<TRIPOS>SUBSTRUCTURE
     1 UNK         1 GROUP             0       ****    0 ROOT    
