@<TRIPOS>MOLECULE
3R540
247   249    1
SMALL
USER_CHARGES


@<TRIPOS>ATOM
      1 CA         -1.2698  -12.1442  -50.7756 C.3       0 UNK        -0.1800 
      2 C          -0.4500  -12.3980  -49.5192 C.2       0 UNK         0.5000 
      3 O          -0.2512  -11.4820  -48.7213 O.2       0 UNK        -0.5000 
      4 N           0.0110  -13.6429  -49.3319 N.am      1 UNK        -0.5000 
      5 CA          0.8547  -14.0899  -48.2127 C.3       1 UNK         0.1400 
      6 C6          1.2579  -15.5792  -48.3402 C.3       23 UNK        -0.0398 
      7 S7          2.2247  -15.9475  -49.8451 S.3       23 UNK        -0.2404 
      8 C8          0.9822  -16.6618  -50.9733 C.3       23 UNK        -0.0205 
      9 C9          0.3424  -17.9302  -50.4272 C.ar      23 UNK        -0.0193 
     10 C10        -0.9833  -17.9139  -49.9828 C.ar      23 UNK        -0.1150 
     11 C11        -1.5887  -19.0811  -49.5123 C.ar      23 UNK        -0.0193 
     12 C12        -0.8567  -20.2700  -49.4873 C.ar      23 UNK        -0.1150 
     13 C13         0.4669  -20.3036  -49.9335 C.ar      23 UNK        -0.0193 
     14 C14         1.0646  -19.1265  -50.3923 C.ar      23 UNK        -0.1150 
     15 C15         1.2346  -21.6179  -49.9489 C.3       23 UNK        -0.0205 
     16 S16         2.4109  -21.7798  -48.5666 S.3       23 UNK        -0.2404 
     17 C17         1.3485  -21.6061  -47.0935 C.3       23 UNK        -0.0398 
     18 CA          0.8345  -22.9494  -46.5223 C.3       11 UNK         0.1400 
     19 N           0.5586  -22.8374  -45.0876 N.am      11 UNK        -0.5000 
     20 C           0.2157  -23.8482  -44.2781 C.2       10 UNK         0.5000 
     21 O           0.1458  -25.0206  -44.6398 O.2       10 UNK        -0.5000 
     22 CA         -0.1777  -23.4737  -42.8393 C.3       10 UNK         0.1400 
     23 CB          1.0620  -23.3118  -41.9469 C.3       10 UNK        -0.1800 
     24 N          -0.9798  -22.2502  -42.8076 N.am      10 UNK        -0.5000 
     25 C          -2.2416  -22.1710  -43.2536 C.2       9 UNK         0.5000 
     26 O          -2.8798  -23.1404  -43.6655 O.2       9 UNK        -0.5000 
     27 CA         -2.8762  -20.7677  -43.2878 C.3       9 UNK         0.1400 
     28 CB         -3.4629  -20.4035  -41.9164 C.3       9 UNK        -0.1800 
     29 N          -1.9260  -19.7334  -43.7053 N.am      9 UNK        -0.5000 
     30 C          -1.4226  -19.6379  -44.9461 C.2       8 UNK         0.5000 
     31 O          -1.7418  -20.3893  -45.8634 O.2       8 UNK        -0.5000 
     32 CA         -0.3466  -18.5658  -45.2065 C.3       8 UNK         0.1400 
     33 CB         -1.0022  -17.2608  -45.6679 C.3       8 UNK        -0.1800 
     34 N           0.4965  -18.2918  -44.0438 N.am      8 UNK        -0.5000 
     35 C           1.2281  -19.2050  -43.3894 C.2       7 UNK         0.5000 
     36 O           1.3616  -20.3658  -43.7767 O.2       7 UNK        -0.5000 
     37 CA          1.8677  -18.7784  -42.0522 C.3       7 UNK         0.1400 
     38 CB          3.3759  -18.5516  -42.2319 C.3       7 UNK        -0.1800 
     39 N           1.2792  -17.5778  -41.4493 N.am      7 UNK        -0.5000 
     40 C          -0.0076  -17.3913  -41.1149 C.2       6 UNK         0.5000 
     41 O          -0.8774  -18.2527  -41.2516 O.2       6 UNK        -0.5000 
     42 CA         -0.3967  -15.9961  -40.5810 C.3       6 UNK         0.1400 
     43 CB         -0.6731  -16.0579  -39.0712 C.3       6 UNK        -0.1800 
     44 N           0.6132  -14.9620  -40.8382 N.am      6 UNK        -0.5000 
     45 C           0.9309  -14.4776  -42.0466 C.2       5 UNK         0.5000 
     46 O           0.3864  -14.8361  -43.0919 O.2       5 UNK        -0.5000 
     47 CA          2.1111  -13.4986  -42.0833 C.3       5 UNK         0.1400 
     48 CB          3.4427  -14.2752  -42.0938 C.3       5 UNK        -0.1800 
     49 N           2.0348  -12.6306  -43.2563 N.am      5 UNK        -0.5000 
     50 C           2.6665  -11.4531  -43.3614 C.2       4 UNK         0.5000 
     51 O           3.3522  -10.9654  -42.4614 O.2       4 UNK        -0.5000 
     52 CA          2.5100  -10.6787  -44.6797 C.3       4 UNK         0.1400 
     53 CB          3.4284  -11.2551  -45.7697 C.3       4 UNK        -0.1800 
     54 N           1.1264  -10.6833  -45.1469 N.am      4 UNK        -0.5000 
     55 C           0.2009   -9.7833  -44.7850 C.2       3 UNK         0.5000 
     56 O           0.4275   -8.8412  -44.0245 O.2       3 UNK        -0.5000 
     57 CA         -1.2145   -9.9466  -45.3725 C.3       3 UNK         0.1400 
     58 CB         -1.4161   -8.9984  -46.5646 C.3       3 UNK        -0.1800 
     59 N          -1.4853  -11.3186  -45.8001 N.am      3 UNK        -0.5000 
     60 C          -1.8272  -12.3091  -44.9636 C.2       2 UNK         0.5000 
     61 O          -2.0423  -12.1412  -43.7628 O.2       2 UNK        -0.5000 
     62 CA         -1.9306  -13.7282  -45.5567 C.3       2 UNK         0.1400 
     63 CB         -3.3927  -14.0831  -45.8655 C.3       2 UNK        -0.1800 
     64 N          -1.1292  -13.9315  -46.7660 N.am      2 UNK        -0.5000 
     65 C           0.2079  -13.8492  -46.8328 C.2       1 UNK         0.5000 
     66 O           0.9225  -13.5660  -45.8725 O.2       1 UNK        -0.5000 
     67 C          -0.3895  -23.4794  -47.3047 C.2       11 UNK         0.5000 
     68 O          -0.2371  -24.3542  -48.1599 O.2       11 UNK        -0.5000 
     69 N          -1.5863  -22.9717  -46.9730 N.am      12 UNK        -0.5000 
     70 CA         -2.8711  -23.4044  -47.5238 C.3       12 UNK         0.1400 
     71 CB         -3.9957  -22.4904  -47.0169 C.3       12 UNK        -0.1800 
     72 C          -3.1942  -24.8726  -47.2046 C.2       12 UNK         0.5000 
     73 O          -3.6595  -25.5971  -48.0839 O.2       12 UNK        -0.5000 
     74 N          -2.9200  -25.2870  -45.9604 N.am      13 UNK        -0.5000 
     75 CA         -3.0627  -26.6697  -45.5071 C.3       13 UNK         0.1400 
     76 CB         -2.9519  -26.7187  -43.9755 C.3       13 UNK        -0.1800 
     77 C          -2.0380  -27.6135  -46.1649 C.2       13 UNK         0.5000 
     78 O          -2.3859  -28.7467  -46.4996 O.2       13 UNK        -0.5000 
     79 N          -0.8007  -27.1296  -46.3392 N.am      14 UNK        -0.5000 
     80 CA          0.3062  -27.8652  -46.9441 C.3       14 UNK         0.1400 
     81 CB          1.6285  -27.1327  -46.6674 C.3       14 UNK        -0.1800 
     82 C           0.1279  -28.1064  -48.4527 C.2       14 UNK         0.5000 
     83 O           0.3717  -29.2261  -48.9063 O.2       14 UNK        -0.5000 
     84 N          -0.2730  -27.0706  -49.2045 N.am      15 UNK        -0.5000 
     85 CA         -0.3768  -27.1406  -50.6645 C.3       15 UNK         0.1400 
     86 CB          1.0218  -27.0086  -51.2987 C.3       15 UNK        -0.1800 
     87 C          -1.3291  -26.1080  -51.2860 C.2       15 UNK         0.5000 
     88 O          -1.9695  -26.4347  -52.2864 O.2       15 UNK        -0.5000 
     89 N          -1.3793  -24.8844  -50.7350 N.am      16 UNK        -0.5000 
     90 CA         -1.9989  -23.6961  -51.3405 C.3       16 UNK         0.1400 
     91 CB         -3.5389  -23.8338  -51.4136 C.3       16 UNK        -0.1800 
     92 C          -1.3237  -23.3618  -52.6907 C.2       16 UNK         0.5000 
     93 O          -0.0968  -23.2528  -52.7264 O.2       16 UNK        -0.5000 
     94 N          -2.1167  -23.2184  -53.7633 N.am      17 UNK        -0.5000 
     95 CA         -1.7532  -23.1030  -55.1860 C.3       17 UNK         0.1400 
     96 CB         -0.9957  -24.3592  -55.6572 C.3       17 UNK        -0.1800 
     97 C          -0.9971  -21.8243  -55.6025 C.2       17 UNK         0.5000 
     98 O          -1.2081  -21.3399  -56.7150 O.2       17 UNK        -0.5000 
     99 N          -0.1425  -21.2918  -54.7226 N.am      18 UNK        -0.5000 
    100 CA         0.6302  -20.0636  -54.9229 C.3       18 UNK         0.1400 
    101 CB         1.7543  -20.0142  -53.8801 C.3       18 UNK        -0.1800 
    102 C         -0.2281  -18.7824  -54.8767 C.2       18 UNK         0.5000 
    103 O          0.2053  -17.7475  -55.3850 O.2       18 UNK        -0.5000 
    104 N         -1.4297  -18.8815  -54.2982 N.am      19 UNK        -0.5000 
    105 CA        -2.4899  -17.8829  -54.3614 C.3       19 UNK         0.1400 
    106 CB        -2.8637  -17.4512  -52.9357 C.3       19 UNK        -0.1800 
    107 C         -3.6992  -18.5097  -55.0694 C.2       19 UNK         0.5000 
    108 O         -3.8966  -19.7268  -54.9912 O.2       19 UNK        -0.5000 
    109 N         -4.5030  -17.6673  -55.7290 N.am      20 UNK        -0.5000 
    110 CA        -5.7198  -18.0416  -56.4536 C.3       20 UNK         0.1400 
    111 CB        -6.0451  -16.9352  -57.4738 C.3       20 UNK        -0.1800 
    112 C         -6.8896  -18.3262  -55.4874 C.2       20 UNK         0.5000 
    113 O         -7.8537  -17.5601  -55.4434 O.2       20 UNK        -0.5000 
    114 N         -6.7472  -19.4219  -54.7294 N.am      21 UNK        -0.5000 
    115 CA        -7.5720  -19.9029  -53.6182 C.3       21 UNK         0.1400 
    116 CB        -9.0610  -20.0320  -53.9955 C.3       21 UNK        -0.1800 
    117 C         -7.3680  -19.0540  -52.3494 C.2       21 UNK         0.5000 
    118 O         -7.5667  -17.8379  -52.3674 O.2       21 UNK        -0.5000 
    119 N         -6.9726  -19.7232  -51.2621 N.am      22 UNK        -0.5000 
    120 CA        -6.6914  -19.1089  -49.9527 C.3       22 UNK         0.1400 
    121 C         -7.9571  -18.7827  -49.1049 C.2       22 UNK         0.5000 
    122 N         -9.1545  -19.1974  -49.5010 N.am      22 UNK        -0.7600 
    123 O         -7.8513  -18.1320  -48.0691 O.2       22 UNK        -0.5000 
    124 C124       -5.6843  -19.9585  -49.1373 C.3       23 UNK        -0.0398 
    125 S125       -4.0895  -20.1714  -50.0003 S.3       23 UNK        -0.2404 
    126 C126       -3.0278  -19.0604  -49.0232 C.3       23 UNK        -0.0205 
    127 H127       -2.2669  -11.7947  -50.5078 H         1 UNK         0.0600 
    128 H128       -1.3755  -13.0449  -51.3809 H         1 UNK         0.0600 
    129 H129       -0.7915  -11.3781  -51.3858 H         1 UNK         0.0600 
    130 H130       -0.1795  -14.3416  -50.0334 H         1 UNK         0.3000 
    131 H131        1.7657  -13.4883  -48.2416 H         1 UNK         0.0600 
    132 H132        0.3787  -16.2208  -48.2921 H         1 UNK         0.0800 
    133 H133        1.8807  -15.8719  -47.4924 H         1 UNK         0.0800 
    134 H134        1.4666  -16.8933  -51.9232 H         1 UNK         0.0800 
    135 H135        0.2228  -15.9138  -51.2022 H         1 UNK         0.0800 
    136 H136       -1.5471  -16.9924  -50.0079 H         1 UNK         0.1150 
    137 H137       -1.3277  -21.1697  -49.1212 H         1 UNK         0.1150 
    138 H138        2.0894  -19.1437  -50.7361 H         1 UNK         0.1150 
    139 H139        0.5485  -22.4640  -49.9409 H         1 UNK         0.0800 
    140 H140        1.7865  -21.6990  -50.8864 H         1 UNK         0.0800 
    141 H141        0.5325  -20.9101  -47.2775 H         1 UNK         0.0800 
    142 H142        1.9744  -21.1130  -46.3484 H         1 UNK         0.0800 
    143 H143        1.6302  -23.6903  -46.6222 H         1 UNK         0.0600 
    144 H144        0.6468  -21.9115  -44.6790 H         1 UNK         0.3000 
    145 H145       -0.7802  -24.2897  -42.4342 H         1 UNK         0.0600 
    146 H146        0.7804  -23.0792  -40.9198 H         1 UNK         0.0600 
    147 H147        1.7216  -22.5198  -42.3012 H         1 UNK         0.0600 
    148 H148        1.6441  -24.2338  -41.9230 H         1 UNK         0.0600 
    149 H149       -0.5089  -21.4019  -42.5291 H         1 UNK         0.3000 
    150 H150       -3.6937  -20.7898  -44.0116 H         1 UNK         0.0600 
    151 H151       -4.2058  -21.1380  -41.6026 H         1 UNK         0.0600 
    152 H152       -3.9566  -19.4321  -41.9442 H         1 UNK         0.0600 
    153 H153       -2.6926  -20.3652  -41.1451 H         1 UNK         0.0600 
    154 H154       -1.5944  -19.1018  -42.9833 H         1 UNK         0.3000 
    155 H155        0.3023  -18.9234  -46.0072 H         1 UNK         0.0600 
    156 H156       -1.5521  -17.4032  -46.5992 H         1 UNK         0.0600 
    157 H157       -0.2480  -16.4966  -45.8433 H         1 UNK         0.0600 
    158 H158       -1.7010  -16.8769  -44.9238 H         1 UNK         0.0600 
    159 H159        0.4465  -17.3575  -43.6607 H         1 UNK         0.3000 
    160 H160        1.7233  -19.6025  -41.3509 H         1 UNK         0.0600 
    161 H161        3.5792  -17.7161  -42.9031 H         1 UNK         0.0600 
    162 H162        3.8576  -19.4356  -42.6525 H         1 UNK         0.0600 
    163 H163        3.8611  -18.3430  -41.2782 H         1 UNK         0.0600 
    164 H164        1.9103  -16.8063  -41.2970 H         1 UNK         0.3000 
    165 H165       -1.3189  -15.7026  -41.0870 H         1 UNK         0.0600 
    166 H166       -1.0240  -15.0970  -38.6944 H         1 UNK         0.0600 
    167 H167       -1.4449  -16.7948  -38.8444 H         1 UNK         0.0600 
    168 H168        0.2199  -16.3346  -38.5093 H         1 UNK         0.0600 
    169 H169        1.1171  -14.6248  -40.0301 H         1 UNK         0.3000 
    170 H170        2.0596  -12.8810  -41.1840 H         1 UNK         0.0600 
    171 H171        3.5382  -14.8903  -42.9897 H         1 UNK         0.0600 
    172 H172        4.2986  -13.6012  -42.0602 H         1 UNK         0.0600 
    173 H173        3.5238  -14.9360  -41.2301 H         1 UNK         0.0600 
    174 H174        1.4852  -12.9912  -44.0334 H         1 UNK         0.3000 
    175 H175        2.8243   -9.6479  -44.5015 H         1 UNK         0.0600 
    176 H176        3.2114  -12.3024  -45.9785 H         1 UNK         0.0600 
    177 H177        3.3291  -10.7001  -46.7027 H         1 UNK         0.0600 
    178 H178        4.4740  -11.1952  -45.4653 H         1 UNK         0.0600 
    179 H179        0.8490  -11.4709  -45.7189 H         1 UNK         0.3000 
    180 H180       -1.9310   -9.6677  -44.5968 H         1 UNK         0.0600 
    181 H181       -2.4195   -9.0929  -46.9801 H         1 UNK         0.0600 
    182 H182       -0.7010   -9.1966  -47.3636 H         1 UNK         0.0600 
    183 H183       -1.2865   -7.9588  -46.2611 H         1 UNK         0.0600 
    184 H184       -1.3003  -11.5336  -46.7729 H         1 UNK         0.3000 
    185 H185       -1.5672  -14.4202  -44.7961 H         1 UNK         0.0600 
    186 H186       -3.8073  -13.4387  -46.6416 H         1 UNK         0.0600 
    187 H187       -3.4860  -15.1167  -46.1995 H         1 UNK         0.0600 
    188 H188       -4.0173  -13.9728  -44.9780 H         1 UNK         0.0600 
    189 H189       -1.6372  -14.1385  -47.6130 H         1 UNK         0.3000 
    190 H190       -1.6225  -22.1911  -46.3220 H         1 UNK         0.3000 
    191 H191       -2.8141  -23.2960  -48.6050 H         1 UNK         0.0600 
    192 H192       -4.1215  -22.5602  -45.9370 H         1 UNK         0.0600 
    193 H193       -4.9485  -22.7560  -47.4758 H         1 UNK         0.0600 
    194 H194       -3.7981  -21.4487  -47.2591 H         1 UNK         0.0600 
    195 H195       -2.5784  -24.6141  -45.2844 H         1 UNK         0.3000 
    196 H196       -4.0607  -27.0155  -45.7849 H         1 UNK         0.0600 
    197 H197       -3.7096  -26.0915  -43.5054 H         1 UNK         0.0600 
    198 H198       -1.9760  -26.3783  -43.6290 H         1 UNK         0.0600 
    199 H199       -3.0949  -27.7351  -43.6068 H         1 UNK         0.0600 
    200 H200       -0.5802  -26.2136  -45.9594 H         1 UNK         0.3000 
    201 H201        0.3602  -28.8417  -46.4581 H         1 UNK         0.0600 
    202 H202        1.8120  -27.0413  -45.5968 H         1 UNK         0.0600 
    203 H203        1.6314  -26.1300  -47.0948 H         1 UNK         0.0600 
    204 H204        2.4725  -27.6744  -47.0961 H         1 UNK         0.0600 
    205 H205       -0.4487  -26.1740  -48.7607 H         1 UNK         0.3000 
    206 H206       -0.7815  -28.1189  -50.9336 H         1 UNK         0.0600 
    207 H207        1.5007  -26.0708  -51.0139 H         1 UNK         0.0600 
    208 H208        1.6778  -27.8252  -50.9973 H         1 UNK         0.0600 
    209 H209        0.9631  -27.0291  -52.3878 H         1 UNK         0.0600 
    210 H210       -0.8136  -24.7017  -49.9115 H         1 UNK         0.3000 
    211 H211       -1.7756  -22.8596  -50.6802 H         1 UNK         0.0600 
    212 H212       -3.8556  -24.6003  -52.1213 H         1 UNK         0.0600 
    213 H213       -4.0024  -22.8928  -51.7122 H         1 UNK         0.0600 
    214 H214       -3.9597  -24.0999  -50.4451 H         1 UNK         0.0600 
    215 H215       -3.1106  -23.2908  -53.5980 H         1 UNK         0.3000 
    216 H216       -2.7032  -23.0777  -55.7223 H         1 UNK         0.0600 
    217 H217       -0.8240  -24.3306  -56.7339 H         1 UNK         0.0600 
    218 H218       -1.5627  -25.2651  -55.4420 H         1 UNK         0.0600 
    219 H219       -0.0222  -24.4516  -55.1747 H         1 UNK         0.0600 
    220 H220        0.0078  -21.8026  -53.8560 H         1 UNK         0.3000 
    221 H221        1.0891  -20.1060  -55.9128 H         1 UNK         0.0600 
    222 H222        1.3530  -20.0904  -52.8723 H         1 UNK         0.0600 
    223 H223        2.4573  -20.8354  -54.0205 H         1 UNK         0.0600 
    224 H224        2.3200  -19.0839  -53.9457 H         1 UNK         0.0600 
    225 H225       -1.7230  -19.7929  -53.9756 H         1 UNK         0.3000 
    226 H226       -2.1691  -17.0063  -54.9279 H         1 UNK         0.0600 
    227 H227       -3.7026  -16.7542  -52.9401 H         1 UNK         0.0600 
    228 H228       -3.1465  -18.3031  -52.3161 H         1 UNK         0.0600 
    229 H229       -2.0265  -16.9470  -52.4550 H         1 UNK         0.0600 
    230 H230       -4.2908  -16.6802  -55.7103 H         1 UNK         0.3000 
    231 H231       -5.5270  -18.9590  -57.0143 H         1 UNK         0.0600 
    232 H232       -6.9385  -17.1840  -58.0480 H         1 UNK         0.0600 
    233 H233       -5.2301  -16.8039  -58.1857 H         1 UNK         0.0600 
    234 H234       -6.2231  -15.9753  -56.9873 H         1 UNK         0.0600 
    235 H235       -5.8576  -19.9027  -54.8301 H         1 UNK         0.3000 
    236 H236       -7.2075  -20.9108  -53.4125 H         1 UNK         0.0600 
    237 H237       -9.5358  -19.0607  -54.1355 H         1 UNK         0.0600 
    238 H238       -9.1884  -20.6053  -54.9138 H         1 UNK         0.0600 
    239 H239       -9.6135  -20.5485  -53.2100 H         1 UNK         0.0600 
    240 H240       -6.8266  -20.7203  -51.3191 H         1 UNK         0.3000 
    241 H241       -6.2146  -18.1441  -50.1381 H         1 UNK         0.0600 
    242 H242       -9.9656  -18.9747  -48.9453 H         1 UNK         0.3800 
    243 H243       -9.2596  -19.7270  -50.3510 H         1 UNK         0.3800 
    244 H244       -6.0993  -20.9479  -48.9395 H         1 UNK         0.0800 
    245 H245       -5.5011  -19.5105  -48.1590 H         1 UNK         0.0800 
    246 H246       -3.0459  -19.3558  -47.9744 H         1 UNK         0.0800 
    247 H247       -3.4372  -18.0502  -49.0688 H         1 UNK         0.0800 
@<TRIPOS>BOND
     1    1    2 1    
     2    1  127 1    
     3    1  128 1    
     4    1  129 1    
     5    2    3 2    
     6    2    4 am   BACKBONE|DICT|INTERRES
     7    4    5 1    
     8    4  130 1    
     9    5    6 1    
    10    5   65 1    
    11    5  131 1    
    12    6    7 1    
    13    6  132 1    
    14    6  133 1    
    15    7    8 1    
    16    8    9 1    
    17    8  134 1    
    18    8  135 1    
    19    9   10 ar   
    20    9   14 ar   
    21   10   11 ar   
    22   10  136 1    
    23   11   12 ar   
    24   11  126 1    
    25   12   13 ar   
    26   12  137 1    
    27   13   14 ar   
    28   13   15 1    
    29   14  138 1    
    30   15   16 1    
    31   15  139 1    
    32   15  140 1    
    33   16   17 1    
    34   17   18 1    
    35   17  141 1    
    36   17  142 1    
    37   18   19 1    
    38   18   67 1    
    39   18  143 1    
    40   19   20 am   BACKBONE|DICT|INTERRES
    41   19  144 1    
    42   20   21 2    
    43   20   22 1    
    44   22   23 1    
    45   22   24 1    
    46   22  145 1    
    47   23  146 1    
    48   23  147 1    
    49   23  148 1    
    50   24   25 am   BACKBONE|DICT|INTERRES
    51   24  149 1    
    52   25   26 2    
    53   25   27 1    
    54   27   28 1    
    55   27   29 1    
    56   27  150 1    
    57   28  151 1    
    58   28  152 1    
    59   28  153 1    
    60   29   30 am   BACKBONE|DICT|INTERRES
    61   29  154 1    
    62   30   31 2    
    63   30   32 1    
    64   32   33 1    
    65   32   34 1    
    66   32  155 1    
    67   33  156 1    
    68   33  157 1    
    69   33  158 1    
    70   34   35 am   BACKBONE|DICT|INTERRES
    71   34  159 1    
    72   35   36 2    
    73   35   37 1    
    74   37   38 1    
    75   37   39 1    
    76   37  160 1    
    77   38  161 1    
    78   38  162 1    
    79   38  163 1    
    80   39   40 am   BACKBONE|DICT|INTERRES
    81   39  164 1    
    82   40   41 2    
    83   40   42 1    
    84   42   43 1    
    85   42   44 1    
    86   42  165 1    
    87   43  166 1    
    88   43  167 1    
    89   43  168 1    
    90   44   45 am   BACKBONE|DICT|INTERRES
    91   44  169 1    
    92   45   46 2    
    93   45   47 1    
    94   47   48 1    
    95   47   49 1    
    96   47  170 1    
    97   48  171 1    
    98   48  172 1    
    99   48  173 1    
   100   49   50 am   BACKBONE|DICT|INTERRES
   101   49  174 1    
   102   50   51 2    
   103   50   52 1    
   104   52   53 1    
   105   52   54 1    
   106   52  175 1    
   107   53  176 1    
   108   53  177 1    
   109   53  178 1    
   110   54   55 am   BACKBONE|DICT|INTERRES
   111   54  179 1    
   112   55   56 2    
   113   55   57 1    
   114   57   58 1    
   115   57   59 1    
   116   57  180 1    
   117   58  181 1    
   118   58  182 1    
   119   58  183 1    
   120   59   60 am   BACKBONE|DICT|INTERRES
   121   59  184 1    
   122   60   61 2    
   123   60   62 1    
   124   62   63 1    
   125   62   64 1    
   126   62  185 1    
   127   63  186 1    
   128   63  187 1    
   129   63  188 1    
   130   64   65 am   BACKBONE|DICT|INTERRES
   131   64  189 1    
   132   65   66 2    
   133   67   68 2    
   134   67   69 am   BACKBONE|DICT|INTERRES
   135   69   70 1    
   136   69  190 1    
   137   70   71 1    
   138   70   72 1    
   139   70  191 1    
   140   71  192 1    
   141   71  193 1    
   142   71  194 1    
   143   72   73 2    
   144   72   74 am   BACKBONE|DICT|INTERRES
   145   74   75 1    
   146   74  195 1    
   147   75   76 1    
   148   75   77 1    
   149   75  196 1    
   150   76  197 1    
   151   76  198 1    
   152   76  199 1    
   153   77   78 2    
   154   77   79 am   BACKBONE|DICT|INTERRES
   155   79   80 1    
   156   79  200 1    
   157   80   81 1    
   158   80   82 1    
   159   80  201 1    
   160   81  202 1    
   161   81  203 1    
   162   81  204 1    
   163   82   83 2    
   164   82   84 am   BACKBONE|DICT|INTERRES
   165   84   85 1    
   166   84  205 1    
   167   85   86 1    
   168   85   87 1    
   169   85  206 1    
   170   86  207 1    
   171   86  208 1    
   172   86  209 1    
   173   87   88 2    
   174   87   89 am   BACKBONE|DICT|INTERRES
   175   89   90 1    
   176   89  210 1    
   177   90   91 1    
   178   90   92 1    
   179   90  211 1    
   180   91  212 1    
   181   91  213 1    
   182   91  214 1    
   183   92   93 2    
   184   92   94 am   BACKBONE|DICT|INTERRES
   185   94   95 1    
   186   94  215 1    
   187   95   96 1    
   188   95   97 1    
   189   95  216 1    
   190   96  217 1    
   191   96  218 1    
   192   96  219 1    
   193   97   98 2    
   194   97   99 am   BACKBONE|DICT|INTERRES
   195   99  100 1    
   196   99  220 1    
   197  100  101 1    
   198  100  102 1    
   199  100  221 1    
   200  101  222 1    
   201  101  223 1    
   202  101  224 1    
   203  102  103 2    
   204  102  104 am   BACKBONE|DICT|INTERRES
   205  104  105 1    
   206  104  225 1    
   207  105  106 1    
   208  105  107 1    
   209  105  226 1    
   210  106  227 1    
   211  106  228 1    
   212  106  229 1    
   213  107  108 2    
   214  107  109 am   BACKBONE|DICT|INTERRES
   215  109  110 1    
   216  109  230 1    
   217  110  111 1    
   218  110  112 1    
   219  110  231 1    
   220  111  232 1    
   221  111  233 1    
   222  111  234 1    
   223  112  113 2    
   224  112  114 am   BACKBONE|DICT|INTERRES
   225  114  115 1    
   226  114  235 1    
   227  115  116 1    
   228  115  117 1    
   229  115  236 1    
   230  116  237 1    
   231  116  238 1    
   232  116  239 1    
   233  117  118 2    
   234  117  119 am   BACKBONE|DICT|INTERRES
   235  119  120 1    
   236  119  240 1    
   237  120  121 1    
   238  120  124 1    
   239  120  241 1    
   240  121  122 am   BACKBONE|DICT|INTERRES
   241  121  123 2    
   242  122  242 1    
   243  122  243 1    
   244  124  125 1    
   245  124  244 1    
   246  124  245 1    
   247  125  126 1    
   248  126  246 1    
   249  126  247 1    
@<TRIPOS>SUBSTRUCTURE
     1 UNK         1 GROUP             0       ****    0 ROOT    
