@<TRIPOS>MOLECULE
3R540
247   249    1
SMALL
USER_CHARGES


@<TRIPOS>ATOM
      1 CA         -0.9558   -9.8064  -49.7709 C.3       0 UNK        -0.1800 
      2 C          -0.1510  -11.0982  -49.7895 C.2       0 UNK         0.5000 
      3 O           1.0786  -11.0545  -49.7502 O.2       0 UNK        -0.5000 
      4 N          -0.8390  -12.2459  -49.8476 N.am      1 UNK        -0.5000 
      5 CA         -0.2392  -13.5876  -49.8645 C.3       1 UNK         0.1400 
      6 C6         -1.2516  -14.6627  -50.3321 C.3       23 UNK        -0.0398 
      7 S7         -1.5391  -14.5915  -52.1324 S.3       23 UNK        -0.2404 
      8 C8         -0.0778  -15.4740  -52.7806 C.3       23 UNK        -0.0205 
      9 C9         -0.1293  -16.9684  -52.4999 C.ar      23 UNK        -0.0193 
     10 C10        -0.7664  -17.8286  -53.3979 C.ar      23 UNK        -0.1150 
     11 C11        -0.8263  -19.2019  -53.1466 C.ar      23 UNK        -0.0193 
     12 C12        -0.2615  -19.7061  -51.9689 C.ar      23 UNK        -0.1150 
     13 C13         0.3894  -18.8605  -51.0672 C.ar      23 UNK        -0.0193 
     14 C14         0.4700  -17.4949  -51.3515 C.ar      23 UNK        -0.1150 
     15 C15         1.0551  -19.4296  -49.8203 C.3       23 UNK        -0.0205 
     16 S16         0.4587  -18.6768  -48.2686 S.3       23 UNK        -0.2404 
     17 C17        -1.1122  -19.5510  -47.9461 C.3       23 UNK        -0.0398 
     18 CA         -0.9258  -20.9885  -47.3985 C.3       11 UNK         0.1400 
     19 N          -0.0152  -21.0802  -46.2488 N.am      11 UNK        -0.5000 
     20 C           0.5467  -22.2313  -45.8497 C.2       10 UNK         0.5000 
     21 O           0.3347  -23.3144  -46.3938 O.2       10 UNK        -0.5000 
     22 CA          1.4510  -22.1877  -44.6073 C.3       10 UNK         0.1400 
     23 CB          2.8000  -21.5229  -44.9199 C.3       10 UNK        -0.1800 
     24 N           0.8052  -21.5274  -43.4742 N.am      10 UNK        -0.5000 
     25 C          -0.3049  -21.9805  -42.8736 C.2       9 UNK         0.5000 
     26 O          -0.8742  -23.0257  -43.1907 O.2       9 UNK        -0.5000 
     27 CA         -0.9027  -21.1072  -41.7555 C.3       9 UNK         0.1400 
     28 CB         -0.2081  -21.3956  -40.4166 C.3       9 UNK        -0.1800 
     29 N          -0.8381  -19.6743  -42.0466 N.am      9 UNK        -0.5000 
     30 C          -1.4482  -19.0737  -43.0790 C.2       8 UNK         0.5000 
     31 O          -2.1606  -19.6612  -43.8910 O.2       8 UNK        -0.5000 
     32 CA         -1.1601  -17.5762  -43.2808 C.3       8 UNK         0.1400 
     33 CB         -1.9534  -16.7138  -42.2887 C.3       8 UNK        -0.1800 
     34 N           0.2650  -17.2697  -43.1742 N.am      8 UNK        -0.5000 
     35 C           1.2077  -17.7725  -43.9845 C.2       7 UNK         0.5000 
     36 O           0.9703  -18.5239  -44.9296 O.2       7 UNK        -0.5000 
     37 CA          2.6633  -17.4181  -43.6413 C.3       7 UNK         0.1400 
     38 CB          3.0266  -16.0146  -44.1509 C.3       7 UNK        -0.1800 
     39 N           2.9131  -17.5035  -42.2022 N.am      7 UNK        -0.5000 
     40 C           2.9272  -18.6503  -41.5072 C.2       6 UNK         0.5000 
     41 O           2.7755  -19.7608  -42.0154 O.2       6 UNK        -0.5000 
     42 CA          3.0994  -18.5299  -39.9823 C.3       6 UNK         0.1400 
     43 CB          4.5828  -18.3803  -39.6133 C.3       6 UNK        -0.1800 
     44 N           2.3428  -17.4110  -39.4181 N.am      6 UNK        -0.5000 
     45 C           1.0044  -17.3383  -39.3923 C.2       5 UNK         0.5000 
     46 O           0.2635  -18.2222  -39.8189 O.2       5 UNK        -0.5000 
     47 CA          0.3907  -16.0394  -38.8390 C.3       5 UNK         0.1400 
     48 CB          0.2297  -16.1254  -37.3141 C.3       5 UNK        -0.1800 
     49 N           1.1630  -14.8419  -39.1812 N.am      5 UNK        -0.5000 
     50 C           1.3775  -14.4086  -40.4293 C.2       4 UNK         0.5000 
     51 O           0.9700  -14.9893  -41.4408 O.2       4 UNK        -0.5000 
     52 CA          2.2247  -13.1397  -40.5744 C.3       4 UNK         0.1400 
     53 CB          3.7252  -13.4807  -40.5227 C.3       4 UNK        -0.1800 
     54 N           1.8968  -12.5255  -41.8536 N.am      4 UNK        -0.5000 
     55 C           2.0952  -11.2469  -42.1950 C.2       3 UNK         0.5000 
     56 O           2.5985  -10.4146  -41.4388 O.2       3 UNK        -0.5000 
     57 CA          1.6682  -10.8325  -43.6180 C.3       3 UNK         0.1400 
     58 CB          2.6624   -9.8515  -44.2663 C.3       3 UNK        -0.1800 
     59 N           1.5127  -12.0045  -44.4824 N.am      3 UNK        -0.5000 
     60 C           0.5172  -12.1983  -45.3516 C.2       2 UNK         0.5000 
     61 O          -0.3858  -11.3864  -45.5702 O.2       2 UNK        -0.5000 
     62 CA          0.5222  -13.5449  -46.0829 C.3       2 UNK         0.1400 
     63 CB         -0.3119  -14.5890  -45.3235 C.3       2 UNK        -0.1800 
     64 N          -0.0270  -13.3575  -47.4184 N.am      2 UNK        -0.5000 
     65 C           0.3978  -13.9899  -48.5171 C.2       1 UNK         0.5000 
     66 O           1.2712  -14.8578  -48.5063 O.2       1 UNK        -0.5000 
     67 C          -2.2876  -21.6621  -47.1208 C.2       11 UNK         0.5000 
     68 O          -2.9023  -22.1737  -48.0586 O.2       11 UNK        -0.5000 
     69 N          -2.7324  -21.6894  -45.8539 N.am      12 UNK        -0.5000 
     70 CA         -3.8985  -22.4507  -45.3966 C.3       12 UNK         0.1400 
     71 CB         -4.2250  -22.1291  -43.9315 C.3       12 UNK        -0.1800 
     72 C          -3.7249  -23.9628  -45.6087 C.2       12 UNK         0.5000 
     73 O          -4.6150  -24.6015  -46.1698 O.2       12 UNK        -0.5000 
     74 N          -2.5709  -24.4933  -45.1869 N.am      13 UNK        -0.5000 
     75 CA         -2.2170  -25.9029  -45.3241 C.3       13 UNK         0.1400 
     76 CB         -1.0130  -26.2124  -44.4204 C.3       13 UNK        -0.1800 
     77 C          -1.9254  -26.3112  -46.7792 C.2       13 UNK         0.5000 
     78 O          -2.4414  -27.3315  -47.2373 O.2       13 UNK        -0.5000 
     79 N          -1.0846  -25.5295  -47.4685 N.am      14 UNK        -0.5000 
     80 CA         -0.5367  -25.8857  -48.7771 C.3       14 UNK         0.1400 
     81 CB          0.7990  -25.1526  -48.9785 C.3       14 UNK        -0.1800 
     82 C          -1.4749  -25.5874  -49.9574 C.2       14 UNK         0.5000 
     83 O          -1.4085  -26.3004  -50.9598 O.2       14 UNK        -0.5000 
     84 N          -2.2873  -24.5280  -49.8504 N.am      15 UNK        -0.5000 
     85 CA         -2.9946  -23.9340  -50.9879 C.3       15 UNK         0.1400 
     86 CB         -2.2192  -22.6858  -51.4331 C.3       15 UNK        -0.1800 
     87 C          -4.4665  -23.6074  -50.6943 C.2       15 UNK         0.5000 
     88 O          -5.0768  -22.8627  -51.4651 O.2       15 UNK        -0.5000 
     89 N          -5.0081  -24.1443  -49.5907 N.am      16 UNK        -0.5000 
     90 CA         -6.3865  -23.9643  -49.1179 C.3       16 UNK         0.1400 
     91 CB         -7.3766  -24.6935  -50.0496 C.3       16 UNK        -0.1800 
     92 C          -6.7482  -22.4824  -48.8743 C.2       16 UNK         0.5000 
     93 O          -7.8315  -22.0344  -49.2498 O.2       16 UNK        -0.5000 
     94 N          -5.8053  -21.7580  -48.2561 N.am      17 UNK        -0.5000 
     95 CA         -5.8259  -20.3267  -47.9336 C.3       17 UNK         0.1400 
     96 CB         -7.0432  -19.9413  -47.0668 C.3       17 UNK        -0.1800 
     97 C          -5.6504  -19.4632  -49.1936 C.2       17 UNK         0.5000 
     98 O          -6.3633  -18.4761  -49.3798 O.2       17 UNK        -0.5000 
     99 N          -4.6857  -19.8739  -50.0312 N.am      18 UNK        -0.5000 
    100 CA        -4.3134  -19.2734  -51.3163 C.3       18 UNK         0.1400 
    101 CB        -3.6974  -17.8723  -51.1140 C.3       18 UNK        -0.1800 
    102 C         -5.4600  -19.2975  -52.3521 C.2       18 UNK         0.5000 
    103 O         -5.5875  -18.3752  -53.1589 O.2       18 UNK        -0.5000 
    104 N         -6.2767  -20.3589  -52.3076 N.am      19 UNK        -0.5000 
    105 CA        -7.3608  -20.6171  -53.2547 C.3       19 UNK         0.1400 
    106 CB        -8.4397  -21.4655  -52.5680 C.3       19 UNK        -0.1800 
    107 C         -6.8506  -21.3152  -54.5277 C.2       19 UNK         0.5000 
    108 O         -7.4558  -21.1549  -55.5891 O.2       19 UNK        -0.5000 
    109 N         -5.7453  -22.0649  -54.4061 N.am      20 UNK        -0.5000 
    110 CA        -5.0020  -22.6484  -55.5236 C.3       20 UNK         0.1400 
    111 CB        -3.9647  -23.6328  -54.9608 C.3       20 UNK        -0.1800 
    112 C         -4.3170  -21.5681  -56.3877 C.2       20 UNK         0.5000 
    113 O         -4.1303  -20.4378  -55.9327 O.2       20 UNK        -0.5000 
    114 N         -3.9432  -21.9355  -57.6201 N.am      21 UNK        -0.5000 
    115 CA        -3.2566  -21.0453  -58.5610 C.3       21 UNK         0.1400 
    116 CB        -3.3260  -21.6455  -59.9740 C.3       21 UNK        -0.1800 
    117 C         -1.7955  -20.7641  -58.1603 C.2       21 UNK         0.5000 
    118 O         -1.3415  -19.6258  -58.2795 O.2       21 UNK        -0.5000 
    119 N         -1.0985  -21.8093  -57.6920 N.am      22 UNK        -0.5000 
    120 CA         0.3026  -21.7928  -57.2241 C.3       22 UNK         0.1400 
    121 C          1.3632  -21.4467  -58.3163 C.2       22 UNK         0.5000 
    122 N          1.0500  -21.5644  -59.6011 N.am      22 UNK        -0.7600 
    123 O          2.4989  -21.0991  -58.0029 O.2       22 UNK        -0.5000 
    124 C124        0.5000  -20.9767  -55.9143 C.3       23 UNK        -0.0398 
    125 S125       -0.5542  -21.6012  -54.5619 S.3       23 UNK        -0.2404 
    126 C126       -1.5310  -20.1231  -54.1353 C.3       23 UNK        -0.0205 
    127 H127       -0.7590   -9.2561  -48.8507 H         1 UNK         0.0600 
    128 H128       -2.0278   -9.9952  -49.8315 H         1 UNK         0.0600 
    129 H129       -0.6736   -9.1760  -50.6140 H         1 UNK         0.0600 
    130 H130       -1.8475  -12.2155  -49.8972 H         1 UNK         0.3000 
    131 H131        0.5879  -13.5627  -50.5764 H         1 UNK         0.0600 
    132 H132       -0.9325  -15.6695  -50.0666 H         1 UNK         0.0800 
    133 H133       -2.2081  -14.5298  -49.8245 H         1 UNK         0.0800 
    134 H134        0.8349  -15.0435  -52.3675 H         1 UNK         0.0800 
    135 H135       -0.0231  -15.3084  -53.8576 H         1 UNK         0.0800 
    136 H136       -1.2214  -17.4244  -54.2914 H         1 UNK         0.1150 
    137 H137       -0.3038  -20.7650  -51.7672 H         1 UNK         0.1150 
    138 H138        0.9893  -16.8402  -50.6652 H         1 UNK         0.1150 
    139 H139        0.9400  -20.5128  -49.7713 H         1 UNK         0.0800 
    140 H140        2.1275  -19.2458  -49.8961 H         1 UNK         0.0800 
    141 H141       -1.6952  -19.5638  -48.8687 H         1 UNK         0.0800 
    142 H142       -1.6784  -18.9487  -47.2332 H         1 UNK         0.0800 
    143 H143       -0.4725  -21.5709  -48.2032 H         1 UNK         0.0600 
    144 H144        0.2168  -20.2144  -45.7695 H         1 UNK         0.3000 
    145 H145        1.6520  -23.2198  -44.3125 H         1 UNK         0.0600 
    146 H146        3.4663  -21.5605  -44.0581 H         1 UNK         0.0600 
    147 H147        3.3031  -22.0338  -45.7418 H         1 UNK         0.0600 
    148 H148        2.6847  -20.4787  -45.2077 H         1 UNK         0.0600 
    149 H149        1.2415  -20.6800  -43.1290 H         1 UNK         0.3000 
    150 H150       -1.9557  -21.3745  -41.6522 H         1 UNK         0.0600 
    151 H151       -0.2504  -22.4582  -40.1744 H         1 UNK         0.0600 
    152 H152       -0.6888  -20.8570  -39.5998 H         1 UNK         0.0600 
    153 H153        0.8423  -21.1037  -40.4374 H         1 UNK         0.0600 
    154 H154       -0.2994  -19.1066  -41.3973 H         1 UNK         0.3000 
    155 H155       -1.4802  -17.3109  -44.2905 H         1 UNK         0.0600 
    156 H156       -1.6822  -16.9323  -41.2563 H         1 UNK         0.0600 
    157 H157       -3.0248  -16.8900  -42.3907 H         1 UNK         0.0600 
    158 H158       -1.7790  -15.6517  -42.4625 H         1 UNK         0.0600 
    159 H159        0.5426  -16.6307  -42.4356 H         1 UNK         0.3000 
    160 H160        3.3101  -18.1397  -44.1450 H         1 UNK         0.0600 
    161 H161        2.4353  -15.2392  -43.6652 H         1 UNK         0.0600 
    162 H162        2.8539  -15.9362  -45.2252 H         1 UNK         0.0600 
    163 H163        4.0790  -15.7924  -43.9740 H         1 UNK         0.0600 
    164 H164        2.9953  -16.6322  -41.7010 H         1 UNK         0.3000 
    165 H165        2.7269  -19.4525  -39.5319 H         1 UNK         0.0600 
    166 H166        4.7212  -18.3744  -38.5320 H         1 UNK         0.0600 
    167 H167        5.1688  -19.2104  -40.0103 H         1 UNK         0.0600 
    168 H168        5.0079  -17.4581  -40.0116 H         1 UNK         0.0600 
    169 H169        2.8746  -16.6392  -39.0443 H         1 UNK         0.3000 
    170 H170       -0.6024  -15.9311  -39.2795 H         1 UNK         0.0600 
    171 H171       -0.3595  -16.9994  -37.0327 H         1 UNK         0.0600 
    172 H172        1.1938  -16.2031  -36.8099 H         1 UNK         0.0600 
    173 H173       -0.2855  -15.2485  -36.9217 H         1 UNK         0.0600 
    174 H174        1.5392  -14.3138  -38.4068 H         1 UNK         0.3000 
    175 H175        1.9693  -12.4525  -39.7651 H         1 UNK         0.0600 
    176 H176        4.0111  -14.1578  -41.3287 H         1 UNK         0.0600 
    177 H177        4.3383  -12.5835  -40.6086 H         1 UNK         0.0600 
    178 H178        3.9882  -13.9606  -39.5793 H         1 UNK         0.0600 
    179 H179        1.3974  -13.1423  -42.4811 H         1 UNK         0.3000 
    180 H180        0.7081  -10.3248  -43.5061 H         1 UNK         0.0600 
    181 H181        3.6542  -10.2938  -44.3647 H         1 UNK         0.0600 
    182 H182        2.7634   -8.9415  -43.6737 H         1 UNK         0.0600 
    183 H183        2.3285   -9.5526  -45.2600 H         1 UNK         0.0600 
    184 H184        2.2291  -12.7107  -44.3871 H         1 UNK         0.3000 
    185 H185        1.5559  -13.8911  -46.1506 H         1 UNK         0.0600 
    186 H186        0.0365  -14.6968  -44.2962 H         1 UNK         0.0600 
    187 H187       -1.3656  -14.3110  -45.2827 H         1 UNK         0.0600 
    188 H188       -0.2414  -15.5679  -45.7985 H         1 UNK         0.0600 
    189 H189       -0.7010  -12.6075  -47.5024 H         1 UNK         0.3000 
    190 H190       -2.2260  -21.1712  -45.1419 H         1 UNK         0.3000 
    191 H191       -4.7618  -22.1361  -45.9747 H         1 UNK         0.0600 
    192 H192       -3.4064  -22.3902  -43.2640 H         1 UNK         0.0600 
    193 H193       -5.1041  -22.6828  -43.5993 H         1 UNK         0.0600 
    194 H194       -4.4443  -21.0698  -43.7998 H         1 UNK         0.0600 
    195 H195       -1.8988  -23.8986  -44.7116 H         1 UNK         0.3000 
    196 H196       -3.0612  -26.5008  -44.9738 H         1 UNK         0.0600 
    197 H197       -0.7248  -27.2616  -44.4962 H         1 UNK         0.0600 
    198 H198       -1.2459  -26.0130  -43.3742 H         1 UNK         0.0600 
    199 H199       -0.1431  -25.6106  -44.6869 H         1 UNK         0.0600 
    200 H200       -0.6797  -24.7121  -47.0150 H         1 UNK         0.3000 
    201 H201       -0.3283  -26.9580  -48.7857 H         1 UNK         0.0600 
    202 H202        1.5010  -25.3822  -48.1767 H         1 UNK         0.0600 
    203 H203        0.6638  -24.0705  -49.0059 H         1 UNK         0.0600 
    204 H204        1.2697  -25.4472  -49.9173 H         1 UNK         0.0600 
    205 H205       -2.2968  -23.9885  -48.9924 H         1 UNK         0.3000 
    206 H206       -3.0217  -24.6283  -51.8298 H         1 UNK         0.0600 
    207 H207       -1.2081  -22.9490  -51.7434 H         1 UNK         0.0600 
    208 H208       -2.7004  -22.2046  -52.2816 H         1 UNK         0.0600 
    209 H209       -2.1456  -21.9483  -50.6340 H         1 UNK         0.0600 
    210 H210       -4.4192  -24.7273  -49.0124 H         1 UNK         0.3000 
    211 H211       -6.4460  -24.4490  -48.1429 H         1 UNK         0.0600 
    212 H212       -7.3632  -24.2846  -51.0589 H         1 UNK         0.0600 
    213 H213       -8.3986  -24.6172  -49.6766 H         1 UNK         0.0600 
    214 H214       -7.1375  -25.7545  -50.1193 H         1 UNK         0.0600 
    215 H215       -4.9214  -22.2217  -48.0728 H         1 UNK         0.3000 
    216 H216       -4.9392  -20.1383  -47.3278 H         1 UNK         0.0600 
    217 H217       -6.9510  -18.9165  -46.7057 H         1 UNK         0.0600 
    218 H218       -7.1248  -20.5869  -46.1924 H         1 UNK         0.0600 
    219 H219       -7.9794  -20.0041  -47.6215 H         1 UNK         0.0600 
    220 H220       -4.1911  -20.7202  -49.7866 H         1 UNK         0.3000 
    221 H221       -3.5309  -19.9116  -51.7237 H         1 UNK         0.0600 
    222 H222       -4.4216  -17.1611  -50.7168 H         1 UNK         0.0600 
    223 H223       -2.8489  -17.9073  -50.4308 H         1 UNK         0.0600 
    224 H224       -3.3298  -17.4662  -52.0567 H         1 UNK         0.0600 
    225 H225       -6.0693  -21.1024  -51.6495 H         1 UNK         0.3000 
    226 H226       -7.8140  -19.6687  -53.5506 H         1 UNK         0.0600 
    227 H227       -8.8363  -20.9606  -51.6869 H         1 UNK         0.0600 
    228 H228       -9.2770  -21.6542  -53.2409 H         1 UNK         0.0600 
    229 H229       -8.0471  -22.4312  -52.2518 H         1 UNK         0.0600 
    230 H230       -5.3357  -22.1622  -53.4854 H         1 UNK         0.3000 
    231 H231       -5.7059  -23.1988  -56.1511 H         1 UNK         0.0600 
    232 H232       -4.4360  -24.3903  -54.3341 H         1 UNK         0.0600 
    233 H233       -3.2128  -23.1223  -54.3603 H         1 UNK         0.0600 
    234 H234       -3.4410  -24.1547  -55.7623 H         1 UNK         0.0600 
    235 H235       -4.1308  -22.8761  -57.9361 H         1 UNK         0.3000 
    236 H236       -3.7852  -20.0895  -58.5767 H         1 UNK         0.0600 
    237 H237       -2.8335  -20.9954  -60.6985 H         1 UNK         0.0600 
    238 H238       -2.8410  -22.6211  -60.0248 H         1 UNK         0.0600 
    239 H239       -4.3593  -21.7673  -60.2995 H         1 UNK         0.0600 
    240 H240       -1.5653  -22.7017  -57.6310 H         1 UNK         0.3000 
    241 H241        0.5241  -22.8314  -56.9762 H         1 UNK         0.0600 
    242 H242        1.7420  -21.3503  -60.3022 H         1 UNK         0.3800 
    243 H243        0.1285  -21.8604  -59.8797 H         1 UNK         0.3800 
    244 H244        1.5325  -21.0457  -55.5688 H         1 UNK         0.0800 
    245 H245        0.3116  -19.9167  -56.0884 H         1 UNK         0.0800 
    246 H246       -2.4809  -20.4392  -53.7090 H         1 UNK         0.0800 
    247 H247       -1.7833  -19.5869  -55.0513 H         1 UNK         0.0800 
@<TRIPOS>BOND
     1    1    2 1    
     2    1  127 1    
     3    1  128 1    
     4    1  129 1    
     5    2    3 2    
     6    2    4 am   BACKBONE|DICT|INTERRES
     7    4    5 1    
     8    4  130 1    
     9    5    6 1    
    10    5   65 1    
    11    5  131 1    
    12    6    7 1    
    13    6  132 1    
    14    6  133 1    
    15    7    8 1    
    16    8    9 1    
    17    8  134 1    
    18    8  135 1    
    19    9   10 ar   
    20    9   14 ar   
    21   10   11 ar   
    22   10  136 1    
    23   11   12 ar   
    24   11  126 1    
    25   12   13 ar   
    26   12  137 1    
    27   13   14 ar   
    28   13   15 1    
    29   14  138 1    
    30   15   16 1    
    31   15  139 1    
    32   15  140 1    
    33   16   17 1    
    34   17   18 1    
    35   17  141 1    
    36   17  142 1    
    37   18   19 1    
    38   18   67 1    
    39   18  143 1    
    40   19   20 am   BACKBONE|DICT|INTERRES
    41   19  144 1    
    42   20   21 2    
    43   20   22 1    
    44   22   23 1    
    45   22   24 1    
    46   22  145 1    
    47   23  146 1    
    48   23  147 1    
    49   23  148 1    
    50   24   25 am   BACKBONE|DICT|INTERRES
    51   24  149 1    
    52   25   26 2    
    53   25   27 1    
    54   27   28 1    
    55   27   29 1    
    56   27  150 1    
    57   28  151 1    
    58   28  152 1    
    59   28  153 1    
    60   29   30 am   BACKBONE|DICT|INTERRES
    61   29  154 1    
    62   30   31 2    
    63   30   32 1    
    64   32   33 1    
    65   32   34 1    
    66   32  155 1    
    67   33  156 1    
    68   33  157 1    
    69   33  158 1    
    70   34   35 am   BACKBONE|DICT|INTERRES
    71   34  159 1    
    72   35   36 2    
    73   35   37 1    
    74   37   38 1    
    75   37   39 1    
    76   37  160 1    
    77   38  161 1    
    78   38  162 1    
    79   38  163 1    
    80   39   40 am   BACKBONE|DICT|INTERRES
    81   39  164 1    
    82   40   41 2    
    83   40   42 1    
    84   42   43 1    
    85   42   44 1    
    86   42  165 1    
    87   43  166 1    
    88   43  167 1    
    89   43  168 1    
    90   44   45 am   BACKBONE|DICT|INTERRES
    91   44  169 1    
    92   45   46 2    
    93   45   47 1    
    94   47   48 1    
    95   47   49 1    
    96   47  170 1    
    97   48  171 1    
    98   48  172 1    
    99   48  173 1    
   100   49   50 am   BACKBONE|DICT|INTERRES
   101   49  174 1    
   102   50   51 2    
   103   50   52 1    
   104   52   53 1    
   105   52   54 1    
   106   52  175 1    
   107   53  176 1    
   108   53  177 1    
   109   53  178 1    
   110   54   55 am   BACKBONE|DICT|INTERRES
   111   54  179 1    
   112   55   56 2    
   113   55   57 1    
   114   57   58 1    
   115   57   59 1    
   116   57  180 1    
   117   58  181 1    
   118   58  182 1    
   119   58  183 1    
   120   59   60 am   BACKBONE|DICT|INTERRES
   121   59  184 1    
   122   60   61 2    
   123   60   62 1    
   124   62   63 1    
   125   62   64 1    
   126   62  185 1    
   127   63  186 1    
   128   63  187 1    
   129   63  188 1    
   130   64   65 am   BACKBONE|DICT|INTERRES
   131   64  189 1    
   132   65   66 2    
   133   67   68 2    
   134   67   69 am   BACKBONE|DICT|INTERRES
   135   69   70 1    
   136   69  190 1    
   137   70   71 1    
   138   70   72 1    
   139   70  191 1    
   140   71  192 1    
   141   71  193 1    
   142   71  194 1    
   143   72   73 2    
   144   72   74 am   BACKBONE|DICT|INTERRES
   145   74   75 1    
   146   74  195 1    
   147   75   76 1    
   148   75   77 1    
   149   75  196 1    
   150   76  197 1    
   151   76  198 1    
   152   76  199 1    
   153   77   78 2    
   154   77   79 am   BACKBONE|DICT|INTERRES
   155   79   80 1    
   156   79  200 1    
   157   80   81 1    
   158   80   82 1    
   159   80  201 1    
   160   81  202 1    
   161   81  203 1    
   162   81  204 1    
   163   82   83 2    
   164   82   84 am   BACKBONE|DICT|INTERRES
   165   84   85 1    
   166   84  205 1    
   167   85   86 1    
   168   85   87 1    
   169   85  206 1    
   170   86  207 1    
   171   86  208 1    
   172   86  209 1    
   173   87   88 2    
   174   87   89 am   BACKBONE|DICT|INTERRES
   175   89   90 1    
   176   89  210 1    
   177   90   91 1    
   178   90   92 1    
   179   90  211 1    
   180   91  212 1    
   181   91  213 1    
   182   91  214 1    
   183   92   93 2    
   184   92   94 am   BACKBONE|DICT|INTERRES
   185   94   95 1    
   186   94  215 1    
   187   95   96 1    
   188   95   97 1    
   189   95  216 1    
   190   96  217 1    
   191   96  218 1    
   192   96  219 1    
   193   97   98 2    
   194   97   99 am   BACKBONE|DICT|INTERRES
   195   99  100 1    
   196   99  220 1    
   197  100  101 1    
   198  100  102 1    
   199  100  221 1    
   200  101  222 1    
   201  101  223 1    
   202  101  224 1    
   203  102  103 2    
   204  102  104 am   BACKBONE|DICT|INTERRES
   205  104  105 1    
   206  104  225 1    
   207  105  106 1    
   208  105  107 1    
   209  105  226 1    
   210  106  227 1    
   211  106  228 1    
   212  106  229 1    
   213  107  108 2    
   214  107  109 am   BACKBONE|DICT|INTERRES
   215  109  110 1    
   216  109  230 1    
   217  110  111 1    
   218  110  112 1    
   219  110  231 1    
   220  111  232 1    
   221  111  233 1    
   222  111  234 1    
   223  112  113 2    
   224  112  114 am   BACKBONE|DICT|INTERRES
   225  114  115 1    
   226  114  235 1    
   227  115  116 1    
   228  115  117 1    
   229  115  236 1    
   230  116  237 1    
   231  116  238 1    
   232  116  239 1    
   233  117  118 2    
   234  117  119 am   BACKBONE|DICT|INTERRES
   235  119  120 1    
   236  119  240 1    
   237  120  121 1    
   238  120  124 1    
   239  120  241 1    
   240  121  122 am   BACKBONE|DICT|INTERRES
   241  121  123 2    
   242  122  242 1    
   243  122  243 1    
   244  124  125 1    
   245  124  244 1    
   246  124  245 1    
   247  125  126 1    
   248  126  246 1    
   249  126  247 1    
@<TRIPOS>SUBSTRUCTURE
     1 UNK         1 GROUP             0       ****    0 ROOT    
