@<TRIPOS>MOLECULE
3R540
247   249    1
SMALL
USER_CHARGES


@<TRIPOS>ATOM
      1 CA         -2.2572  -11.0558  -48.7618 C.3       0 UNK        -0.1800 
      2 C          -1.1697  -11.7674  -47.9706 C.2       0 UNK         0.5000 
      3 O          -1.3168  -11.9471  -46.7626 O.2       0 UNK        -0.5000 
      4 N          -0.0922  -12.1843  -48.6530 N.am      1 UNK        -0.5000 
      5 CA          1.0900  -12.8691  -48.1048 C.3       1 UNK         0.1400 
      6 C6          2.1124  -13.1743  -49.2343 C.3       23 UNK        -0.0398 
      7 S7          3.5608  -14.1962  -48.7720 S.3       23 UNK        -0.2404 
      8 C8          3.7556  -15.2841  -50.2236 C.3       23 UNK        -0.0205 
      9 C9          2.7474  -16.4271  -50.2598 C.ar      23 UNK        -0.0193 
     10 C10         1.5440  -16.2844  -50.9581 C.ar      23 UNK        -0.1150 
     11 C11         0.6295  -17.3376  -51.0279 C.ar      23 UNK        -0.0193 
     12 C12         0.9334  -18.5510  -50.4047 C.ar      23 UNK        -0.1150 
     13 C13         2.1413  -18.7194  -49.7208 C.ar      23 UNK        -0.0193 
     14 C14         3.0399  -17.6494  -49.6431 C.ar      23 UNK        -0.1150 
     15 C15         2.4839  -20.0741  -49.1082 C.3       23 UNK        -0.0205 
     16 S16         2.5165  -20.0653  -47.2861 S.3       23 UNK        -0.2404 
     17 C17         0.8150  -19.5655  -46.8693 C.3       23 UNK        -0.0398 
     18 CA         -0.0463  -20.7477  -46.3838 C.3       11 UNK         0.1400 
     19 N           0.3779  -21.2724  -45.0792 N.am      11 UNK        -0.5000 
     20 C          -0.1496  -22.3596  -44.4923 C.2       10 UNK         0.5000 
     21 O          -1.0704  -23.0118  -44.9910 O.2       10 UNK        -0.5000 
     22 CA          0.3854  -22.7523  -43.1013 C.3       10 UNK         0.1400 
     23 CB          0.3141  -24.2717  -42.8421 C.3       10 UNK        -0.1800 
     24 N           1.7154  -22.2149  -42.8000 N.am      10 UNK        -0.5000 
     25 C           2.8905  -22.5470  -43.3591 C.2       9 UNK         0.5000 
     26 O           3.0099  -23.3952  -44.2436 O.2       9 UNK        -0.5000 
     27 CA          4.1468  -21.8071  -42.8486 C.3       9 UNK         0.1400 
     28 CB          4.9933  -21.2667  -44.0149 C.3       9 UNK        -0.1800 
     29 N           3.8035  -20.6953  -41.9590 N.am      9 UNK        -0.5000 
     30 C           3.7450  -20.7589  -40.6208 C.2       8 UNK         0.5000 
     31 O           4.0647  -21.7551  -39.9722 O.2       8 UNK        -0.5000 
     32 CA          3.2113  -19.5151  -39.8774 C.3       8 UNK         0.1400 
     33 CB          4.3755  -18.6853  -39.3161 C.3       8 UNK        -0.1800 
     34 N           2.3720  -18.6505  -40.7106 N.am      8 UNK        -0.5000 
     35 C           1.1674  -18.9808  -41.2016 C.2       7 UNK         0.5000 
     36 O           0.5976  -20.0420  -40.9489 O.2       7 UNK        -0.5000 
     37 CA          0.5307  -17.9995  -42.2071 C.3       7 UNK         0.1400 
     38 CB         -0.4370  -17.0481  -41.4904 C.3       7 UNK        -0.1800 
     39 N           1.5280  -17.2306  -42.9611 N.am      7 UNK        -0.5000 
     40 C           2.4383  -17.7862  -43.7779 C.2       6 UNK         0.5000 
     41 O           2.4635  -18.9952  -44.0097 O.2       6 UNK        -0.5000 
     42 CA          3.5337  -16.8864  -44.3876 C.3       6 UNK         0.1400 
     43 CB          3.3971  -16.7770  -45.9117 C.3       6 UNK        -0.1800 
     44 N           3.5729  -15.5446  -43.8076 N.am      6 UNK        -0.5000 
     45 C           4.0723  -15.2635  -42.5957 C.2       5 UNK         0.5000 
     46 O           4.5516  -16.1145  -41.8456 O.2       5 UNK        -0.5000 
     47 CA          3.9945  -13.7978  -42.1238 C.3       5 UNK         0.1400 
     48 CB          5.3151  -13.0705  -42.4176 C.3       5 UNK        -0.1800 
     49 N           2.8879  -13.0299  -42.7043 N.am      5 UNK        -0.5000 
     50 C           1.5880  -13.3304  -42.5781 C.2       4 UNK         0.5000 
     51 O           1.1906  -14.3346  -41.9854 O.2       4 UNK        -0.5000 
     52 CA          0.5691  -12.3625  -43.2126 C.3       4 UNK         0.1400 
     53 CB          1.1924  -11.3609  -44.2060 C.3       4 UNK        -0.1800 
     54 N          -0.4695  -13.1211  -43.9017 N.am      4 UNK        -0.5000 
     55 C          -1.6320  -13.5163  -43.3666 C.2       3 UNK         0.5000 
     56 O          -1.9844  -13.2384  -42.2192 O.2       3 UNK        -0.5000 
     57 CA         -2.5783  -14.3448  -44.2582 C.3       3 UNK         0.1400 
     58 CB         -3.8521  -13.5472  -44.5817 C.3       3 UNK        -0.1800 
     59 N          -1.9557  -14.7448  -45.5197 N.am      3 UNK        -0.5000 
     60 C          -1.3397  -15.9141  -45.7331 C.2       2 UNK         0.5000 
     61 O          -1.2344  -16.8034  -44.8916 O.2       2 UNK        -0.5000 
     62 CA         -0.7295  -16.1306  -47.1292 C.3       2 UNK         0.1400 
     63 CB         -1.7566  -16.8038  -48.0517 C.3       2 UNK        -0.1800 
     64 N          -0.2300  -14.9128  -47.7681 N.am      2 UNK        -0.5000 
     65 C           0.7227  -14.1132  -47.2657 C.2       1 UNK         0.5000 
     66 O           1.2555  -14.2824  -46.1675 O.2       1 UNK        -0.5000 
     67 C          -1.5358  -20.3564  -46.4171 C.2       11 UNK         0.5000 
     68 O          -2.1703  -20.5304  -47.4549 O.2       11 UNK        -0.5000 
     69 N          -2.0748  -19.8835  -45.2838 N.am      12 UNK        -0.5000 
     70 CA         -3.4860  -19.5343  -45.1055 C.3       12 UNK         0.1400 
     71 CB         -3.6897  -18.9638  -43.6926 C.3       12 UNK        -0.1800 
     72 C          -4.4429  -20.7189  -45.3435 C.2       12 UNK         0.5000 
     73 O          -5.5414  -20.5151  -45.8598 O.2       12 UNK        -0.5000 
     74 N          -4.0001  -21.9304  -44.9811 N.am      13 UNK        -0.5000 
     75 CA         -4.7176  -23.1759  -45.2324 C.3       13 UNK         0.1400 
     76 CB         -4.3569  -24.2029  -44.1474 C.3       13 UNK        -0.1800 
     77 C          -4.3950  -23.7213  -46.6314 C.2       13 UNK         0.5000 
     78 O          -5.3131  -24.0901  -47.3638 O.2       13 UNK        -0.5000 
     79 N          -3.1010  -23.7548  -46.9828 N.am      14 UNK        -0.5000 
     80 CA         -2.5983  -24.3306  -48.2310 C.3       14 UNK         0.1400 
     81 CB         -1.0634  -24.3567  -48.2124 C.3       14 UNK        -0.1800 
     82 C          -3.1171  -23.6169  -49.4906 C.2       14 UNK         0.5000 
     83 O          -3.5504  -24.2899  -50.4253 O.2       14 UNK        -0.5000 
     84 N          -3.1063  -22.2764  -49.4850 N.am      15 UNK        -0.5000 
     85 CA         -3.5956  -21.4541  -50.5923 C.3       15 UNK         0.1400 
     86 CB         -3.1638  -19.9951  -50.3894 C.3       15 UNK        -0.1800 
     87 C          -5.1201  -21.5421  -50.7631 C.2       15 UNK         0.5000 
     88 O          -5.5999  -21.4984  -51.8941 O.2       15 UNK        -0.5000 
     89 N          -5.8507  -21.6923  -49.6495 N.am      16 UNK        -0.5000 
     90 CA         -7.2995  -21.8912  -49.6419 C.3       16 UNK         0.1400 
     91 CB         -7.8431  -21.6788  -48.2211 C.3       16 UNK        -0.1800 
     92 C          -7.6949  -23.2761  -50.1843 C.2       16 UNK         0.5000 
     93 O          -8.6670  -23.3784  -50.9332 O.2       16 UNK        -0.5000 
     94 N          -6.9241  -24.3078  -49.8133 N.am      17 UNK        -0.5000 
     95 CA         -7.0950  -25.6823  -50.2794 C.3       17 UNK         0.1400 
     96 CB         -6.2505  -26.6255  -49.4083 C.3       17 UNK        -0.1800 
     97 C          -6.7447  -25.8503  -51.7690 C.2       17 UNK         0.5000 
     98 O          -7.5022  -26.4897  -52.5003 O.2       17 UNK        -0.5000 
     99 N          -5.6077  -25.2794  -52.1902 N.am      18 UNK        -0.5000 
    100 CA        -5.1150  -25.3457  -53.5667 C.3       18 UNK         0.1400 
    101 CB        -3.6251  -24.9762  -53.5882 C.3       18 UNK        -0.1800 
    102 C         -5.9079  -24.4547  -54.5407 C.2       18 UNK         0.5000 
    103 O         -6.1026  -24.8523  -55.6906 O.2       18 UNK        -0.5000 
    104 N         -6.3482  -23.2827  -54.0584 N.am      19 UNK        -0.5000 
    105 CA        -7.0401  -22.2124  -54.7837 C.3       19 UNK         0.1400 
    106 CB        -8.3871  -22.7131  -55.3500 C.3       19 UNK        -0.1800 
    107 C         -6.1541  -21.5336  -55.8532 C.2       19 UNK         0.5000 
    108 O         -4.9585  -21.8226  -55.9575 O.2       19 UNK        -0.5000 
    109 N         -6.7594  -20.6115  -56.6160 N.am      20 UNK        -0.5000 
    110 CA        -6.1525  -19.8304  -57.6992 C.3       20 UNK         0.1400 
    111 CB        -5.8836  -20.7384  -58.9214 C.3       20 UNK        -0.1800 
    112 C         -4.9222  -19.0237  -57.2237 C.2       20 UNK         0.5000 
    113 O         -4.9960  -18.3646  -56.1835 O.2       20 UNK        -0.5000 
    114 N         -3.8180  -19.0824  -57.9778 N.am      21 UNK        -0.5000 
    115 CA        -2.5495  -18.4155  -57.6895 C.3       21 UNK         0.1400 
    116 CB        -1.7848  -18.2258  -59.0124 C.3       21 UNK        -0.1800 
    117 C         -1.7278  -19.1798  -56.6296 C.2       21 UNK         0.5000 
    118 O         -0.6459  -19.6864  -56.9339 O.2       21 UNK        -0.5000 
    119 N         -2.2623  -19.2418  -55.4037 N.am      22 UNK        -0.5000 
    120 CA        -1.6316  -19.8303  -54.2070 C.3       22 UNK         0.1400 
    121 C         -1.4527  -21.3794  -54.2633 C.2       22 UNK         0.5000 
    122 N         -2.2579  -22.1145  -55.0179 N.am      22 UNK        -0.7600 
    123 O         -0.5833  -21.9370  -53.5992 O.2       22 UNK        -0.5000 
    124 C124       -0.3194  -19.1016  -53.7869 C.3       23 UNK        -0.0398 
    125 S125       -0.5183  -17.2985  -53.5667 S.3       23 UNK        -0.2404 
    126 C126       -0.6923  -17.1516  -51.7612 C.3       23 UNK        -0.0205 
    127 H127       -2.0058  -10.9774  -49.8197 H         1 UNK         0.0600 
    128 H128       -3.1988  -11.5980  -48.6746 H         1 UNK         0.0600 
    129 H129       -2.4053  -10.0491  -48.3713 H         1 UNK         0.0600 
    130 H130       -0.0565  -11.9935  -49.6442 H         1 UNK         0.3000 
    131 H131        1.5648  -12.1650  -47.4191 H         1 UNK         0.0600 
    132 H132        1.5962  -13.6533  -50.0634 H         1 UNK         0.0800 
    133 H133        2.4931  -12.2347  -49.6369 H         1 UNK         0.0800 
    134 H134        4.7656  -15.6962  -50.2104 H         1 UNK         0.0800 
    135 H135        3.6895  -14.6900  -51.1365 H         1 UNK         0.0800 
    136 H136        1.3177  -15.3577  -51.4647 H         1 UNK         0.1150 
    137 H137        0.2335  -19.3720  -50.4614 H         1 UNK         0.1150 
    138 H138        3.9752  -17.7754  -49.1159 H         1 UNK         0.1150 
    139 H139        1.7807  -20.8386  -49.4424 H         1 UNK         0.0800 
    140 H140        3.4637  -20.3867  -49.4716 H         1 UNK         0.0800 
    141 H141        0.3629  -19.0945  -47.7418 H         1 UNK         0.0800 
    142 H142        0.8579  -18.7927  -46.1026 H         1 UNK         0.0800 
    143 H143        0.0755  -21.5575  -47.1031 H         1 UNK         0.0600 
    144 H144        1.1429  -20.7863  -44.6270 H         1 UNK         0.3000 
    145 H145       -0.2888  -22.2762  -42.3884 H         1 UNK         0.0600 
    146 H146        0.6972  -24.5222  -41.8530 H         1 UNK         0.0600 
    147 H147       -0.7157  -24.6279  -42.8888 H         1 UNK         0.0600 
    148 H148        0.8851  -24.8376  -43.5784 H         1 UNK         0.0600 
    149 H149        1.7230  -21.4955  -42.0874 H         1 UNK         0.3000 
    150 H150        4.7520  -22.5379  -42.3086 H         1 UNK         0.0600 
    151 H151        5.3593  -22.0804  -44.6420 H         1 UNK         0.0600 
    152 H152        5.8648  -20.7221  -43.6517 H         1 UNK         0.0600 
    153 H153        4.4218  -20.5960  -44.6565 H         1 UNK         0.0600 
    154 H154        3.4765  -19.8573  -42.4255 H         1 UNK         0.3000 
    155 H155        2.6055  -19.8675  -39.0401 H         1 UNK         0.0600 
    156 H156        5.0150  -18.3012  -40.1118 H         1 UNK         0.0600 
    157 H157        5.0004  -19.2858  -38.6536 H         1 UNK         0.0600 
    158 H158        4.0127  -17.8355  -38.7377 H         1 UNK         0.0600 
    159 H159        2.7765  -17.7664  -40.9887 H         1 UNK         0.3000 
    160 H160       -0.0436  -18.5872  -42.9260 H         1 UNK         0.0600 
    161 H161       -0.9075  -16.3602  -42.1925 H         1 UNK         0.0600 
    162 H162       -1.2349  -17.6035  -40.9962 H         1 UNK         0.0600 
    163 H163        0.0712  -16.4549  -40.7295 H         1 UNK         0.0600 
    164 H164        1.5470  -16.2299  -42.7960 H         1 UNK         0.3000 
    165 H165        4.4931  -17.3656  -44.1810 H         1 UNK         0.0600 
    166 H166        4.0079  -15.9695  -46.3146 H         1 UNK         0.0600 
    167 H167        3.7356  -17.6940  -46.3896 H         1 UNK         0.0600 
    168 H168        2.3668  -16.6085  -46.2201 H         1 UNK         0.0600 
    169 H169        3.1569  -14.8022  -44.3536 H         1 UNK         0.3000 
    170 H170        3.8482  -13.8157  -41.0419 H         1 UNK         0.0600 
    171 H171        6.1604  -13.6010  -41.9770 H         1 UNK         0.0600 
    172 H172        5.5002  -12.9911  -43.4897 H         1 UNK         0.0600 
    173 H173        5.3134  -12.0633  -42.0005 H         1 UNK         0.0600 
    174 H174        3.1402  -12.1965  -43.2152 H         1 UNK         0.3000 
    175 H175        0.1242  -11.7878  -42.3981 H         1 UNK         0.0600 
    176 H176        0.4219  -10.7518  -44.6796 H         1 UNK         0.0600 
    177 H177        1.8741  -10.6740  -43.7032 H         1 UNK         0.0600 
    178 H178        1.7457  -11.8637  -44.9992 H         1 UNK         0.0600 
    179 H179       -0.2372  -13.4386  -44.8344 H         1 UNK         0.3000 
    180 H180       -2.8684  -15.2316  -43.6907 H         1 UNK         0.0600 
    181 H181       -3.6247  -12.6365  -45.1374 H         1 UNK         0.0600 
    182 H182       -4.3746  -13.2546  -43.6701 H         1 UNK         0.0600 
    183 H183       -4.5471  -14.1395  -45.1772 H         1 UNK         0.0600 
    184 H184       -1.9367  -14.0410  -46.2473 H         1 UNK         0.3000 
    185 H185        0.1217  -16.7994  -47.0121 H         1 UNK         0.0600 
    186 H186       -2.5800  -16.1321  -48.2969 H         1 UNK         0.0600 
    187 H187       -1.2971  -17.1280  -48.9822 H         1 UNK         0.0600 
    188 H188       -2.1881  -17.6891  -47.5849 H         1 UNK         0.0600 
    189 H189       -0.6347  -14.6721  -48.6604 H         1 UNK         0.3000 
    190 H190       -1.4738  -19.7472  -44.4858 H         1 UNK         0.3000 
    191 H191       -3.7313  -18.7565  -45.8314 H         1 UNK         0.0600 
    192 H192       -3.4265  -19.6905  -42.9230 H         1 UNK         0.0600 
    193 H193       -4.7306  -18.6794  -43.5334 H         1 UNK         0.0600 
    194 H194       -3.0853  -18.0721  -43.5298 H         1 UNK         0.0600 
    195 H195       -3.0596  -22.0163  -44.6201 H         1 UNK         0.3000 
    196 H196       -5.7937  -22.9961  -45.1791 H         1 UNK         0.0600 
    197 H197       -4.8878  -25.1419  -44.3090 H         1 UNK         0.0600 
    198 H198       -4.6323  -23.8404  -43.1570 H         1 UNK         0.0600 
    199 H199       -3.2897  -24.4272  -44.1359 H         1 UNK         0.0600 
    200 H200       -2.4034  -23.4416  -46.3136 H         1 UNK         0.3000 
    201 H201       -2.9487  -25.3640  -48.2723 H         1 UNK         0.0600 
    202 H202       -0.6844  -24.8621  -47.3238 H         1 UNK         0.0600 
    203 H203       -0.6445  -23.3522  -48.2334 H         1 UNK         0.0600 
    204 H204       -0.6747  -24.8886  -49.0816 H         1 UNK         0.0600 
    205 H205       -2.7556  -21.7759  -48.6706 H         1 UNK         0.3000 
    206 H206       -3.1355  -21.8195  -51.5131 H         1 UNK         0.0600 
    207 H207       -2.0818  -19.9178  -50.2915 H         1 UNK         0.0600 
    208 H208       -3.4658  -19.3767  -51.2351 H         1 UNK         0.0600 
    209 H209       -3.6123  -19.5624  -49.4942 H         1 UNK         0.0600 
    210 H210       -5.3762  -21.7430  -48.7596 H         1 UNK         0.3000 
    211 H211       -7.7508  -21.1378  -50.2913 H         1 UNK         0.0600 
    212 H212       -7.4142  -22.3865  -47.5114 H         1 UNK         0.0600 
    213 H213       -8.9263  -21.8038  -48.1952 H         1 UNK         0.0600 
    214 H214       -7.6234  -20.6731  -47.8623 H         1 UNK         0.0600 
    215 H215       -6.1798  -24.1454  -49.1418 H         1 UNK         0.3000 
    216 H216       -8.1446  -25.9548  -50.1507 H         1 UNK         0.0600 
    217 H217       -6.3680  -27.6621  -49.7263 H         1 UNK         0.0600 
    218 H218       -6.5518  -26.5693  -48.3621 H         1 UNK         0.0600 
    219 H219       -5.1887  -26.3826  -49.4619 H         1 UNK         0.0600 
    220 H220       -5.0068  -24.8133  -51.5145 H         1 UNK         0.3000 
    221 H221       -5.2078  -26.3774  -53.9128 H         1 UNK         0.0600 
    222 H222       -3.2237  -25.0309  -54.6007 H         1 UNK         0.0600 
    223 H223       -3.4604  -23.9637  -53.2177 H         1 UNK         0.0600 
    224 H224       -3.0410  -25.6567  -52.9685 H         1 UNK         0.0600 
    225 H225       -6.0751  -23.0254  -53.1163 H         1 UNK         0.3000 
    226 H226       -7.2599  -21.4471  -54.0385 H         1 UNK         0.0600 
    227 H227       -8.2486  -23.3736  -56.2065 H         1 UNK         0.0600 
    228 H228       -9.0148  -21.8838  -55.6765 H         1 UNK         0.0600 
    229 H229       -8.9513  -23.2598  -54.5940 H         1 UNK         0.0600 
    230 H230       -7.7295  -20.4029  -56.4282 H         1 UNK         0.3000 
    231 H231       -6.8968  -19.0909  -57.9973 H         1 UNK         0.0600 
    232 H232       -6.7888  -21.2694  -59.2165 H         1 UNK         0.0600 
    233 H233       -5.1176  -21.4871  -58.7152 H         1 UNK         0.0600 
    234 H234       -5.5630  -20.1573  -59.7869 H         1 UNK         0.0600 
    235 H235       -3.8296  -19.6800  -58.7915 H         1 UNK         0.3000 
    236 H236       -2.7549  -17.4221  -57.2845 H         1 UNK         0.0600 
    237 H237       -2.3613  -17.6276  -59.7183 H         1 UNK         0.0600 
    238 H238       -0.8396  -17.7072  -58.8466 H         1 UNK         0.0600 
    239 H239       -1.5579  -19.1803  -59.4889 H         1 UNK         0.0600 
    240 H240       -3.1854  -18.8426  -55.2751 H         1 UNK         0.3000 
    241 H241       -2.3490  -19.6737  -53.4020 H         1 UNK         0.0600 
    242 H242       -2.1124  -23.1090  -55.0482 H         1 UNK         0.3800 
    243 H243       -3.0609  -21.7194  -55.4980 H         1 UNK         0.3800 
    244 H244        0.0721  -19.5271  -52.8636 H         1 UNK         0.0800 
    245 H245        0.4593  -19.2642  -54.5330 H         1 UNK         0.0800 
    246 H246       -1.4360  -17.8658  -51.4096 H         1 UNK         0.0800 
    247 H247       -1.0931  -16.1636  -51.5302 H         1 UNK         0.0800 
@<TRIPOS>BOND
     1    1    2 1    
     2    1  127 1    
     3    1  128 1    
     4    1  129 1    
     5    2    3 2    
     6    2    4 am   BACKBONE|DICT|INTERRES
     7    4    5 1    
     8    4  130 1    
     9    5    6 1    
    10    5   65 1    
    11    5  131 1    
    12    6    7 1    
    13    6  132 1    
    14    6  133 1    
    15    7    8 1    
    16    8    9 1    
    17    8  134 1    
    18    8  135 1    
    19    9   10 ar   
    20    9   14 ar   
    21   10   11 ar   
    22   10  136 1    
    23   11   12 ar   
    24   11  126 1    
    25   12   13 ar   
    26   12  137 1    
    27   13   14 ar   
    28   13   15 1    
    29   14  138 1    
    30   15   16 1    
    31   15  139 1    
    32   15  140 1    
    33   16   17 1    
    34   17   18 1    
    35   17  141 1    
    36   17  142 1    
    37   18   19 1    
    38   18   67 1    
    39   18  143 1    
    40   19   20 am   BACKBONE|DICT|INTERRES
    41   19  144 1    
    42   20   21 2    
    43   20   22 1    
    44   22   23 1    
    45   22   24 1    
    46   22  145 1    
    47   23  146 1    
    48   23  147 1    
    49   23  148 1    
    50   24   25 am   BACKBONE|DICT|INTERRES
    51   24  149 1    
    52   25   26 2    
    53   25   27 1    
    54   27   28 1    
    55   27   29 1    
    56   27  150 1    
    57   28  151 1    
    58   28  152 1    
    59   28  153 1    
    60   29   30 am   BACKBONE|DICT|INTERRES
    61   29  154 1    
    62   30   31 2    
    63   30   32 1    
    64   32   33 1    
    65   32   34 1    
    66   32  155 1    
    67   33  156 1    
    68   33  157 1    
    69   33  158 1    
    70   34   35 am   BACKBONE|DICT|INTERRES
    71   34  159 1    
    72   35   36 2    
    73   35   37 1    
    74   37   38 1    
    75   37   39 1    
    76   37  160 1    
    77   38  161 1    
    78   38  162 1    
    79   38  163 1    
    80   39   40 am   BACKBONE|DICT|INTERRES
    81   39  164 1    
    82   40   41 2    
    83   40   42 1    
    84   42   43 1    
    85   42   44 1    
    86   42  165 1    
    87   43  166 1    
    88   43  167 1    
    89   43  168 1    
    90   44   45 am   BACKBONE|DICT|INTERRES
    91   44  169 1    
    92   45   46 2    
    93   45   47 1    
    94   47   48 1    
    95   47   49 1    
    96   47  170 1    
    97   48  171 1    
    98   48  172 1    
    99   48  173 1    
   100   49   50 am   BACKBONE|DICT|INTERRES
   101   49  174 1    
   102   50   51 2    
   103   50   52 1    
   104   52   53 1    
   105   52   54 1    
   106   52  175 1    
   107   53  176 1    
   108   53  177 1    
   109   53  178 1    
   110   54   55 am   BACKBONE|DICT|INTERRES
   111   54  179 1    
   112   55   56 2    
   113   55   57 1    
   114   57   58 1    
   115   57   59 1    
   116   57  180 1    
   117   58  181 1    
   118   58  182 1    
   119   58  183 1    
   120   59   60 am   BACKBONE|DICT|INTERRES
   121   59  184 1    
   122   60   61 2    
   123   60   62 1    
   124   62   63 1    
   125   62   64 1    
   126   62  185 1    
   127   63  186 1    
   128   63  187 1    
   129   63  188 1    
   130   64   65 am   BACKBONE|DICT|INTERRES
   131   64  189 1    
   132   65   66 2    
   133   67   68 2    
   134   67   69 am   BACKBONE|DICT|INTERRES
   135   69   70 1    
   136   69  190 1    
   137   70   71 1    
   138   70   72 1    
   139   70  191 1    
   140   71  192 1    
   141   71  193 1    
   142   71  194 1    
   143   72   73 2    
   144   72   74 am   BACKBONE|DICT|INTERRES
   145   74   75 1    
   146   74  195 1    
   147   75   76 1    
   148   75   77 1    
   149   75  196 1    
   150   76  197 1    
   151   76  198 1    
   152   76  199 1    
   153   77   78 2    
   154   77   79 am   BACKBONE|DICT|INTERRES
   155   79   80 1    
   156   79  200 1    
   157   80   81 1    
   158   80   82 1    
   159   80  201 1    
   160   81  202 1    
   161   81  203 1    
   162   81  204 1    
   163   82   83 2    
   164   82   84 am   BACKBONE|DICT|INTERRES
   165   84   85 1    
   166   84  205 1    
   167   85   86 1    
   168   85   87 1    
   169   85  206 1    
   170   86  207 1    
   171   86  208 1    
   172   86  209 1    
   173   87   88 2    
   174   87   89 am   BACKBONE|DICT|INTERRES
   175   89   90 1    
   176   89  210 1    
   177   90   91 1    
   178   90   92 1    
   179   90  211 1    
   180   91  212 1    
   181   91  213 1    
   182   91  214 1    
   183   92   93 2    
   184   92   94 am   BACKBONE|DICT|INTERRES
   185   94   95 1    
   186   94  215 1    
   187   95   96 1    
   188   95   97 1    
   189   95  216 1    
   190   96  217 1    
   191   96  218 1    
   192   96  219 1    
   193   97   98 2    
   194   97   99 am   BACKBONE|DICT|INTERRES
   195   99  100 1    
   196   99  220 1    
   197  100  101 1    
   198  100  102 1    
   199  100  221 1    
   200  101  222 1    
   201  101  223 1    
   202  101  224 1    
   203  102  103 2    
   204  102  104 am   BACKBONE|DICT|INTERRES
   205  104  105 1    
   206  104  225 1    
   207  105  106 1    
   208  105  107 1    
   209  105  226 1    
   210  106  227 1    
   211  106  228 1    
   212  106  229 1    
   213  107  108 2    
   214  107  109 am   BACKBONE|DICT|INTERRES
   215  109  110 1    
   216  109  230 1    
   217  110  111 1    
   218  110  112 1    
   219  110  231 1    
   220  111  232 1    
   221  111  233 1    
   222  111  234 1    
   223  112  113 2    
   224  112  114 am   BACKBONE|DICT|INTERRES
   225  114  115 1    
   226  114  235 1    
   227  115  116 1    
   228  115  117 1    
   229  115  236 1    
   230  116  237 1    
   231  116  238 1    
   232  116  239 1    
   233  117  118 2    
   234  117  119 am   BACKBONE|DICT|INTERRES
   235  119  120 1    
   236  119  240 1    
   237  120  121 1    
   238  120  124 1    
   239  120  241 1    
   240  121  122 am   BACKBONE|DICT|INTERRES
   241  121  123 2    
   242  122  242 1    
   243  122  243 1    
   244  124  125 1    
   245  124  244 1    
   246  124  245 1    
   247  125  126 1    
   248  126  246 1    
   249  126  247 1    
@<TRIPOS>SUBSTRUCTURE
     1 UNK         1 GROUP             0       ****    0 ROOT    
