@<TRIPOS>MOLECULE
3R540
247   249    1
SMALL
USER_CHARGES


@<TRIPOS>ATOM
      1 CA         -2.1561  -14.5382  -42.1593 C.3       0 UNK        -0.1800 
      2 C          -2.5568  -13.5696  -43.2620 C.2       0 UNK         0.5000 
      3 O          -3.6683  -13.0411  -43.2477 O.2       0 UNK        -0.5000 
      4 N          -1.6485  -13.3291  -44.2081 N.am      1 UNK        -0.5000 
      5 CA         -1.7982  -12.4090  -45.3319 C.3       1 UNK         0.1400 
      6 C6         -2.6117  -13.0113  -46.5080 C.3       23 UNK        -0.0398 
      7 S7         -2.0550  -14.6573  -47.0807 S.3       23 UNK        -0.2404 
      8 C8         -0.8936  -14.2249  -48.4132 C.3       23 UNK        -0.0205 
      9 C9         -0.8539  -15.3203  -49.4648 C.ar      23 UNK        -0.0193 
     10 C10        -1.6933  -15.2410  -50.5779 C.ar      23 UNK        -0.1150 
     11 C11        -1.6829  -16.2439  -51.5496 C.ar      23 UNK        -0.0193 
     12 C12        -0.8291  -17.3401  -51.3981 C.ar      23 UNK        -0.1150 
     13 C13         0.0140  -17.4353  -50.2854 C.ar      23 UNK        -0.0193 
     14 C14         0.0053  -16.4145  -49.3273 C.ar      23 UNK        -0.1150 
     15 C15         0.9337  -18.6418  -50.1305 C.3       23 UNK        -0.0205 
     16 S16         0.7015  -19.5303  -48.5543 S.3       23 UNK        -0.2404 
     17 C17        -1.1033  -19.7972  -48.5304 C.3       23 UNK        -0.0398 
     18 CA         -1.5207  -21.0400  -47.7100 C.3       11 UNK         0.1400 
     19 N          -1.0459  -21.0055  -46.3200 N.am      11 UNK        -0.5000 
     20 C          -1.1100  -22.0478  -45.4769 C.2       10 UNK         0.5000 
     21 O          -1.5676  -23.1424  -45.8004 O.2       10 UNK        -0.5000 
     22 CA         -0.6410  -21.8526  -44.0224 C.3       10 UNK         0.1400 
     23 CB          0.7598  -22.4511  -43.8292 C.3       10 UNK        -0.1800 
     24 N          -0.6429  -20.4648  -43.5628 N.am      10 UNK        -0.5000 
     25 C          -1.7169  -19.6655  -43.4937 C.2       9 UNK         0.5000 
     26 O          -2.8558  -20.0202  -43.8006 O.2       9 UNK        -0.5000 
     27 CA         -1.4540  -18.2074  -43.0680 C.3       9 UNK         0.1400 
     28 CB         -1.4254  -18.0961  -41.5356 C.3       9 UNK        -0.1800 
     29 N          -0.2063  -17.6726  -43.6246 N.am      9 UNK        -0.5000 
     30 C           0.0629  -17.5792  -44.9368 C.2       8 UNK         0.5000 
     31 O          -0.7375  -17.8879  -45.8175 O.2       8 UNK        -0.5000 
     32 CA          1.4789  -17.1265  -45.3269 C.3       8 UNK         0.1400 
     33 CB          1.6009  -15.5970  -45.2907 C.3       8 UNK        -0.1800 
     34 N           2.4831  -17.7262  -44.4491 N.am      8 UNK        -0.5000 
     35 C           2.9627  -18.9698  -44.5981 C.2       7 UNK         0.5000 
     36 O           2.6680  -19.7079  -45.5366 O.2       7 UNK        -0.5000 
     37 CA          3.9224  -19.4909  -43.5101 C.3       7 UNK         0.1400 
     38 CB          5.3806  -19.2015  -43.8970 C.3       7 UNK        -0.1800 
     39 N           3.6596  -18.9244  -42.1871 N.am      7 UNK        -0.5000 
     40 C           2.5547  -19.1503  -41.4624 C.2       6 UNK         0.5000 
     41 O           1.6517  -19.9079  -41.8134 O.2       6 UNK        -0.5000 
     42 CA          2.4101  -18.3428  -40.1569 C.3       6 UNK         0.1400 
     43 CB          3.0264  -19.1091  -38.9775 C.3       6 UNK        -0.1800 
     44 N           3.0119  -17.0073  -40.2386 N.am      6 UNK        -0.5000 
     45 C           2.6287  -16.0564  -41.1004 C.2       5 UNK         0.5000 
     46 O           1.7043  -16.2007  -41.9057 O.2       5 UNK        -0.5000 
     47 CA          3.4820  -14.7770  -41.1254 C.3       5 UNK         0.1400 
     48 CB          4.7532  -15.0079  -41.9588 C.3       5 UNK        -0.1800 
     49 N           2.7484  -13.6609  -41.7128 N.am      5 UNK        -0.5000 
     50 C           1.8036  -12.9449  -41.0918 C.2       4 UNK         0.5000 
     51 O           1.4908  -13.1071  -39.9110 O.2       4 UNK        -0.5000 
     52 CA          1.0833  -11.8830  -41.9487 C.3       4 UNK         0.1400 
     53 CB          0.5078  -10.7154  -41.1214 C.3       4 UNK        -0.1800 
     54 N           1.8909  -11.3994  -43.0759 N.am      4 UNK        -0.5000 
     55 C           3.0148  -10.6658  -43.0297 C.2       3 UNK         0.5000 
     56 O           3.5315  -10.2655  -41.9862 O.2       3 UNK        -0.5000 
     57 CA          3.6975  -10.3387  -44.3760 C.3       3 UNK         0.1400 
     58 CB          4.9549  -11.2042  -44.5567 C.3       3 UNK        -0.1800 
     59 N           2.8268  -10.5354  -45.5373 N.am      3 UNK        -0.5000 
     60 C           1.7987   -9.7462  -45.8760 C.2       2 UNK         0.5000 
     61 O           1.5154   -8.7015  -45.2883 O.2       2 UNK        -0.5000 
     62 CA          0.9032  -10.2239  -47.0390 C.3       2 UNK         0.1400 
     63 CB          1.6285  -11.1396  -48.0519 C.3       2 UNK        -0.1800 
     64 N          -0.3210  -10.8660  -46.5441 N.am      2 UNK        -0.5000 
     65 C          -0.3934  -11.9450  -45.7512 C.2       1 UNK         0.5000 
     66 O           0.5950  -12.5618  -45.3416 O.2       1 UNK        -0.5000 
     67 C          -3.0473  -21.2461  -47.8047 C.2       11 UNK         0.5000 
     68 O          -3.5150  -21.8326  -48.7809 O.2       11 UNK        -0.5000 
     69 N          -3.7984  -20.7938  -46.7896 N.am      12 UNK        -0.5000 
     70 CA         -5.2416  -21.0121  -46.6868 C.3       12 UNK         0.1400 
     71 CB         -5.8363  -20.0143  -45.6820 C.3       12 UNK        -0.1800 
     72 C          -5.5862  -22.4590  -46.2856 C.2       12 UNK         0.5000 
     73 O          -6.6154  -22.9777  -46.7181 O.2       12 UNK        -0.5000 
     74 N          -4.7204  -23.0835  -45.4749 N.am      13 UNK        -0.5000 
     75 CA         -4.8508  -24.4718  -45.0336 C.3       13 UNK         0.1400 
     76 CB         -4.0436  -24.6760  -43.7416 C.3       13 UNK        -0.1800 
     77 C          -4.4035  -25.4593  -46.1251 C.2       13 UNK         0.5000 
     78 O          -5.0896  -26.4531  -46.3661 O.2       13 UNK        -0.5000 
     79 N          -3.2682  -25.1589  -46.7706 N.am      14 UNK        -0.5000 
     80 CA         -2.7021  -25.9236  -47.8819 C.3       14 UNK         0.1400 
     81 CB         -1.2721  -25.4298  -48.1460 C.3       14 UNK        -0.1800 
     82 C          -3.5498  -25.8282  -49.1622 C.2       14 UNK         0.5000 
     83 O          -3.6375  -26.8078  -49.9047 O.2       14 UNK        -0.5000 
     84 N          -4.1595  -24.6547  -49.3873 N.am      15 UNK        -0.5000 
     85 CA         -5.0316  -24.3094  -50.5087 C.3       15 UNK         0.1400 
     86 CB         -6.3962  -25.0178  -50.3579 C.3       15 UNK        -0.1800 
     87 C          -4.3264  -24.5553  -51.8572 C.2       15 UNK         0.5000 
     88 O          -3.2852  -23.9459  -52.1100 O.2       15 UNK        -0.5000 
     89 N          -4.8551  -25.4890  -52.6607 N.am      16 UNK        -0.5000 
     90 CA         -4.3329  -25.8967  -53.9659 C.3       16 UNK         0.1400 
     91 CB         -5.2509  -26.9765  -54.5572 C.3       16 UNK        -0.1800 
     92 C          -2.8674  -26.3772  -53.9590 C.2       16 UNK         0.5000 
     93 O          -2.1991  -26.2679  -54.9874 O.2       16 UNK        -0.5000 
     94 N          -2.3852  -26.8769  -52.8109 N.am      17 UNK        -0.5000 
     95 CA         -0.9898  -27.2698  -52.6131 C.3       17 UNK         0.1400 
     96 CB         -0.8863  -28.1999  -51.3951 C.3       17 UNK        -0.1800 
     97 C          -0.0328  -26.0676  -52.4748 C.2       17 UNK         0.5000 
     98 O           1.1580  -26.2268  -52.7465 O.2       17 UNK        -0.5000 
     99 N          -0.5495  -24.8954  -52.0747 N.am      18 UNK        -0.5000 
    100 CA         0.1971  -23.6373  -52.0626 C.3       18 UNK         0.1400 
    101 CB        -0.3163  -22.7183  -50.9428 C.3       18 UNK        -0.1800 
    102 C          0.1105  -22.9540  -53.4355 C.2       18 UNK         0.5000 
    103 O          1.1467  -22.6228  -54.0130 O.2       18 UNK        -0.5000 
    104 N         -1.1144  -22.7937  -53.9503 N.am      19 UNK        -0.5000 
    105 CA        -1.4031  -22.2777  -55.2848 C.3       19 UNK         0.1400 
    106 CB        -1.1950  -20.7532  -55.3416 C.3       19 UNK        -0.1800 
    107 C         -2.8473  -22.6392  -55.6417 C.2       19 UNK         0.5000 
    108 O         -3.7247  -22.5319  -54.7856 O.2       19 UNK        -0.5000 
    109 N         -3.0827  -23.0245  -56.9022 N.am      20 UNK        -0.5000 
    110 CA        -4.3666  -23.5208  -57.4169 C.3       20 UNK         0.1400 
    111 CB        -4.1825  -23.9324  -58.8857 C.3       20 UNK        -0.1800 
    112 C         -5.5572  -22.5479  -57.2800 C.2       20 UNK         0.5000 
    113 O         -6.7026  -23.0001  -57.2559 O.2       20 UNK        -0.5000 
    114 N         -5.2669  -21.2447  -57.1929 N.am      21 UNK        -0.5000 
    115 CA        -6.2411  -20.1649  -57.0377 C.3       21 UNK         0.1400 
    116 CB        -6.0840  -19.1979  -58.2260 C.3       21 UNK        -0.1800 
    117 C         -6.0912  -19.4360  -55.6856 C.2       21 UNK         0.5000 
    118 O         -6.5861  -18.3149  -55.5554 O.2       21 UNK        -0.5000 
    119 N         -5.4113  -20.0495  -54.7072 N.am      22 UNK        -0.5000 
    120 CA        -5.1441  -19.4610  -53.3869 C.3       22 UNK         0.1400 
    121 C         -5.1211  -20.5344  -52.2608 C.2       22 UNK         0.5000 
    122 N         -4.4211  -20.2931  -51.1582 N.am      22 UNK        -0.7600 
    123 O         -5.7839  -21.5640  -52.3561 O.2       22 UNK        -0.5000 
    124 C124       -3.9042  -18.5179  -53.4212 C.3       23 UNK        -0.0398 
    125 S125       -4.1757  -16.9818  -52.4809 S.3       23 UNK        -0.2404 
    126 C126       -2.5941  -16.1287  -52.7602 C.3       23 UNK        -0.0205 
    127 H127       -2.8534  -15.3749  -42.1244 H         1 UNK         0.0600 
    128 H128       -2.1740  -14.0360  -41.1921 H         1 UNK         0.0600 
    129 H129       -1.1522  -14.9347  -42.3170 H         1 UNK         0.0600 
    130 H130       -0.7370  -13.7677  -44.1794 H         1 UNK         0.3000 
    131 H131       -2.3195  -11.5190  -44.9729 H         1 UNK         0.0600 
    132 H132       -2.6563  -12.3199  -47.3505 H         1 UNK         0.0800 
    133 H133       -3.6477  -13.1268  -46.1871 H         1 UNK         0.0800 
    134 H134       -1.1832  -13.2818  -48.8784 H         1 UNK         0.0800 
    135 H135        0.1010  -14.0661  -47.9948 H         1 UNK         0.0800 
    136 H136       -2.3618  -14.3982  -50.6854 H         1 UNK         0.1150 
    137 H137       -0.8235  -18.1188  -52.1476 H         1 UNK         0.1150 
    138 H138        0.6501  -16.4842  -48.4627 H         1 UNK         0.1150 
    139 H139        0.7886  -19.3454  -50.9513 H         1 UNK         0.0800 
    140 H140        1.9694  -18.3062  -50.1947 H         1 UNK         0.0800 
    141 H141       -1.5782  -18.8956  -48.1394 H         1 UNK         0.0800 
    142 H142       -1.4459  -19.9012  -49.5619 H         1 UNK         0.0800 
    143 H143       -1.0599  -21.9108  -48.1777 H         1 UNK         0.0600 
    144 H144       -0.6769  -20.1197  -45.9959 H         1 UNK         0.3000 
    145 H145       -1.3354  -22.4052  -43.3865 H         1 UNK         0.0600 
    146 H146        1.0611  -22.4221  -42.7821 H         1 UNK         0.0600 
    147 H147        0.7871  -23.4951  -44.1444 H         1 UNK         0.0600 
    148 H148        1.5092  -21.9133  -44.4100 H         1 UNK         0.0600 
    149 H149        0.2429  -20.1048  -43.2222 H         1 UNK         0.3000 
    150 H150       -2.2724  -17.5916  -43.4462 H         1 UNK         0.0600 
    151 H151       -2.4036  -18.3300  -41.1139 H         1 UNK         0.0600 
    152 H152       -1.1590  -17.0925  -41.2066 H         1 UNK         0.0600 
    153 H153       -0.7092  -18.7889  -41.0947 H         1 UNK         0.0600 
    154 H154        0.4938  -17.3546  -42.9621 H         1 UNK         0.3000 
    155 H155        1.6645  -17.4503  -46.3533 H         1 UNK         0.0600 
    156 H156        2.5980  -15.2703  -45.5851 H         1 UNK         0.0600 
    157 H157        1.3914  -15.1888  -44.3023 H         1 UNK         0.0600 
    158 H158        0.8936  -15.1447  -45.9850 H         1 UNK         0.0600 
    159 H159        2.7232  -17.2043  -43.6181 H         1 UNK         0.3000 
    160 H160        3.7922  -20.5734  -43.4460 H         1 UNK         0.0600 
    161 H161        5.5774  -18.1300  -43.9535 H         1 UNK         0.0600 
    162 H162        5.6183  -19.6308  -44.8712 H         1 UNK         0.0600 
    163 H163        6.0739  -19.6336  -43.1752 H         1 UNK         0.0600 
    164 H164        4.3534  -18.2919  -41.8178 H         1 UNK         0.3000 
    165 H165        1.3438  -18.2158  -39.9616 H         1 UNK         0.0600 
    166 H166        4.1017  -19.2439  -39.1013 H         1 UNK         0.0600 
    167 H167        2.8589  -18.5857  -38.0360 H         1 UNK         0.0600 
    168 H168        2.5802  -20.0999  -38.8806 H         1 UNK         0.0600 
    169 H169        3.7846  -16.8234  -39.6145 H         1 UNK         0.3000 
    170 H170        3.7664  -14.5193  -40.1030 H         1 UNK         0.0600 
    171 H171        5.3647  -15.8054  -41.5349 H         1 UNK         0.0600 
    172 H172        4.5178  -15.2853  -42.9874 H         1 UNK         0.0600 
    173 H173        5.3717  -14.1104  -41.9889 H         1 UNK         0.0600 
    174 H174        2.9107  -13.4800  -42.6915 H         1 UNK         0.3000 
    175 H175        0.2369  -12.4018  -42.3960 H         1 UNK         0.0600 
    176 H176        0.0049   -9.9903  -41.7613 H         1 UNK         0.0600 
    177 H177       -0.2270  -11.0738  -40.3996 H         1 UNK         0.0600 
    178 H178        1.2831  -10.1911  -40.5625 H         1 UNK         0.0600 
    179 H179        1.5681  -11.7052  -43.9909 H         1 UNK         0.3000 
    180 H180        4.0018   -9.2905  -44.3445 H         1 UNK         0.0600 
    181 H181        5.4867  -10.9413  -45.4713 H         1 UNK         0.0600 
    182 H182        5.6497  -11.0643  -43.7274 H         1 UNK         0.0600 
    183 H183        4.7099  -12.2662  -44.6033 H         1 UNK         0.0600 
    184 H184        2.9532  -11.3933  -46.0549 H         1 UNK         0.3000 
    185 H185        0.5918   -9.3264  -47.5756 H         1 UNK         0.0600 
    186 H186        0.9895  -11.3482  -48.9100 H         1 UNK         0.0600 
    187 H187        2.5317  -10.6616  -48.4334 H         1 UNK         0.0600 
    188 H188        1.9184  -12.0986  -47.6219 H         1 UNK         0.0600 
    189 H189       -1.1787  -10.3949  -46.7962 H         1 UNK         0.3000 
    190 H190       -3.3478  -20.3399  -46.0041 H         1 UNK         0.3000 
    191 H191       -5.6934  -20.8189  -47.6624 H         1 UNK         0.0600 
    192 H192       -6.9203  -20.1196  -45.6243 H         1 UNK         0.0600 
    193 H193       -5.6242  -18.9858  -45.9744 H         1 UNK         0.0600 
    194 H194       -5.4387  -20.1667  -44.6781 H         1 UNK         0.0600 
    195 H195       -3.8849  -22.5927  -45.1918 H         1 UNK         0.3000 
    196 H196       -5.9008  -24.6715  -44.8083 H         1 UNK         0.0600 
    197 H197       -4.1532  -25.6966  -43.3727 H         1 UNK         0.0600 
    198 H198       -4.3874  -24.0069  -42.9527 H         1 UNK         0.0600 
    199 H199       -2.9790  -24.4960  -43.8929 H         1 UNK         0.0600 
    200 H200       -2.7305  -24.3511  -46.4616 H         1 UNK         0.3000 
    201 H201       -2.6563  -26.9745  -47.5891 H         1 UNK         0.0600 
    202 H202       -0.6328  -25.5944  -47.2785 H         1 UNK         0.0600 
    203 H203       -1.2599  -24.3638  -48.3688 H         1 UNK         0.0600 
    204 H204       -0.8170  -25.9473  -48.9901 H         1 UNK         0.0600 
    205 H205       -3.9515  -23.8816  -48.7670 H         1 UNK         0.3000 
    206 H206       -5.2068  -23.2366  -50.4394 H         1 UNK         0.0600 
    207 H207       -6.8657  -24.7481  -49.4115 H         1 UNK         0.0600 
    208 H208       -7.0835  -24.7200  -51.1508 H         1 UNK         0.0600 
    209 H209       -6.3047  -26.1043  -50.3789 H         1 UNK         0.0600 
    210 H210       -5.6868  -25.9652  -52.3445 H         1 UNK         0.3000 
    211 H211       -4.3834  -25.0236  -54.6135 H         1 UNK         0.0600 
    212 H212       -5.2784  -27.8678  -53.9291 H         1 UNK         0.0600 
    213 H213       -4.9085  -27.2820  -55.5469 H         1 UNK         0.0600 
    214 H214       -6.2717  -26.6100  -54.6683 H         1 UNK         0.0600 
    215 H215       -2.9898  -26.9154  -51.9978 H         1 UNK         0.3000 
    216 H216       -0.6691  -27.8379  -53.4891 H         1 UNK         0.0600 
    217 H217        0.1381  -28.5471  -51.2553 H         1 UNK         0.0600 
    218 H218       -1.5142  -29.0823  -51.5187 H         1 UNK         0.0600 
    219 H219       -1.1897  -27.7007  -50.4765 H         1 UNK         0.0600 
    220 H220       -1.5528  -24.8170  -51.9394 H         1 UNK         0.3000 
    221 H221        1.2507  -23.8383  -51.8568 H         1 UNK         0.0600 
    222 H222       -1.3863  -22.5238  -51.0180 H         1 UNK         0.0600 
    223 H223       -0.1196  -23.1591  -49.9675 H         1 UNK         0.0600 
    224 H224        0.1933  -21.7550  -50.9663 H         1 UNK         0.0600 
    225 H225       -1.9307  -23.0921  -53.4201 H         1 UNK         0.3000 
    226 H226       -0.7342  -22.7619  -55.9994 H         1 UNK         0.0600 
    227 H227       -0.1556  -20.4828  -55.1566 H         1 UNK         0.0600 
    228 H228       -1.4614  -20.3566  -56.3220 H         1 UNK         0.0600 
    229 H229       -1.8086  -20.2422  -54.6018 H         1 UNK         0.0600 
    230 H230       -2.3085  -23.0580  -57.5499 H         1 UNK         0.3000 
    231 H231       -4.6220  -24.4169  -56.8496 H         1 UNK         0.0600 
    232 H232       -5.1077  -24.3364  -59.2990 H         1 UNK         0.0600 
    233 H233       -3.4203  -24.7054  -58.9872 H         1 UNK         0.0600 
    234 H234       -3.8885  -23.0849  -59.5062 H         1 UNK         0.0600 
    235 H235       -4.2947  -20.9725  -57.2033 H         1 UNK         0.3000 
    236 H236       -7.2582  -20.5608  -57.0608 H         1 UNK         0.0600 
    237 H237       -5.1048  -18.7175  -58.2257 H         1 UNK         0.0600 
    238 H238       -6.2008  -19.7202  -59.1758 H         1 UNK         0.0600 
    239 H239       -6.8382  -18.4105  -58.1987 H         1 UNK         0.0600 
    240 H240       -5.0618  -20.9952  -54.8357 H         1 UNK         0.3000 
    241 H241       -6.0234  -18.8654  -53.1346 H         1 UNK         0.0600 
    242 H242       -4.3710  -20.9902  -50.4251 H         1 UNK         0.3800 
    243 H243       -3.9337  -19.4196  -51.0423 H         1 UNK         0.3800 
    244 H244       -3.6800  -18.2206  -54.4467 H         1 UNK         0.0800 
    245 H245       -3.0041  -19.0161  -53.0601 H         1 UNK         0.0800 
    246 H246       -2.0943  -16.5197  -53.6478 H         1 UNK         0.0800 
    247 H247       -2.7987  -15.0780  -52.9717 H         1 UNK         0.0800 
@<TRIPOS>BOND
     1    1    2 1    
     2    1  127 1    
     3    1  128 1    
     4    1  129 1    
     5    2    3 2    
     6    2    4 am   BACKBONE|DICT|INTERRES
     7    4    5 1    
     8    4  130 1    
     9    5    6 1    
    10    5   65 1    
    11    5  131 1    
    12    6    7 1    
    13    6  132 1    
    14    6  133 1    
    15    7    8 1    
    16    8    9 1    
    17    8  134 1    
    18    8  135 1    
    19    9   10 ar   
    20    9   14 ar   
    21   10   11 ar   
    22   10  136 1    
    23   11   12 ar   
    24   11  126 1    
    25   12   13 ar   
    26   12  137 1    
    27   13   14 ar   
    28   13   15 1    
    29   14  138 1    
    30   15   16 1    
    31   15  139 1    
    32   15  140 1    
    33   16   17 1    
    34   17   18 1    
    35   17  141 1    
    36   17  142 1    
    37   18   19 1    
    38   18   67 1    
    39   18  143 1    
    40   19   20 am   BACKBONE|DICT|INTERRES
    41   19  144 1    
    42   20   21 2    
    43   20   22 1    
    44   22   23 1    
    45   22   24 1    
    46   22  145 1    
    47   23  146 1    
    48   23  147 1    
    49   23  148 1    
    50   24   25 am   BACKBONE|DICT|INTERRES
    51   24  149 1    
    52   25   26 2    
    53   25   27 1    
    54   27   28 1    
    55   27   29 1    
    56   27  150 1    
    57   28  151 1    
    58   28  152 1    
    59   28  153 1    
    60   29   30 am   BACKBONE|DICT|INTERRES
    61   29  154 1    
    62   30   31 2    
    63   30   32 1    
    64   32   33 1    
    65   32   34 1    
    66   32  155 1    
    67   33  156 1    
    68   33  157 1    
    69   33  158 1    
    70   34   35 am   BACKBONE|DICT|INTERRES
    71   34  159 1    
    72   35   36 2    
    73   35   37 1    
    74   37   38 1    
    75   37   39 1    
    76   37  160 1    
    77   38  161 1    
    78   38  162 1    
    79   38  163 1    
    80   39   40 am   BACKBONE|DICT|INTERRES
    81   39  164 1    
    82   40   41 2    
    83   40   42 1    
    84   42   43 1    
    85   42   44 1    
    86   42  165 1    
    87   43  166 1    
    88   43  167 1    
    89   43  168 1    
    90   44   45 am   BACKBONE|DICT|INTERRES
    91   44  169 1    
    92   45   46 2    
    93   45   47 1    
    94   47   48 1    
    95   47   49 1    
    96   47  170 1    
    97   48  171 1    
    98   48  172 1    
    99   48  173 1    
   100   49   50 am   BACKBONE|DICT|INTERRES
   101   49  174 1    
   102   50   51 2    
   103   50   52 1    
   104   52   53 1    
   105   52   54 1    
   106   52  175 1    
   107   53  176 1    
   108   53  177 1    
   109   53  178 1    
   110   54   55 am   BACKBONE|DICT|INTERRES
   111   54  179 1    
   112   55   56 2    
   113   55   57 1    
   114   57   58 1    
   115   57   59 1    
   116   57  180 1    
   117   58  181 1    
   118   58  182 1    
   119   58  183 1    
   120   59   60 am   BACKBONE|DICT|INTERRES
   121   59  184 1    
   122   60   61 2    
   123   60   62 1    
   124   62   63 1    
   125   62   64 1    
   126   62  185 1    
   127   63  186 1    
   128   63  187 1    
   129   63  188 1    
   130   64   65 am   BACKBONE|DICT|INTERRES
   131   64  189 1    
   132   65   66 2    
   133   67   68 2    
   134   67   69 am   BACKBONE|DICT|INTERRES
   135   69   70 1    
   136   69  190 1    
   137   70   71 1    
   138   70   72 1    
   139   70  191 1    
   140   71  192 1    
   141   71  193 1    
   142   71  194 1    
   143   72   73 2    
   144   72   74 am   BACKBONE|DICT|INTERRES
   145   74   75 1    
   146   74  195 1    
   147   75   76 1    
   148   75   77 1    
   149   75  196 1    
   150   76  197 1    
   151   76  198 1    
   152   76  199 1    
   153   77   78 2    
   154   77   79 am   BACKBONE|DICT|INTERRES
   155   79   80 1    
   156   79  200 1    
   157   80   81 1    
   158   80   82 1    
   159   80  201 1    
   160   81  202 1    
   161   81  203 1    
   162   81  204 1    
   163   82   83 2    
   164   82   84 am   BACKBONE|DICT|INTERRES
   165   84   85 1    
   166   84  205 1    
   167   85   86 1    
   168   85   87 1    
   169   85  206 1    
   170   86  207 1    
   171   86  208 1    
   172   86  209 1    
   173   87   88 2    
   174   87   89 am   BACKBONE|DICT|INTERRES
   175   89   90 1    
   176   89  210 1    
   177   90   91 1    
   178   90   92 1    
   179   90  211 1    
   180   91  212 1    
   181   91  213 1    
   182   91  214 1    
   183   92   93 2    
   184   92   94 am   BACKBONE|DICT|INTERRES
   185   94   95 1    
   186   94  215 1    
   187   95   96 1    
   188   95   97 1    
   189   95  216 1    
   190   96  217 1    
   191   96  218 1    
   192   96  219 1    
   193   97   98 2    
   194   97   99 am   BACKBONE|DICT|INTERRES
   195   99  100 1    
   196   99  220 1    
   197  100  101 1    
   198  100  102 1    
   199  100  221 1    
   200  101  222 1    
   201  101  223 1    
   202  101  224 1    
   203  102  103 2    
   204  102  104 am   BACKBONE|DICT|INTERRES
   205  104  105 1    
   206  104  225 1    
   207  105  106 1    
   208  105  107 1    
   209  105  226 1    
   210  106  227 1    
   211  106  228 1    
   212  106  229 1    
   213  107  108 2    
   214  107  109 am   BACKBONE|DICT|INTERRES
   215  109  110 1    
   216  109  230 1    
   217  110  111 1    
   218  110  112 1    
   219  110  231 1    
   220  111  232 1    
   221  111  233 1    
   222  111  234 1    
   223  112  113 2    
   224  112  114 am   BACKBONE|DICT|INTERRES
   225  114  115 1    
   226  114  235 1    
   227  115  116 1    
   228  115  117 1    
   229  115  236 1    
   230  116  237 1    
   231  116  238 1    
   232  116  239 1    
   233  117  118 2    
   234  117  119 am   BACKBONE|DICT|INTERRES
   235  119  120 1    
   236  119  240 1    
   237  120  121 1    
   238  120  124 1    
   239  120  241 1    
   240  121  122 am   BACKBONE|DICT|INTERRES
   241  121  123 2    
   242  122  242 1    
   243  122  243 1    
   244  124  125 1    
   245  124  244 1    
   246  124  245 1    
   247  125  126 1    
   248  126  246 1    
   249  126  247 1    
@<TRIPOS>SUBSTRUCTURE
     1 UNK         1 GROUP             0       ****    0 ROOT    
