@<TRIPOS>MOLECULE
3R540
247   249    1
SMALL
USER_CHARGES


@<TRIPOS>ATOM
      1 CA          8.3510  -13.7500  -49.9662 C.3       0 UNK        -0.1800 
      2 C           7.4609  -14.1879  -48.8116 C.2       0 UNK         0.5000 
      3 O           7.7412  -15.2021  -48.1722 O.2       0 UNK        -0.5000 
      4 N           6.3872  -13.4333  -48.5487 N.am      1 UNK        -0.5000 
      5 CA          5.4366  -13.6660  -47.4577 C.3       1 UNK         0.1400 
      6 C6          4.1445  -12.8280  -47.6263 C.3       23 UNK        -0.0398 
      7 S7          3.2508  -13.2661  -49.1567 S.3       23 UNK        -0.2404 
      8 C8          2.0046  -14.4095  -48.4965 C.3       23 UNK        -0.0205 
      9 C9          1.5059  -15.3704  -49.5592 C.ar      23 UNK        -0.0193 
     10 C10         0.3897  -15.0536  -50.3366 C.ar      23 UNK        -0.1150 
     11 C11        -0.0933  -15.9625  -51.2819 C.ar      23 UNK        -0.0193 
     12 C12         0.5516  -17.1927  -51.4500 C.ar      23 UNK        -0.1150 
     13 C13         1.6725  -17.5169  -50.6801 C.ar      23 UNK        -0.0193 
     14 C14         2.1470  -16.5985  -49.7406 C.ar      23 UNK        -0.1150 
     15 C15         2.3841  -18.8492  -50.8666 C.3       23 UNK        -0.0205 
     16 S16         2.2139  -19.9312  -49.4116 S.3       23 UNK        -0.2404 
     17 C17         0.4641  -20.4218  -49.5336 C.3       23 UNK        -0.0398 
     18 CA          0.1246  -21.5738  -48.5576 C.3       11 UNK         0.1400 
     19 N           0.1414  -21.1611  -47.1487 N.am      11 UNK        -0.5000 
     20 C           0.0510  -22.0078  -46.1117 C.2       10 UNK         0.5000 
     21 O           0.0168  -23.2321  -46.2328 O.2       10 UNK        -0.5000 
     22 CA         -0.0885  -21.3922  -44.7068 C.3       10 UNK         0.1400 
     23 CB          1.2763  -20.9656  -44.1471 C.3       10 UNK        -0.1800 
     24 N          -1.0218  -20.2649  -44.6835 N.am      10 UNK        -0.5000 
     25 C          -2.3329  -20.3715  -44.9451 C.2       9 UNK         0.5000 
     26 O          -2.8983  -21.4446  -45.1506 O.2       9 UNK        -0.5000 
     27 CA         -3.1430  -19.0657  -45.0427 C.3       9 UNK         0.1400 
     28 CB         -3.6371  -18.6216  -43.6583 C.3       9 UNK        -0.1800 
     29 N          -2.3918  -17.9787  -45.6690 N.am      9 UNK        -0.5000 
     30 C          -1.9443  -17.9857  -46.9329 C.2       8 UNK         0.5000 
     31 O          -2.1714  -18.8939  -47.7313 O.2       8 UNK        -0.5000 
     32 CA         -1.0333  -16.8154  -47.3446 C.3       8 UNK         0.1400 
     33 CB         -1.8554  -15.5613  -47.6756 C.3       8 UNK        -0.1800 
     34 N          -0.0505  -16.5057  -46.3026 N.am      8 UNK        -0.5000 
     35 C           0.9606  -17.3197  -45.9657 C.2       7 UNK         0.5000 
     36 O           1.1976  -18.3791  -46.5426 O.2       7 UNK        -0.5000 
     37 CA          1.8145  -16.9195  -44.7465 C.3       7 UNK         0.1400 
     38 CB          3.0528  -16.1105  -45.1558 C.3       7 UNK        -0.1800 
     39 N           1.0491  -16.1827  -43.7385 N.am      7 UNK        -0.5000 
     40 C           0.1319  -16.7651  -42.9523 C.2       6 UNK         0.5000 
     41 O          -0.1296  -17.9674  -42.9925 O.2       6 UNK        -0.5000 
     42 CA         -0.6572  -15.8544  -41.9961 C.3       6 UNK         0.1400 
     43 CB          0.1702  -15.5192  -40.7478 C.3       6 UNK        -0.1800 
     44 N          -1.1097  -14.6133  -42.6219 N.am      6 UNK        -0.5000 
     45 C          -1.9523  -14.5236  -43.6568 C.2       5 UNK         0.5000 
     46 O          -2.4225  -15.5055  -44.2284 O.2       5 UNK        -0.5000 
     47 CA         -2.3152  -13.1136  -44.1663 C.3       5 UNK         0.1400 
     48 CB         -3.4847  -12.5165  -43.3613 C.3       5 UNK        -0.1800 
     49 N          -1.1798  -12.1828  -44.2473 N.am      5 UNK        -0.5000 
     50 C          -0.4410  -11.6695  -43.2546 C.2       4 UNK         0.5000 
     51 O          -0.6430  -11.8777  -42.0558 O.2       4 UNK        -0.5000 
     52 CA          0.7567  -10.8032  -43.6806 C.3       4 UNK         0.1400 
     53 CB          0.4717   -9.3165  -43.4192 C.3       4 UNK        -0.1800 
     54 N           1.9842  -11.1898  -42.9835 N.am      4 UNK        -0.5000 
     55 C           2.5606  -12.3960  -43.0546 C.2       3 UNK         0.5000 
     56 O           2.1195  -13.3386  -43.7201 O.2       3 UNK        -0.5000 
     57 CA          3.8514  -12.5843  -42.2510 C.3       3 UNK         0.1400 
     58 CB          3.5767  -13.2627  -40.8981 C.3       3 UNK        -0.1800 
     59 N           4.7568  -13.3984  -43.0490 N.am      3 UNK        -0.5000 
     60 C           6.0853  -13.4571  -42.9129 C.2       2 UNK         0.5000 
     61 O           6.7136  -12.8505  -42.0444 O.2       2 UNK        -0.5000 
     62 CA          6.8449  -14.3335  -43.9275 C.3       2 UNK         0.1400 
     63 CB          7.0183  -15.7587  -43.3799 C.3       2 UNK        -0.1800 
     64 N           6.2013  -14.4025  -45.2433 N.am      2 UNK        -0.5000 
     65 C           6.1097  -13.3769  -46.1012 C.2       1 UNK         0.5000 
     66 O           6.5373  -12.2445  -45.8670 O.2       1 UNK        -0.5000 
     67 C          -1.2076  -22.2491  -48.9412 C.2       11 UNK         0.5000 
     68 O          -1.1798  -23.2936  -49.5915 O.2       11 UNK        -0.5000 
     69 N          -2.3389  -21.6799  -48.4990 N.am      12 UNK        -0.5000 
     70 CA         -3.6801  -22.2397  -48.6886 C.3       12 UNK         0.1400 
     71 CB         -4.7342  -21.2665  -48.1405 C.3       12 UNK        -0.1800 
     72 C          -3.8380  -23.6267  -48.0413 C.2       12 UNK         0.5000 
     73 O          -4.3685  -24.5367  -48.6784 O.2       12 UNK        -0.5000 
     74 N          -3.3431  -23.7703  -46.8037 N.am      13 UNK        -0.5000 
     75 CA         -3.3202  -25.0241  -46.0528 C.3       13 UNK         0.1400 
     76 CB         -2.8854  -24.7534  -44.6047 C.3       13 UNK        -0.1800 
     77 C          -2.4239  -26.0897  -46.7069 C.2       13 UNK         0.5000 
     78 O          -2.8534  -27.2356  -46.8408 O.2       13 UNK        -0.5000 
     79 N          -1.2194  -25.6915  -47.1423 N.am      14 UNK        -0.5000 
     80 CA         -0.2631  -26.5476  -47.8512 C.3       14 UNK         0.1400 
     81 CB          1.0651  -25.7971  -48.0300 C.3       14 UNK        -0.1800 
     82 C          -0.7923  -27.0463  -49.2093 C.2       14 UNK         0.5000 
     83 O          -0.5577  -28.2002  -49.5695 O.2       14 UNK        -0.5000 
     84 N          -1.5300  -26.1809  -49.9158 N.am      15 UNK        -0.5000 
     85 CA         -2.2250  -26.4891  -51.1651 C.3       15 UNK         0.1400 
     86 CB         -2.4730  -25.1753  -51.9209 C.3       15 UNK        -0.1800 
     87 C          -3.5541  -27.2463  -50.9639 C.2       15 UNK         0.5000 
     88 O          -4.1924  -27.5946  -51.9571 O.2       15 UNK        -0.5000 
     89 N          -3.9793  -27.4514  -49.7069 N.am      16 UNK        -0.5000 
     90 CA         -5.2412  -28.0734  -49.2845 C.3       16 UNK         0.1400 
     91 CB         -5.2205  -29.5860  -49.5855 C.3       16 UNK        -0.1800 
     92 C          -6.4876  -27.3627  -49.8591 C.2       16 UNK         0.5000 
     93 O          -7.4808  -28.0156  -50.1836 O.2       16 UNK        -0.5000 
     94 N          -6.3857  -26.0333  -50.0048 N.am      17 UNK        -0.5000 
     95 CA         -7.3472  -25.1057  -50.6082 C.3       17 UNK         0.1400 
     96 CB         -8.6495  -25.0546  -49.7834 C.3       17 UNK        -0.1800 
     97 C          -7.6146  -25.3291  -52.1154 C.2       17 UNK         0.5000 
     98 O          -8.5283  -24.7048  -52.6572 O.2       17 UNK        -0.5000 
     99 N          -6.8160  -26.1739  -52.7874 N.am      18 UNK        -0.5000 
    100 CA        -6.8967  -26.4101  -54.2341 C.3       18 UNK         0.1400 
    101 CB        -6.2726  -27.7754  -54.5610 C.3       18 UNK        -0.1800 
    102 C         -6.2176  -25.2939  -55.0537 C.2       18 UNK         0.5000 
    103 O         -6.4727  -25.1738  -56.2527 O.2       18 UNK        -0.5000 
    104 N         -5.3770  -24.4967  -54.3896 N.am      19 UNK        -0.5000 
    105 CA        -4.7030  -23.3086  -54.8915 C.3       19 UNK         0.1400 
    106 CB        -3.3904  -23.7075  -55.5918 C.3       19 UNK        -0.1800 
    107 C         -4.4632  -22.3710  -53.6964 C.2       19 UNK         0.5000 
    108 O         -4.7781  -22.7402  -52.5605 O.2       19 UNK        -0.5000 
    109 N         -3.9137  -21.1804  -53.9767 N.am      20 UNK        -0.5000 
    110 CA        -3.6085  -20.1124  -53.0170 C.3       20 UNK         0.1400 
    111 CB        -2.4554  -20.5222  -52.0765 C.3       20 UNK        -0.1800 
    112 C         -4.8683  -19.6207  -52.2748 C.2       20 UNK         0.5000 
    113 O         -4.9176  -19.6148  -51.0443 O.2       20 UNK        -0.5000 
    114 N         -5.8686  -19.1893  -53.0591 N.am      21 UNK        -0.5000 
    115 CA        -7.1547  -18.6434  -52.5980 C.3       21 UNK         0.1400 
    116 CB        -8.0482  -18.3870  -53.8216 C.3       21 UNK        -0.1800 
    117 C         -7.0406  -17.3688  -51.7303 C.2       21 UNK         0.5000 
    118 O         -7.9997  -17.0049  -51.0488 O.2       21 UNK        -0.5000 
    119 N         -5.8612  -16.7390  -51.7545 N.am      22 UNK        -0.5000 
    120 CA        -5.3793  -15.7271  -50.8057 C.3       22 UNK         0.1400 
    121 C         -5.3501  -16.1834  -49.3143 C.2       22 UNK         0.5000 
    122 N         -5.2592  -17.4745  -49.0145 N.am      22 UNK        -0.7600 
    123 O         -5.4186  -15.3472  -48.4182 O.2       22 UNK        -0.5000 
    124 C124       -3.9889  -15.1947  -51.2472 C.3       23 UNK        -0.0398 
    125 S125       -2.7687  -16.5342  -51.5136 S.3       23 UNK        -0.2404 
    126 C126       -1.3178  -15.6229  -52.1145 C.3       23 UNK        -0.0205 
    127 H127        7.9765  -12.8458  -50.4468 H         1 UNK         0.0600 
    128 H128        9.3606  -13.5509  -49.6067 H         1 UNK         0.0600 
    129 H129        8.4045  -14.5372  -50.7182 H         1 UNK         0.0600 
    130 H130        6.2137  -12.6093  -49.1060 H         1 UNK         0.3000 
    131 H131        5.1536  -14.7209  -47.4834 H         1 UNK         0.0600 
    132 H132        3.4791  -12.9575  -46.7704 H         1 UNK         0.0800 
    133 H133        4.3804  -11.7630  -47.6631 H         1 UNK         0.0800 
    134 H134        2.4390  -14.9898  -47.6861 H         1 UNK         0.0800 
    135 H135        1.1768  -13.8440  -48.0665 H         1 UNK         0.0800 
    136 H136       -0.1097  -14.1054  -50.1954 H         1 UNK         0.1150 
    137 H137        0.1735  -17.8979  -52.1769 H         1 UNK         0.1150 
    138 H138        3.0091  -16.8498  -49.1386 H         1 UNK         0.1150 
    139 H139        2.0193  -19.3688  -51.7539 H         1 UNK         0.0800 
    140 H140        3.4445  -18.6601  -51.0392 H         1 UNK         0.0800 
    141 H141        0.2791  -20.7258  -50.5656 H         1 UNK         0.0800 
    142 H142       -0.1665  -19.5509  -49.3499 H         1 UNK         0.0800 
    143 H143        0.8958  -22.3389  -48.6714 H         1 UNK         0.0600 
    144 H144        0.2214  -20.1658  -46.9685 H         1 UNK         0.3000 
    145 H145       -0.4911  -22.1633  -44.0467 H         1 UNK         0.0600 
    146 H146        1.1790  -20.5379  -43.1491 H         1 UNK         0.0600 
    147 H147        1.9467  -21.8224  -44.0707 H         1 UNK         0.0600 
    148 H148        1.7647  -20.2286  -44.7828 H         1 UNK         0.0600 
    149 H149       -0.6421  -19.3543  -44.4505 H         1 UNK         0.3000 
    150 H150       -4.0167  -19.2642  -45.6661 H         1 UNK         0.0600 
    151 H151       -4.2279  -19.4065  -43.1846 H         1 UNK         0.0600 
    152 H152       -4.2694  -17.7365  -43.7315 H         1 UNK         0.0600 
    153 H153       -2.8087  -18.3851  -42.9906 H         1 UNK         0.0600 
    154 H154       -2.2114  -17.1615  -45.0913 H         1 UNK         0.3000 
    155 H155       -0.4923  -17.1142  -48.2449 H         1 UNK         0.0600 
    156 H156       -1.2151  -14.7096  -47.9010 H         1 UNK         0.0600 
    157 H157       -2.5190  -15.2761  -46.8599 H         1 UNK         0.0600 
    158 H158       -2.4780  -15.7387  -48.5516 H         1 UNK         0.0600 
    159 H159       -0.2150  -15.6818  -45.7450 H         1 UNK         0.3000 
    160 H160        2.1723  -17.8456  -44.2916 H         1 UNK         0.0600 
    161 H161        2.7864  -15.1114  -45.4950 H         1 UNK         0.0600 
    162 H162        3.5986  -16.6051  -45.9604 H         1 UNK         0.0600 
    163 H163        3.7364  -16.0045  -44.3141 H         1 UNK         0.0600 
    164 H164        1.2267  -15.1862  -43.6575 H         1 UNK         0.3000 
    165 H165       -1.5440  -16.4059  -41.6771 H         1 UNK         0.0600 
    166 H166        1.0245  -14.8904  -40.9948 H         1 UNK         0.0600 
    167 H167       -0.4307  -14.9888  -40.0089 H         1 UNK         0.0600 
    168 H168        0.5496  -16.4239  -40.2711 H         1 UNK         0.0600 
    169 H169       -0.7815  -13.7410  -42.2161 H         1 UNK         0.3000 
    170 H170       -2.6624  -13.2386  -45.1932 H         1 UNK         0.0600 
    171 H171       -4.3589  -13.1670  -43.4095 H         1 UNK         0.0600 
    172 H172       -3.2353  -12.3881  -42.3078 H         1 UNK         0.0600 
    173 H173       -3.7804  -11.5451  -43.7573 H         1 UNK         0.0600 
    174 H174       -0.8997  -11.9560  -45.1914 H         1 UNK         0.3000 
    175 H175        0.9296  -10.9372  -44.7506 H         1 UNK         0.0600 
    176 H176        1.2924   -8.6892  -43.7674 H         1 UNK         0.0600 
    177 H177       -0.4284   -8.9934  -43.9439 H         1 UNK         0.0600 
    178 H178        0.3220   -9.1163  -42.3573 H         1 UNK         0.0600 
    179 H179        2.3951  -10.4868  -42.3869 H         1 UNK         0.3000 
    180 H180        4.3037  -11.6048  -42.0814 H         1 UNK         0.0600 
    181 H181        3.2594  -14.2972  -41.0288 H         1 UNK         0.0600 
    182 H182        2.7952  -12.7405  -40.3446 H         1 UNK         0.0600 
    183 H183        4.4694  -13.2682  -40.2726 H         1 UNK         0.0600 
    184 H184        4.3085  -13.9033  -43.8011 H         1 UNK         0.3000 
    185 H185        7.8373  -13.8973  -44.0603 H         1 UNK         0.0600 
    186 H186        7.6215  -16.3693  -44.0521 H         1 UNK         0.0600 
    187 H187        7.5239  -15.7462  -42.4134 H         1 UNK         0.0600 
    188 H188        6.0587  -16.2580  -43.2409 H         1 UNK         0.0600 
    189 H189        5.8713  -15.3122  -45.5305 H         1 UNK         0.3000 
    190 H190       -2.2810  -20.7837  -48.0221 H         1 UNK         0.3000 
    191 H191       -3.8475  -22.3510  -49.7611 H         1 UNK         0.0600 
    192 H192       -4.5785  -20.2591  -48.5233 H         1 UNK         0.0600 
    193 H193       -5.7367  -21.5775  -48.4364 H         1 UNK         0.0600 
    194 H194       -4.7162  -21.2125  -47.0528 H         1 UNK         0.0600 
    195 H195       -2.9722  -22.9505  -46.3303 H         1 UNK         0.3000 
    196 H196       -4.3393  -25.4158  -46.0317 H         1 UNK         0.0600 
    197 H197       -2.8789  -25.6739  -44.0198 H         1 UNK         0.0600 
    198 H198       -3.5674  -24.0597  -44.1127 H         1 UNK         0.0600 
    199 H199       -1.8838  -24.3258  -44.5568 H         1 UNK         0.0600 
    200 H200       -0.9216  -24.7368  -46.9576 H         1 UNK         0.3000 
    201 H201       -0.0770  -27.4241  -47.2273 H         1 UNK         0.0600 
    202 H202        1.4898  -25.5129  -47.0671 H         1 UNK         0.0600 
    203 H203        0.9371  -24.8893  -48.6201 H         1 UNK         0.0600 
    204 H204        1.8014  -26.4200  -48.5393 H         1 UNK         0.0600 
    205 H205       -1.6174  -25.2262  -49.5785 H         1 UNK         0.3000 
    206 H206       -1.5819  -27.1204  -51.7812 H         1 UNK         0.0600 
    207 H207       -1.5378  -24.6591  -52.1380 H         1 UNK         0.0600 
    208 H208       -2.9720  -25.3586  -52.8721 H         1 UNK         0.0600 
    209 H209       -3.1019  -24.4968  -51.3432 H         1 UNK         0.0600 
    210 H210       -3.3985  -27.1089  -48.9516 H         1 UNK         0.3000 
    211 H211       -5.2944  -27.9506  -48.2019 H         1 UNK         0.0600 
    212 H212       -5.2218  -29.7851  -50.6576 H         1 UNK         0.0600 
    213 H213       -6.0926  -30.0827  -49.1588 H         1 UNK         0.0600 
    214 H214       -4.3371  -30.0597  -49.1573 H         1 UNK         0.0600 
    215 H215       -5.5340  -25.5928  -49.6594 H         1 UNK         0.3000 
    216 H216       -6.8797  -24.1222  -50.5390 H         1 UNK         0.0600 
    217 H217       -8.4412  -24.8701  -48.7295 H         1 UNK         0.0600 
    218 H218       -9.2134  -25.9847  -49.8573 H         1 UNK         0.0600 
    219 H219       -9.3012  -24.2509  -50.1280 H         1 UNK         0.0600 
    220 H220       -6.0762  -26.6599  -52.2922 H         1 UNK         0.3000 
    221 H221       -7.9483  -26.4434  -54.5266 H         1 UNK         0.0600 
    222 H222       -5.1974  -27.7813  -54.3807 H         1 UNK         0.0600 
    223 H223       -6.7191  -28.5697  -53.9625 H         1 UNK         0.0600 
    224 H224       -6.4268  -28.0312  -55.6099 H         1 UNK         0.0600 
    225 H225       -5.2851  -24.6177  -53.3887 H         1 UNK         0.3000 
    226 H226       -5.3570  -22.7941  -55.5986 H         1 UNK         0.0600 
    227 H227       -3.5729  -24.4189  -56.3974 H         1 UNK         0.0600 
    228 H228       -2.8997  -22.8409  -56.0354 H         1 UNK         0.0600 
    229 H229       -2.6841  -24.1637  -54.8983 H         1 UNK         0.0600 
    230 H230       -3.6970  -20.9708  -54.9411 H         1 UNK         0.3000 
    231 H231       -3.2540  -19.2607  -53.5996 H         1 UNK         0.0600 
    232 H232       -1.5442  -20.7235  -52.6391 H         1 UNK         0.0600 
    233 H233       -2.6948  -21.4174  -51.5059 H         1 UNK         0.0600 
    234 H234       -2.2276  -19.7294  -51.3624 H         1 UNK         0.0600 
    235 H235       -5.7433  -19.2374  -54.0597 H         1 UNK         0.3000 
    236 H236       -7.6306  -19.4070  -51.9797 H         1 UNK         0.0600 
    237 H237       -9.0283  -18.0146  -53.5202 H         1 UNK         0.0600 
    238 H238       -7.6082  -17.6476  -54.4919 H         1 UNK         0.0600 
    239 H239       -8.2124  -19.3026  -54.3901 H         1 UNK         0.0600 
    240 H240       -5.1449  -17.1296  -52.3476 H         1 UNK         0.3000 
    241 H241       -6.0832  -14.8944  -50.8527 H         1 UNK         0.0600 
    242 H242       -5.1576  -18.1744  -49.7442 H         1 UNK         0.3800 
    243 H243       -5.2406  -17.7550  -48.0492 H         1 UNK         0.3800 
    244 H244       -4.0947  -14.6416  -52.1814 H         1 UNK         0.0800 
    245 H245       -3.5920  -14.4822  -50.5216 H         1 UNK         0.0800 
    246 H246       -1.1376  -15.8848  -53.1580 H         1 UNK         0.0800 
    247 H247       -1.5071  -14.5486  -52.0961 H         1 UNK         0.0800 
@<TRIPOS>BOND
     1    1    2 1    
     2    1  127 1    
     3    1  128 1    
     4    1  129 1    
     5    2    3 2    
     6    2    4 am   BACKBONE|DICT|INTERRES
     7    4    5 1    
     8    4  130 1    
     9    5    6 1    
    10    5   65 1    
    11    5  131 1    
    12    6    7 1    
    13    6  132 1    
    14    6  133 1    
    15    7    8 1    
    16    8    9 1    
    17    8  134 1    
    18    8  135 1    
    19    9   10 ar   
    20    9   14 ar   
    21   10   11 ar   
    22   10  136 1    
    23   11   12 ar   
    24   11  126 1    
    25   12   13 ar   
    26   12  137 1    
    27   13   14 ar   
    28   13   15 1    
    29   14  138 1    
    30   15   16 1    
    31   15  139 1    
    32   15  140 1    
    33   16   17 1    
    34   17   18 1    
    35   17  141 1    
    36   17  142 1    
    37   18   19 1    
    38   18   67 1    
    39   18  143 1    
    40   19   20 am   BACKBONE|DICT|INTERRES
    41   19  144 1    
    42   20   21 2    
    43   20   22 1    
    44   22   23 1    
    45   22   24 1    
    46   22  145 1    
    47   23  146 1    
    48   23  147 1    
    49   23  148 1    
    50   24   25 am   BACKBONE|DICT|INTERRES
    51   24  149 1    
    52   25   26 2    
    53   25   27 1    
    54   27   28 1    
    55   27   29 1    
    56   27  150 1    
    57   28  151 1    
    58   28  152 1    
    59   28  153 1    
    60   29   30 am   BACKBONE|DICT|INTERRES
    61   29  154 1    
    62   30   31 2    
    63   30   32 1    
    64   32   33 1    
    65   32   34 1    
    66   32  155 1    
    67   33  156 1    
    68   33  157 1    
    69   33  158 1    
    70   34   35 am   BACKBONE|DICT|INTERRES
    71   34  159 1    
    72   35   36 2    
    73   35   37 1    
    74   37   38 1    
    75   37   39 1    
    76   37  160 1    
    77   38  161 1    
    78   38  162 1    
    79   38  163 1    
    80   39   40 am   BACKBONE|DICT|INTERRES
    81   39  164 1    
    82   40   41 2    
    83   40   42 1    
    84   42   43 1    
    85   42   44 1    
    86   42  165 1    
    87   43  166 1    
    88   43  167 1    
    89   43  168 1    
    90   44   45 am   BACKBONE|DICT|INTERRES
    91   44  169 1    
    92   45   46 2    
    93   45   47 1    
    94   47   48 1    
    95   47   49 1    
    96   47  170 1    
    97   48  171 1    
    98   48  172 1    
    99   48  173 1    
   100   49   50 am   BACKBONE|DICT|INTERRES
   101   49  174 1    
   102   50   51 2    
   103   50   52 1    
   104   52   53 1    
   105   52   54 1    
   106   52  175 1    
   107   53  176 1    
   108   53  177 1    
   109   53  178 1    
   110   54   55 am   BACKBONE|DICT|INTERRES
   111   54  179 1    
   112   55   56 2    
   113   55   57 1    
   114   57   58 1    
   115   57   59 1    
   116   57  180 1    
   117   58  181 1    
   118   58  182 1    
   119   58  183 1    
   120   59   60 am   BACKBONE|DICT|INTERRES
   121   59  184 1    
   122   60   61 2    
   123   60   62 1    
   124   62   63 1    
   125   62   64 1    
   126   62  185 1    
   127   63  186 1    
   128   63  187 1    
   129   63  188 1    
   130   64   65 am   BACKBONE|DICT|INTERRES
   131   64  189 1    
   132   65   66 2    
   133   67   68 2    
   134   67   69 am   BACKBONE|DICT|INTERRES
   135   69   70 1    
   136   69  190 1    
   137   70   71 1    
   138   70   72 1    
   139   70  191 1    
   140   71  192 1    
   141   71  193 1    
   142   71  194 1    
   143   72   73 2    
   144   72   74 am   BACKBONE|DICT|INTERRES
   145   74   75 1    
   146   74  195 1    
   147   75   76 1    
   148   75   77 1    
   149   75  196 1    
   150   76  197 1    
   151   76  198 1    
   152   76  199 1    
   153   77   78 2    
   154   77   79 am   BACKBONE|DICT|INTERRES
   155   79   80 1    
   156   79  200 1    
   157   80   81 1    
   158   80   82 1    
   159   80  201 1    
   160   81  202 1    
   161   81  203 1    
   162   81  204 1    
   163   82   83 2    
   164   82   84 am   BACKBONE|DICT|INTERRES
   165   84   85 1    
   166   84  205 1    
   167   85   86 1    
   168   85   87 1    
   169   85  206 1    
   170   86  207 1    
   171   86  208 1    
   172   86  209 1    
   173   87   88 2    
   174   87   89 am   BACKBONE|DICT|INTERRES
   175   89   90 1    
   176   89  210 1    
   177   90   91 1    
   178   90   92 1    
   179   90  211 1    
   180   91  212 1    
   181   91  213 1    
   182   91  214 1    
   183   92   93 2    
   184   92   94 am   BACKBONE|DICT|INTERRES
   185   94   95 1    
   186   94  215 1    
   187   95   96 1    
   188   95   97 1    
   189   95  216 1    
   190   96  217 1    
   191   96  218 1    
   192   96  219 1    
   193   97   98 2    
   194   97   99 am   BACKBONE|DICT|INTERRES
   195   99  100 1    
   196   99  220 1    
   197  100  101 1    
   198  100  102 1    
   199  100  221 1    
   200  101  222 1    
   201  101  223 1    
   202  101  224 1    
   203  102  103 2    
   204  102  104 am   BACKBONE|DICT|INTERRES
   205  104  105 1    
   206  104  225 1    
   207  105  106 1    
   208  105  107 1    
   209  105  226 1    
   210  106  227 1    
   211  106  228 1    
   212  106  229 1    
   213  107  108 2    
   214  107  109 am   BACKBONE|DICT|INTERRES
   215  109  110 1    
   216  109  230 1    
   217  110  111 1    
   218  110  112 1    
   219  110  231 1    
   220  111  232 1    
   221  111  233 1    
   222  111  234 1    
   223  112  113 2    
   224  112  114 am   BACKBONE|DICT|INTERRES
   225  114  115 1    
   226  114  235 1    
   227  115  116 1    
   228  115  117 1    
   229  115  236 1    
   230  116  237 1    
   231  116  238 1    
   232  116  239 1    
   233  117  118 2    
   234  117  119 am   BACKBONE|DICT|INTERRES
   235  119  120 1    
   236  119  240 1    
   237  120  121 1    
   238  120  124 1    
   239  120  241 1    
   240  121  122 am   BACKBONE|DICT|INTERRES
   241  121  123 2    
   242  122  242 1    
   243  122  243 1    
   244  124  125 1    
   245  124  244 1    
   246  124  245 1    
   247  125  126 1    
   248  126  246 1    
   249  126  247 1    
@<TRIPOS>SUBSTRUCTURE
     1 UNK         1 GROUP             0       ****    0 ROOT    
