@<TRIPOS>MOLECULE
3R540
247   249    1
SMALL
USER_CHARGES


@<TRIPOS>ATOM
      1 CA          3.7384  -11.8723  -51.2318 C.3       0 UNK        -0.1800 
      2 C           2.9321  -12.0445  -49.9527 C.2       0 UNK         0.5000 
      3 O           3.4976  -12.0064  -48.8591 O.2       0 UNK        -0.5000 
      4 N           1.6113  -12.2211  -50.0789 N.am      1 UNK        -0.5000 
      5 CA          0.6593  -12.4294  -48.9789 C.3       1 UNK         0.1400 
      6 C6         -0.6068  -13.1994  -49.4425 C.3       23 UNK        -0.0398 
      7 S7         -0.2334  -14.7493  -50.3315 S.3       23 UNK        -0.2404 
      8 C8         -0.3343  -15.9774  -48.9960 C.3       23 UNK        -0.0205 
      9 C9         -0.1250  -17.3770  -49.5493 C.ar      23 UNK        -0.0193 
     10 C10        -1.2038  -18.0885  -50.0799 C.ar      23 UNK        -0.1150 
     11 C11        -1.0129  -19.3541  -50.6400 C.ar      23 UNK        -0.0193 
     12 C12         0.2671  -19.9149  -50.6540 C.ar      23 UNK        -0.1150 
     13 C13         1.3540  -19.2170  -50.1171 C.ar      23 UNK        -0.0193 
     14 C14         1.1499  -17.9489  -49.5637 C.ar      23 UNK        -0.1150 
     15 C15         2.7577  -19.8093  -50.1607 C.3       23 UNK        -0.0205 
     16 S16         2.8666  -21.4774  -49.4355 S.3       23 UNK        -0.2404 
     17 C17         2.3186  -21.1759  -47.7213 C.3       23 UNK        -0.0398 
     18 CA          1.4831  -22.3431  -47.1480 C.3       11 UNK         0.1400 
     19 N           1.3732  -22.2563  -45.6909 N.am      11 UNK        -0.5000 
     20 C           0.9062  -23.2333  -44.9026 C.2       10 UNK         0.5000 
     21 O           0.5554  -24.3368  -45.3181 O.2       10 UNK        -0.5000 
     22 CA          0.7671  -22.9113  -43.4047 C.3       10 UNK         0.1400 
     23 CB          2.1192  -23.0538  -42.6907 C.3       10 UNK        -0.1800 
     24 N           0.2150  -21.5769  -43.1648 N.am      10 UNK        -0.5000 
     25 C          -1.0161  -21.1905  -43.5305 C.2       9 UNK         0.5000 
     26 O          -1.8330  -21.9365  -44.0691 O.2       9 UNK        -0.5000 
     27 CA         -1.3816  -19.7126  -43.3049 C.3       9 UNK         0.1400 
     28 CB         -1.7490  -19.4528  -41.8366 C.3       9 UNK        -0.1800 
     29 N          -0.3135  -18.8009  -43.7110 N.am      9 UNK        -0.5000 
     30 C           0.1578  -18.6788  -44.9596 C.2       8 UNK         0.5000 
     31 O          -0.2814  -19.3021  -45.9245 O.2       8 UNK        -0.5000 
     32 CA          1.3645  -17.7453  -45.1479 C.3       8 UNK         0.1400 
     33 CB          0.9262  -16.2720  -45.1827 C.3       8 UNK        -0.1800 
     34 N           2.3715  -17.9422  -44.1039 N.am      8 UNK        -0.5000 
     35 C           3.0970  -19.0597  -43.9523 C.2       7 UNK         0.5000 
     36 O           3.0195  -20.0319  -44.7025 O.2       7 UNK        -0.5000 
     37 CA          4.0377  -19.1151  -42.7350 C.3       7 UNK         0.1400 
     38 CB          5.3520  -18.3773  -43.0307 C.3       7 UNK        -0.1800 
     39 N           3.4273  -18.5565  -41.5280 N.am      7 UNK        -0.5000 
     40 C           2.3851  -19.1018  -40.8842 C.2       6 UNK         0.5000 
     41 O           1.8486  -20.1564  -41.2205 O.2       6 UNK        -0.5000 
     42 CA          1.8108  -18.3027  -39.6987 C.3       6 UNK         0.1400 
     43 CB          2.5875  -18.6115  -38.4102 C.3       6 UNK        -0.1800 
     44 N           1.7993  -16.8541  -39.9282 N.am      6 UNK        -0.5000 
     45 C           1.1404  -16.2534  -40.9275 C.2       5 UNK         0.5000 
     46 O           0.4867  -16.8658  -41.7748 O.2       5 UNK        -0.5000 
     47 CA          1.2920  -14.7254  -41.0310 C.3       5 UNK         0.1400 
     48 CB          2.6344  -14.3671  -41.6886 C.3       5 UNK        -0.1800 
     49 N           0.2202  -14.1267  -41.8229 N.am      5 UNK        -0.5000 
     50 C          -1.0650  -14.0443  -41.4609 C.2       4 UNK         0.5000 
     51 O          -1.4846  -14.3844  -40.3527 O.2       4 UNK        -0.5000 
     52 CA         -2.0221  -13.4435  -42.5129 C.3       4 UNK         0.1400 
     53 CB         -3.4853  -13.4062  -42.0360 C.3       4 UNK        -0.1800 
     54 N          -1.6142  -12.0887  -42.8922 N.am      4 UNK        -0.5000 
     55 C          -0.6328  -11.7871  -43.7498 C.2       3 UNK         0.5000 
     56 O           0.0273  -12.6331  -44.3622 O.2       3 UNK        -0.5000 
     57 CA         -0.3043  -10.2980  -43.9093 C.3       3 UNK         0.1400 
     58 CB          0.5514   -9.7948  -42.7325 C.3       3 UNK        -0.1800 
     59 N           0.4191  -10.1153  -45.1602 N.am      3 UNK        -0.5000 
     60 C           0.4736   -8.9877  -45.8753 C.2       2 UNK         0.5000 
     61 O          -0.0537   -7.9308  -45.5252 O.2       2 UNK        -0.5000 
     62 CA          1.2417   -9.0435  -47.2103 C.3       2 UNK         0.1400 
     63 CB          2.6632   -8.4871  -47.0359 C.3       2 UNK        -0.1800 
     64 N           1.3297  -10.3838  -47.7965 N.am      2 UNK        -0.5000 
     65 C           0.3053  -11.0833  -48.3020 C.2       1 UNK         0.5000 
     66 O          -0.8600  -10.6824  -48.2822 O.2       1 UNK        -0.5000 
     67 C           0.0987  -22.4804  -47.8209 C.2       11 UNK         0.5000 
     68 O          -0.0670  -23.3329  -48.6935 O.2       11 UNK        -0.5000 
     69 N          -0.8881  -21.6953  -47.3654 N.am      12 UNK        -0.5000 
     70 CA         -2.2782  -21.7848  -47.8120 C.3       12 UNK         0.1400 
     71 CB         -3.0871  -20.6069  -47.2526 C.3       12 UNK        -0.1800 
     72 C          -2.9332  -23.1316  -47.4578 C.2       12 UNK         0.5000 
     73 O          -3.6272  -23.7025  -48.2987 O.2       12 UNK        -0.5000 
     74 N          -2.6696  -23.6419  -46.2466 N.am      13 UNK        -0.5000 
     75 CA         -3.1082  -24.9618  -45.7903 C.3       13 UNK         0.1400 
     76 CB         -2.8089  -25.1252  -44.2930 C.3       13 UNK        -0.1800 
     77 C          -2.4841  -26.1079  -46.6076 C.2       13 UNK         0.5000 
     78 O          -3.2025  -27.0265  -47.0021 O.2       13 UNK        -0.5000 
     79 N          -1.1787  -26.0103  -46.9001 N.am      14 UNK        -0.5000 
     80 CA         -0.4421  -26.9403  -47.7630 C.3       14 UNK         0.1400 
     81 CB          1.0583  -26.6162  -47.7075 C.3       14 UNK        -0.1800 
     82 C          -0.9475  -26.9431  -49.2198 C.2       14 UNK         0.5000 
     83 O          -0.9428  -27.9926  -49.8634 O.2       14 UNK        -0.5000 
     84 N          -1.4256  -25.7841  -49.6913 N.am      15 UNK        -0.5000 
     85 CA         -2.0979  -25.5965  -50.9783 C.3       15 UNK         0.1400 
     86 CB         -1.9505  -24.1257  -51.4021 C.3       15 UNK        -0.1800 
     87 C          -3.5827  -26.0314  -50.9704 C.2       15 UNK         0.5000 
     88 O          -4.2704  -25.8115  -51.9670 O.2       15 UNK        -0.5000 
     89 N          -4.0542  -26.6346  -49.8677 N.am      16 UNK        -0.5000 
     90 CA         -5.4053  -27.1550  -49.6359 C.3       16 UNK         0.1400 
     91 CB         -5.7596  -28.2717  -50.6413 C.3       16 UNK        -0.1800 
     92 C          -6.4712  -26.0447  -49.5458 C.2       16 UNK         0.5000 
     93 O          -7.5677  -26.1920  -50.0889 O.2       16 UNK        -0.5000 
     94 N          -6.1243  -24.9597  -48.8380 N.am      17 UNK        -0.5000 
     95 CA         -6.9400  -23.7718  -48.5637 C.3       17 UNK         0.1400 
     96 CB         -8.2008  -24.1292  -47.7479 C.3       17 UNK        -0.1800 
     97 C          -7.2393  -22.9461  -49.8306 C.2       17 UNK         0.5000 
     98 O          -8.3273  -22.3820  -49.9654 O.2       17 UNK        -0.5000 
     99 N          -6.2550  -22.8851  -50.7359 N.am      18 UNK        -0.5000 
    100 CA        -6.2765  -22.0530  -51.9367 C.3       18 UNK         0.1400 
    101 CB        -5.1501  -22.5134  -52.8757 C.3       18 UNK        -0.1800 
    102 C         -6.1117  -20.5572  -51.6070 C.2       18 UNK         0.5000 
    103 O         -5.6475  -20.2017  -50.5207 O.2       18 UNK        -0.5000 
    104 N         -6.4521  -19.7129  -52.5822 N.am      19 UNK        -0.5000 
    105 CA        -6.1773  -18.2832  -52.5953 C.3       19 UNK         0.1400 
    106 CB        -7.3528  -17.5094  -51.9768 C.3       19 UNK        -0.1800 
    107 C         -5.9508  -17.8895  -54.0588 C.2       19 UNK         0.5000 
    108 O         -6.6946  -18.3575  -54.9260 O.2       19 UNK        -0.5000 
    109 N         -4.9252  -17.0640  -54.3062 N.am      20 UNK        -0.5000 
    110 CA        -4.4199  -16.5938  -55.6043 C.3       20 UNK         0.1400 
    111 CB        -5.4757  -15.7650  -56.3621 C.3       20 UNK        -0.1800 
    112 C         -3.8365  -17.7175  -56.4852 C.2       20 UNK         0.5000 
    113 O         -2.6497  -17.6828  -56.8124 O.2       20 UNK        -0.5000 
    114 N         -4.6608  -18.7159  -56.8206 N.am      21 UNK        -0.5000 
    115 CA        -4.3134  -19.9149  -57.5843 C.3       21 UNK         0.1400 
    116 CB        -5.5796  -20.4252  -58.2953 C.3       21 UNK        -0.1800 
    117 C         -3.6614  -20.9864  -56.6837 C.2       21 UNK         0.5000 
    118 O         -4.1159  -22.1308  -56.6425 O.2       21 UNK        -0.5000 
    119 N         -2.6181  -20.5805  -55.9543 N.am      22 UNK        -0.5000 
    120 CA        -1.8819  -21.4014  -54.9796 C.3       22 UNK         0.1400 
    121 C         -0.8167  -22.3481  -55.6069 C.2       22 UNK         0.5000 
    122 N         -0.5339  -22.2737  -56.9019 N.am      22 UNK        -0.7600 
    123 O         -0.2413  -23.1750  -54.9055 O.2       22 UNK        -0.5000 
    124 C124       -1.2588  -20.5186  -53.8693 C.3       23 UNK        -0.0398 
    125 S125       -2.5252  -19.5804  -52.9444 S.3       23 UNK        -0.2404 
    126 C126       -2.1937  -20.1027  -51.2344 C.3       23 UNK        -0.0205 
    127 H127        3.1074  -11.9282  -52.1192 H         1 UNK         0.0600 
    128 H128        4.4970  -12.6515  -51.3043 H         1 UNK         0.0600 
    129 H129        4.2403  -10.9047  -51.2312 H         1 UNK         0.0600 
    130 H130        1.2048  -12.2303  -51.0035 H         1 UNK         0.3000 
    131 H131        1.1455  -13.0438  -48.2178 H         1 UNK         0.0600 
    132 H132       -1.2010  -12.5805  -50.1173 H         1 UNK         0.0800 
    133 H133       -1.2526  -13.4206  -48.5908 H         1 UNK         0.0800 
    134 H134        0.4219  -15.7504  -48.2439 H         1 UNK         0.0800 
    135 H135       -1.3045  -15.9129  -48.5008 H         1 UNK         0.0800 
    136 H136       -2.1903  -17.6465  -50.0792 H         1 UNK         0.1150 
    137 H137        0.4217  -20.8948  -51.0828 H         1 UNK         0.1150 
    138 H138        1.9865  -17.3949  -49.1615 H         1 UNK         0.1150 
    139 H139        3.0831  -19.8576  -51.2006 H         1 UNK         0.0800 
    140 H140        3.4687  -19.1608  -49.6464 H         1 UNK         0.0800 
    141 H141        1.7688  -20.2372  -47.6433 H         1 UNK         0.0800 
    142 H142        3.2231  -21.0425  -47.1273 H         1 UNK         0.0800 
    143 H143        2.0284  -23.2663  -47.3565 H         1 UNK         0.0600 
    144 H144        1.6860  -21.3894  -45.2649 H         1 UNK         0.3000 
    145 H145        0.0780  -23.6392  -42.9719 H         1 UNK         0.0600 
    146 H146        2.0109  -22.9234  -41.6139 H         1 UNK         0.0600 
    147 H147        2.5468  -24.0434  -42.8566 H         1 UNK         0.0600 
    148 H148        2.8421  -22.3187  -43.0456 H         1 UNK         0.0600 
    149 H149        0.8144  -20.9194  -42.6740 H         1 UNK         0.3000 
    150 H150       -2.2568  -19.4898  -43.9186 H         1 UNK         0.0600 
    151 H151       -2.5695  -20.0975  -41.5195 H         1 UNK         0.0600 
    152 H152       -2.0674  -18.4208  -41.6869 H         1 UNK         0.0600 
    153 H153       -0.9063  -19.6410  -41.1711 H         1 UNK         0.0600 
    154 H154        0.0844  -18.2122  -42.9823 H         1 UNK         0.3000 
    155 H155        1.8206  -17.9851  -46.1110 H         1 UNK         0.0600 
    156 H156        0.1472  -16.1144  -45.9285 H         1 UNK         0.0600 
    157 H157        0.5223  -15.9418  -44.2264 H         1 UNK         0.0600 
    158 H158        1.7595  -15.6171  -45.4373 H         1 UNK         0.0600 
    159 H159        2.4520  -17.2158  -43.4093 H         1 UNK         0.3000 
    160 H160        4.2717  -20.1644  -42.5429 H         1 UNK         0.0600 
    161 H161        5.1888  -17.3128  -43.2037 H         1 UNK         0.0600 
    162 H162        5.8357  -18.7843  -43.9197 H         1 UNK         0.0600 
    163 H163        6.0555  -18.4793  -42.2042 H         1 UNK         0.0600 
    164 H164        3.8058  -17.6874  -41.1823 H         1 UNK         0.3000 
    165 H165        0.7766  -18.6232  -39.5574 H         1 UNK         0.0600 
    166 H166        2.1321  -18.1232  -37.5484 H         1 UNK         0.0600 
    167 H167        2.5959  -19.6833  -38.2074 H         1 UNK         0.0600 
    168 H168        3.6250  -18.2813  -38.4748 H         1 UNK         0.0600 
    169 H169        2.3251  -16.2902  -39.2758 H         1 UNK         0.3000 
    170 H170        1.2602  -14.3009  -40.0255 H         1 UNK         0.0600 
    171 H171        2.7070  -14.7678  -42.7007 H         1 UNK         0.0600 
    172 H172        2.7663  -13.2865  -41.7483 H         1 UNK         0.0600 
    173 H173        3.4743  -14.7629  -41.1164 H         1 UNK         0.0600 
    174 H174        0.4610  -13.8138  -42.7567 H         1 UNK         0.3000 
    175 H175       -1.9784  -14.0886  -43.3932 H         1 UNK         0.0600 
    176 H176       -4.1443  -13.0264  -42.8169 H         1 UNK         0.0600 
    177 H177       -3.6077  -12.7730  -41.1564 H         1 UNK         0.0600 
    178 H178       -3.8369  -14.4052  -41.7747 H         1 UNK         0.0600 
    179 H179       -2.0778  -11.3367  -42.4026 H         1 UNK         0.3000 
    180 H180       -1.2434   -9.7419  -43.9487 H         1 UNK         0.0600 
    181 H181        0.7761   -8.7327  -42.8311 H         1 UNK         0.0600 
    182 H182        1.4984  -10.3322  -42.6678 H         1 UNK         0.0600 
    183 H183        0.0326   -9.9277  -41.7824 H         1 UNK         0.0600 
    184 H184        0.8374  -10.9606  -45.5279 H         1 UNK         0.3000 
    185 H185        0.7100   -8.4036  -47.9176 H         1 UNK         0.0600 
    186 H186        2.6409   -7.4749  -46.6298 H         1 UNK         0.0600 
    187 H187        3.2539   -9.1017  -46.3554 H         1 UNK         0.0600 
    188 H188        3.1892   -8.4419  -47.9898 H         1 UNK         0.0600 
    189 H189        2.2581  -10.7839  -47.8924 H         1 UNK         0.3000 
    190 H190       -0.6739  -20.9737  -46.6810 H         1 UNK         0.3000 
    191 H191       -2.2785  -21.7042  -48.8987 H         1 UNK         0.0600 
    192 H192       -2.6646  -19.6545  -47.5742 H         1 UNK         0.0600 
    193 H193       -4.1189  -20.6404  -47.6053 H         1 UNK         0.0600 
    194 H194       -3.1081  -20.6129  -46.1627 H         1 UNK         0.0600 
    195 H195       -2.1396  -23.0827  -45.5834 H         1 UNK         0.3000 
    196 H196       -4.1909  -25.0137  -45.9232 H         1 UNK         0.0600 
    197 H197       -3.1549  -26.0934  -43.9293 H         1 UNK         0.0600 
    198 H198       -3.3127  -24.3577  -43.7052 H         1 UNK         0.0600 
    199 H199       -1.7415  -25.0584  -44.0839 H         1 UNK         0.0600 
    200 H200       -0.6416  -25.2491  -46.4923 H         1 UNK         0.3000 
    201 H201       -0.5864  -27.9461  -47.3636 H         1 UNK         0.0600 
    202 H202        1.4387  -26.6834  -46.6881 H         1 UNK         0.0600 
    203 H203        1.2676  -25.6124  -48.0770 H         1 UNK         0.0600 
    204 H204        1.6320  -27.3164  -48.3159 H         1 UNK         0.0600 
    205 H205       -1.3247  -24.9555  -49.1149 H         1 UNK         0.3000 
    206 H206       -1.5903  -26.2103  -51.7249 H         1 UNK         0.0600 
    207 H207       -2.3236  -23.9698  -52.4149 H         1 UNK         0.0600 
    208 H208       -2.5051  -23.4639  -50.7380 H         1 UNK         0.0600 
    209 H209       -0.9064  -23.8121  -51.3940 H         1 UNK         0.0600 
    210 H210       -3.4238  -26.7380  -49.0813 H         1 UNK         0.3000 
    211 H211       -5.3782  -27.6156  -48.6475 H         1 UNK         0.0600 
    212 H212       -5.8828  -27.8866  -51.6537 H         1 UNK         0.0600 
    213 H213       -6.6940  -28.7613  -50.3649 H         1 UNK         0.0600 
    214 H214       -4.9868  -29.0401  -50.6653 H         1 UNK         0.0600 
    215 H215       -5.1631  -24.8872  -48.5169 H         1 UNK         0.3000 
    216 H216       -6.3246  -23.1282  -47.9335 H         1 UNK         0.0600 
    217 H217       -8.7151  -23.2281  -47.4121 H         1 UNK         0.0600 
    218 H218       -7.9448  -24.7053  -46.8588 H         1 UNK         0.0600 
    219 H219       -8.9139  -24.7108  -48.3324 H         1 UNK         0.0600 
    220 H220       -5.3921  -23.3681  -50.5332 H         1 UNK         0.3000 
    221 H221       -7.2350  -22.1951  -52.4404 H         1 UNK         0.0600 
    222 H222       -4.1702  -22.3783  -52.4181 H         1 UNK         0.0600 
    223 H223       -5.2584  -23.5653  -53.1392 H         1 UNK         0.0600 
    224 H224       -5.1543  -21.9473  -53.8081 H         1 UNK         0.0600 
    225 H225       -6.8050  -20.0696  -53.4613 H         1 UNK         0.3000 
    226 H226       -5.2674  -18.0774  -52.0268 H         1 UNK         0.0600 
    227 H227       -7.5091  -17.7963  -50.9368 H         1 UNK         0.0600 
    228 H228       -7.1645  -16.4353  -51.9945 H         1 UNK         0.0600 
    229 H229       -8.2825  -17.6908  -52.5177 H         1 UNK         0.0600 
    230 H230       -4.3665  -16.7719  -53.5163 H         1 UNK         0.3000 
    231 H231       -3.5923  -15.9220  -55.3708 H         1 UNK         0.0600 
    232 H232       -6.3453  -16.3590  -56.6438 H         1 UNK         0.0600 
    233 H233       -5.0565  -15.3501  -57.2794 H         1 UNK         0.0600 
    234 H234       -5.8252  -14.9280  -55.7576 H         1 UNK         0.0600 
    235 H235       -5.5912  -18.6936  -56.4112 H         1 UNK         0.3000 
    236 H236       -3.5839  -19.6496  -58.3521 H         1 UNK         0.0600 
    237 H237       -5.9967  -19.6616  -58.9520 H         1 UNK         0.0600 
    238 H238       -5.3594  -21.2972  -58.9125 H         1 UNK         0.0600 
    239 H239       -6.3532  -20.7116  -57.5815 H         1 UNK         0.0600 
    240 H240       -2.3188  -19.6173  -56.0507 H         1 UNK         0.3000 
    241 H241       -2.6011  -22.0648  -54.4958 H         1 UNK         0.0600 
    242 H242       -0.9996  -21.6026  -57.4911 H         1 UNK         0.3800 
    243 H243        0.1537  -22.8965  -57.2963 H         1 UNK         0.3800 
    244 H244       -0.6896  -21.1354  -53.1731 H         1 UNK         0.0800 
    245 H245       -0.5475  -19.8097  -54.2959 H         1 UNK         0.0800 
    246 H246       -2.0277  -21.1789  -51.2022 H         1 UNK         0.0800 
    247 H247       -3.0782  -19.9120  -50.6272 H         1 UNK         0.0800 
@<TRIPOS>BOND
     1    1    2 1    
     2    1  127 1    
     3    1  128 1    
     4    1  129 1    
     5    2    3 2    
     6    2    4 am   BACKBONE|DICT|INTERRES
     7    4    5 1    
     8    4  130 1    
     9    5    6 1    
    10    5   65 1    
    11    5  131 1    
    12    6    7 1    
    13    6  132 1    
    14    6  133 1    
    15    7    8 1    
    16    8    9 1    
    17    8  134 1    
    18    8  135 1    
    19    9   10 ar   
    20    9   14 ar   
    21   10   11 ar   
    22   10  136 1    
    23   11   12 ar   
    24   11  126 1    
    25   12   13 ar   
    26   12  137 1    
    27   13   14 ar   
    28   13   15 1    
    29   14  138 1    
    30   15   16 1    
    31   15  139 1    
    32   15  140 1    
    33   16   17 1    
    34   17   18 1    
    35   17  141 1    
    36   17  142 1    
    37   18   19 1    
    38   18   67 1    
    39   18  143 1    
    40   19   20 am   BACKBONE|DICT|INTERRES
    41   19  144 1    
    42   20   21 2    
    43   20   22 1    
    44   22   23 1    
    45   22   24 1    
    46   22  145 1    
    47   23  146 1    
    48   23  147 1    
    49   23  148 1    
    50   24   25 am   BACKBONE|DICT|INTERRES
    51   24  149 1    
    52   25   26 2    
    53   25   27 1    
    54   27   28 1    
    55   27   29 1    
    56   27  150 1    
    57   28  151 1    
    58   28  152 1    
    59   28  153 1    
    60   29   30 am   BACKBONE|DICT|INTERRES
    61   29  154 1    
    62   30   31 2    
    63   30   32 1    
    64   32   33 1    
    65   32   34 1    
    66   32  155 1    
    67   33  156 1    
    68   33  157 1    
    69   33  158 1    
    70   34   35 am   BACKBONE|DICT|INTERRES
    71   34  159 1    
    72   35   36 2    
    73   35   37 1    
    74   37   38 1    
    75   37   39 1    
    76   37  160 1    
    77   38  161 1    
    78   38  162 1    
    79   38  163 1    
    80   39   40 am   BACKBONE|DICT|INTERRES
    81   39  164 1    
    82   40   41 2    
    83   40   42 1    
    84   42   43 1    
    85   42   44 1    
    86   42  165 1    
    87   43  166 1    
    88   43  167 1    
    89   43  168 1    
    90   44   45 am   BACKBONE|DICT|INTERRES
    91   44  169 1    
    92   45   46 2    
    93   45   47 1    
    94   47   48 1    
    95   47   49 1    
    96   47  170 1    
    97   48  171 1    
    98   48  172 1    
    99   48  173 1    
   100   49   50 am   BACKBONE|DICT|INTERRES
   101   49  174 1    
   102   50   51 2    
   103   50   52 1    
   104   52   53 1    
   105   52   54 1    
   106   52  175 1    
   107   53  176 1    
   108   53  177 1    
   109   53  178 1    
   110   54   55 am   BACKBONE|DICT|INTERRES
   111   54  179 1    
   112   55   56 2    
   113   55   57 1    
   114   57   58 1    
   115   57   59 1    
   116   57  180 1    
   117   58  181 1    
   118   58  182 1    
   119   58  183 1    
   120   59   60 am   BACKBONE|DICT|INTERRES
   121   59  184 1    
   122   60   61 2    
   123   60   62 1    
   124   62   63 1    
   125   62   64 1    
   126   62  185 1    
   127   63  186 1    
   128   63  187 1    
   129   63  188 1    
   130   64   65 am   BACKBONE|DICT|INTERRES
   131   64  189 1    
   132   65   66 2    
   133   67   68 2    
   134   67   69 am   BACKBONE|DICT|INTERRES
   135   69   70 1    
   136   69  190 1    
   137   70   71 1    
   138   70   72 1    
   139   70  191 1    
   140   71  192 1    
   141   71  193 1    
   142   71  194 1    
   143   72   73 2    
   144   72   74 am   BACKBONE|DICT|INTERRES
   145   74   75 1    
   146   74  195 1    
   147   75   76 1    
   148   75   77 1    
   149   75  196 1    
   150   76  197 1    
   151   76  198 1    
   152   76  199 1    
   153   77   78 2    
   154   77   79 am   BACKBONE|DICT|INTERRES
   155   79   80 1    
   156   79  200 1    
   157   80   81 1    
   158   80   82 1    
   159   80  201 1    
   160   81  202 1    
   161   81  203 1    
   162   81  204 1    
   163   82   83 2    
   164   82   84 am   BACKBONE|DICT|INTERRES
   165   84   85 1    
   166   84  205 1    
   167   85   86 1    
   168   85   87 1    
   169   85  206 1    
   170   86  207 1    
   171   86  208 1    
   172   86  209 1    
   173   87   88 2    
   174   87   89 am   BACKBONE|DICT|INTERRES
   175   89   90 1    
   176   89  210 1    
   177   90   91 1    
   178   90   92 1    
   179   90  211 1    
   180   91  212 1    
   181   91  213 1    
   182   91  214 1    
   183   92   93 2    
   184   92   94 am   BACKBONE|DICT|INTERRES
   185   94   95 1    
   186   94  215 1    
   187   95   96 1    
   188   95   97 1    
   189   95  216 1    
   190   96  217 1    
   191   96  218 1    
   192   96  219 1    
   193   97   98 2    
   194   97   99 am   BACKBONE|DICT|INTERRES
   195   99  100 1    
   196   99  220 1    
   197  100  101 1    
   198  100  102 1    
   199  100  221 1    
   200  101  222 1    
   201  101  223 1    
   202  101  224 1    
   203  102  103 2    
   204  102  104 am   BACKBONE|DICT|INTERRES
   205  104  105 1    
   206  104  225 1    
   207  105  106 1    
   208  105  107 1    
   209  105  226 1    
   210  106  227 1    
   211  106  228 1    
   212  106  229 1    
   213  107  108 2    
   214  107  109 am   BACKBONE|DICT|INTERRES
   215  109  110 1    
   216  109  230 1    
   217  110  111 1    
   218  110  112 1    
   219  110  231 1    
   220  111  232 1    
   221  111  233 1    
   222  111  234 1    
   223  112  113 2    
   224  112  114 am   BACKBONE|DICT|INTERRES
   225  114  115 1    
   226  114  235 1    
   227  115  116 1    
   228  115  117 1    
   229  115  236 1    
   230  116  237 1    
   231  116  238 1    
   232  116  239 1    
   233  117  118 2    
   234  117  119 am   BACKBONE|DICT|INTERRES
   235  119  120 1    
   236  119  240 1    
   237  120  121 1    
   238  120  124 1    
   239  120  241 1    
   240  121  122 am   BACKBONE|DICT|INTERRES
   241  121  123 2    
   242  122  242 1    
   243  122  243 1    
   244  124  125 1    
   245  124  244 1    
   246  124  245 1    
   247  125  126 1    
   248  126  246 1    
   249  126  247 1    
@<TRIPOS>SUBSTRUCTURE
     1 UNK         1 GROUP             0       ****    0 ROOT    
