@<TRIPOS>MOLECULE
3R540
247   249    1
SMALL
USER_CHARGES


@<TRIPOS>ATOM
      1 CA         -6.0011  -16.9956  -45.1122 C.3       0 UNK        -0.1800 
      2 C          -5.6531  -15.6351  -45.7009 C.2       0 UNK         0.5000 
      3 O          -6.3714  -14.6634  -45.4642 O.2       0 UNK        -0.5000 
      4 N          -4.5660  -15.5670  -46.4780 N.am      1 UNK        -0.5000 
      5 CA         -4.0456  -14.3384  -47.0842 C.3       1 UNK         0.1400 
      6 C6         -3.2253  -14.6533  -48.3610 C.3       23 UNK        -0.0398 
      7 S7         -1.6826  -15.5931  -48.0651 S.3       23 UNK        -0.2404 
      8 C8         -1.8250  -16.9233  -49.2891 C.3       23 UNK        -0.0205 
      9 C9         -0.4618  -17.4189  -49.7418 C.ar      23 UNK        -0.0193 
     10 C10         0.0808  -16.9586  -50.9436 C.ar      23 UNK        -0.1150 
     11 C11         1.3048  -17.4476  -51.4057 C.ar      23 UNK        -0.0193 
     12 C12         1.9958  -18.3985  -50.6487 C.ar      23 UNK        -0.1150 
     13 C13         1.4622  -18.8685  -49.4443 C.ar      23 UNK        -0.0193 
     14 C14         0.2368  -18.3689  -48.9927 C.ar      23 UNK        -0.1150 
     15 C15         2.2066  -19.9143  -48.6271 C.3       23 UNK        -0.0205 
     16 S16         2.3265  -21.5293  -49.4686 S.3       23 UNK        -0.2404 
     17 C17         0.5691  -21.9917  -49.6969 C.3       23 UNK        -0.0398 
     18 CA         -0.1563  -22.6571  -48.4825 C.3       11 UNK         0.1400 
     19 N           0.6815  -22.7853  -47.2866 N.am      11 UNK        -0.5000 
     20 C           0.3515  -23.3791  -46.1332 C.2       10 UNK         0.5000 
     21 O          -0.7311  -23.9316  -45.9314 O.2       10 UNK        -0.5000 
     22 CA          1.3790  -23.2903  -44.9864 C.3       10 UNK         0.1400 
     23 CB          2.7902  -22.8450  -45.4339 C.3       10 UNK        -0.1800 
     24 N           0.8960  -22.4200  -43.9120 N.am      10 UNK        -0.5000 
     25 C           0.4891  -21.1472  -44.0223 C.2       9 UNK         0.5000 
     26 O           0.4797  -20.5112  -45.0783 O.2       9 UNK        -0.5000 
     27 CA          0.0201  -20.4567  -42.7313 C.3       9 UNK         0.1400 
     28 CB         -0.8559  -21.3525  -41.8301 C.3       9 UNK        -0.1800 
     29 N           1.1503  -19.8733  -42.0121 N.am      9 UNK        -0.5000 
     30 C           2.1788  -20.4941  -41.4181 C.2       8 UNK         0.5000 
     31 O           2.2531  -21.7115  -41.2402 O.2       8 UNK        -0.5000 
     32 CA          3.3359  -19.5621  -41.0059 C.3       8 UNK         0.1400 
     33 CB          4.5209  -20.2959  -40.3438 C.3       8 UNK        -0.1800 
     34 N           3.7716  -18.7501  -42.1485 N.am      8 UNK        -0.5000 
     35 C           4.3071  -19.1853  -43.3004 C.2       7 UNK         0.5000 
     36 O           4.6512  -20.3491  -43.5069 O.2       7 UNK        -0.5000 
     37 CA          4.4615  -18.1546  -44.4364 C.3       7 UNK         0.1400 
     38 CB          3.3721  -18.3770  -45.4971 C.3       7 UNK        -0.1800 
     39 N           4.4037  -16.7616  -43.9898 N.am      7 UNK        -0.5000 
     40 C           5.3715  -16.1318  -43.3094 C.2       6 UNK         0.5000 
     41 O           6.4306  -16.6625  -42.9737 O.2       6 UNK        -0.5000 
     42 CA          5.1002  -14.6668  -42.9284 C.3       6 UNK         0.1400 
     43 CB          5.4318  -13.7285  -44.0995 C.3       6 UNK        -0.1800 
     44 N           3.7074  -14.4685  -42.5275 N.am      6 UNK        -0.5000 
     45 C           3.2355  -14.6896  -41.2929 C.2       5 UNK         0.5000 
     46 O           3.9377  -15.0447  -40.3460 O.2       5 UNK        -0.5000 
     47 CA          1.7212  -14.4955  -41.0793 C.3       5 UNK         0.1400 
     48 CB          1.4150  -13.0444  -40.6794 C.3       5 UNK        -0.1800 
     49 N           0.9261  -14.8426  -42.2572 N.am      5 UNK        -0.5000 
     50 C           0.7869  -16.0840  -42.7421 C.2       4 UNK         0.5000 
     51 O           1.2815  -17.0809  -42.2179 O.2       4 UNK        -0.5000 
     52 CA         -0.0032  -16.2352  -44.0550 C.3       4 UNK         0.1400 
     53 CB         -1.4830  -16.4992  -43.7465 C.3       4 UNK        -0.1800 
     54 N           0.1152  -15.0781  -44.9488 N.am      4 UNK        -0.5000 
     55 C           1.2692  -14.6111  -45.4538 C.2       3 UNK         0.5000 
     56 O           2.3660  -15.1030  -45.1865 O.2       3 UNK        -0.5000 
     57 CA          1.2176  -13.3812  -46.3820 C.3       3 UNK         0.1400 
     58 CB          1.6446  -13.7584  -47.8098 C.3       3 UNK        -0.1800 
     59 N          -0.0925  -12.7280  -46.4218 N.am      3 UNK        -0.5000 
     60 C          -0.5773  -11.9273  -45.4612 C.2       2 UNK         0.5000 
     61 O           0.0454  -11.6378  -44.4389 O.2       2 UNK        -0.5000 
     62 CA         -2.0085  -11.3830  -45.6611 C.3       2 UNK         0.1400 
     63 CB         -1.9680   -9.9989  -46.3261 C.3       2 UNK        -0.1800 
     64 N          -2.8710  -12.2706  -46.4506 N.am      2 UNK        -0.5000 
     65 C          -3.2368  -13.5014  -46.0658 C.2       1 UNK         0.5000 
     66 O          -2.9052  -13.9878  -44.9830 O.2       1 UNK        -0.5000 
     67 C          -1.5018  -21.9515  -48.2078 C.2       11 UNK         0.5000 
     68 O          -2.4851  -22.2673  -48.8754 O.2       11 UNK        -0.5000 
     69 N          -1.5452  -21.0303  -47.2308 N.am      12 UNK        -0.5000 
     70 CA         -2.7379  -20.2510  -46.8841 C.3       12 UNK         0.1400 
     71 CB         -2.3715  -19.1683  -45.8617 C.3       12 UNK        -0.1800 
     72 C          -3.9187  -21.0955  -46.3688 C.2       12 UNK         0.5000 
     73 O          -5.0627  -20.6526  -46.4748 O.2       12 UNK        -0.5000 
     74 N          -3.6358  -22.3043  -45.8626 N.am      13 UNK        -0.5000 
     75 CA         -4.6426  -23.2828  -45.4504 C.3       13 UNK         0.1400 
     76 CB         -3.9499  -24.4247  -44.6925 C.3       13 UNK        -0.1800 
     77 C          -5.4686  -23.8376  -46.6295 C.2       13 UNK         0.5000 
     78 O          -6.6079  -24.2575  -46.4241 O.2       13 UNK        -0.5000 
     79 N          -4.9083  -23.8034  -47.8472 N.am      14 UNK        -0.5000 
     80 CA         -5.5397  -24.2567  -49.0858 C.3       14 UNK         0.1400 
     81 CB         -4.4353  -24.7290  -50.0434 C.3       14 UNK        -0.1800 
     82 C          -6.4232  -23.1482  -49.6947 C.2       14 UNK         0.5000 
     83 O          -6.2051  -22.7368  -50.8380 O.2       14 UNK        -0.5000 
     84 N          -7.3894  -22.6726  -48.8950 N.am      15 UNK        -0.5000 
     85 CA         -8.3796  -21.6343  -49.2000 C.3       15 UNK         0.1400 
     86 CB         -9.3688  -22.1394  -50.2721 C.3       15 UNK        -0.1800 
     87 C          -7.7244  -20.2902  -49.5756 C.2       15 UNK         0.5000 
     88 O          -7.9558  -19.7760  -50.6696 O.2       15 UNK        -0.5000 
     89 N          -6.8631  -19.7746  -48.6834 N.am      16 UNK        -0.5000 
     90 CA         -6.0293  -18.5771  -48.8756 C.3       16 UNK         0.1400 
     91 CB         -6.8898  -17.2996  -48.9602 C.3       16 UNK        -0.1800 
     92 C          -5.0482  -18.7321  -50.0574 C.2       16 UNK         0.5000 
     93 O          -4.7531  -17.7637  -50.7570 O.2       16 UNK        -0.5000 
     94 N          -4.5807  -19.9738  -50.2474 N.am      17 UNK        -0.5000 
     95 CA         -3.7109  -20.4681  -51.3142 C.3       17 UNK         0.1400 
     96 CB         -2.3348  -19.7813  -51.2888 C.3       17 UNK        -0.1800 
     97 C          -4.3418  -20.4589  -52.7169 C.2       17 UNK         0.5000 
     98 O          -3.6120  -20.6344  -53.6927 O.2       17 UNK        -0.5000 
     99 N          -5.6724  -20.3247  -52.8150 N.am      18 UNK        -0.5000 
    100 CA        -6.4076  -20.4095  -54.0781 C.3       18 UNK         0.1400 
    101 CB        -7.8671  -19.9860  -53.8616 C.3       18 UNK        -0.1800 
    102 C         -6.3420  -21.8123  -54.7092 C.2       18 UNK         0.5000 
    103 O         -6.2880  -21.9184  -55.9350 O.2       18 UNK        -0.5000 
    104 N         -6.3238  -22.8563  -53.8677 N.am      19 UNK        -0.5000 
    105 CA        -6.1854  -24.2451  -54.3050 C.3       19 UNK         0.1400 
    106 CB        -6.9462  -25.1609  -53.3343 C.3       19 UNK        -0.1800 
    107 C         -4.7121  -24.6751  -54.4468 C.2       19 UNK         0.5000 
    108 O         -4.4222  -25.5493  -55.2644 O.2       19 UNK        -0.5000 
    109 N         -3.8080  -24.0665  -53.6636 N.am      20 UNK        -0.5000 
    110 CA        -2.3718  -24.3660  -53.6915 C.3       20 UNK         0.1400 
    111 CB        -1.7294  -24.0146  -52.3389 C.3       20 UNK        -0.1800 
    112 C         -1.6148  -23.6496  -54.8219 C.2       20 UNK         0.5000 
    113 O         -0.5815  -24.1578  -55.2581 O.2       20 UNK        -0.5000 
    114 N         -2.0915  -22.4629  -55.2291 N.am      21 UNK        -0.5000 
    115 CA        -1.4556  -21.5363  -56.1759 C.3       21 UNK         0.1400 
    116 CB        -1.4913  -22.1110  -57.6071 C.3       21 UNK        -0.1800 
    117 C         -0.0387  -21.1177  -55.7200 C.2       21 UNK         0.5000 
    118 O          0.8900  -21.0759  -56.5286 O.2       21 UNK        -0.5000 
    119 N          0.0935  -20.8681  -54.4093 N.am      22 UNK        -0.5000 
    120 CA         1.3488  -20.6216  -53.6727 C.3       22 UNK         0.1400 
    121 C          2.2821  -21.8668  -53.5388 C.2       22 UNK         0.5000 
    122 N          1.8734  -23.0695  -53.9273 N.am      22 UNK        -0.7600 
    123 O          3.4001  -21.7497  -53.0459 O.2       22 UNK        -0.5000 
    124 C124        2.1334  -19.3694  -54.1614 C.3       23 UNK        -0.0398 
    125 S125        1.1516  -17.8296  -54.1458 S.3       23 UNK        -0.2404 
    126 C126        1.8672  -16.9419  -52.7245 C.3       23 UNK        -0.0205 
    127 H127       -5.4531  -17.8021  -45.5977 H         1 UNK         0.0600 
    128 H128       -5.7683  -17.0143  -44.0476 H         1 UNK         0.0600 
    129 H129       -7.0655  -17.1970  -45.2338 H         1 UNK         0.0600 
    130 H130       -3.9773  -16.3780  -46.5872 H         1 UNK         0.3000 
    131 H131       -4.8968  -13.7262  -47.3899 H         1 UNK         0.0600 
    132 H132       -2.9616  -13.7323  -48.8827 H         1 UNK         0.0800 
    133 H133       -3.8607  -15.2013  -49.0582 H         1 UNK         0.0800 
    134 H134       -2.3847  -16.5723  -50.1571 H         1 UNK         0.0800 
    135 H135       -2.4013  -17.7428  -48.8622 H         1 UNK         0.0800 
    136 H136       -0.4591  -16.2301  -51.5320 H         1 UNK         0.1150 
    137 H137        2.9421  -18.7850  -51.0004 H         1 UNK         0.1150 
    138 H138       -0.1802  -18.7265  -48.0637 H         1 UNK         0.1150 
    139 H139        3.2151  -19.5503  -48.4270 H         1 UNK         0.0800 
    140 H140        1.7328  -20.0502  -47.6537 H         1 UNK         0.0800 
    141 H141        0.0434  -21.1130  -50.0709 H         1 UNK         0.0800 
    142 H142        0.5434  -22.6888  -50.5354 H         1 UNK         0.0800 
    143 H143       -0.4109  -23.6787  -48.7730 H         1 UNK         0.0600 
    144 H144        1.5904  -22.3502  -47.3563 H         1 UNK         0.3000 
    145 H145        1.4626  -24.2941  -44.5677 H         1 UNK         0.0600 
    146 H146        3.4888  -22.8815  -44.5977 H         1 UNK         0.0600 
    147 H147        3.1851  -23.5016  -46.2102 H         1 UNK         0.0600 
    148 H148        2.8024  -21.8249  -45.8189 H         1 UNK         0.0600 
    149 H149        0.8954  -22.8274  -42.9869 H         1 UNK         0.3000 
    150 H150       -0.5980  -19.6136  -43.0396 H         1 UNK         0.0600 
    151 H151       -1.7078  -21.7448  -42.3873 H         1 UNK         0.0600 
    152 H152       -1.2540  -20.7846  -40.9893 H         1 UNK         0.0600 
    153 H153       -0.3131  -22.2051  -41.4229 H         1 UNK         0.0600 
    154 H154        1.2234  -18.8602  -42.0990 H         1 UNK         0.3000 
    155 H155        2.9288  -18.8661  -40.2708 H         1 UNK         0.0600 
    156 H156        4.2028  -20.7935  -39.4271 H         1 UNK         0.0600 
    157 H157        5.3154  -19.5991  -40.0773 H         1 UNK         0.0600 
    158 H158        4.9482  -21.0592  -40.9943 H         1 UNK         0.0600 
    159 H159        3.4785  -17.7824  -42.1217 H         1 UNK         0.3000 
    160 H160        5.4335  -18.3236  -44.9042 H         1 UNK         0.0600 
    161 H161        2.3739  -18.2437  -45.0807 H         1 UNK         0.0600 
    162 H162        3.4233  -19.3896  -45.8972 H         1 UNK         0.0600 
    163 H163        3.4822  -17.6876  -46.3345 H         1 UNK         0.0600 
    164 H164        3.5924  -16.2251  -44.2857 H         1 UNK         0.3000 
    165 H165        5.7566  -14.4075  -42.0948 H         1 UNK         0.0600 
    166 H166        6.4746  -13.8360  -44.4005 H         1 UNK         0.0600 
    167 H167        4.8156  -13.9361  -44.9750 H         1 UNK         0.0600 
    168 H168        5.2795  -12.6852  -43.8229 H         1 UNK         0.0600 
    169 H169        3.0547  -14.2421  -43.2658 H         1 UNK         0.3000 
    170 H170        1.4159  -15.1487  -40.2590 H         1 UNK         0.0600 
    171 H171        1.9809  -12.7552  -39.7928 H         1 UNK         0.0600 
    172 H172        1.6709  -12.3446  -41.4762 H         1 UNK         0.0600 
    173 H173        0.3581  -12.9146  -40.4459 H         1 UNK         0.0600 
    174 H174        0.4888  -14.0802  -42.7552 H         1 UNK         0.3000 
    175 H175        0.3913  -17.1020  -44.5875 H         1 UNK         0.0600 
    176 H176       -1.9184  -15.6950  -43.1523 H         1 UNK         0.0600 
    177 H177       -2.0675  -16.5879  -44.6612 H         1 UNK         0.0600 
    178 H178       -1.6097  -17.4244  -43.1843 H         1 UNK         0.0600 
    179 H179       -0.7495  -14.6130  -45.1947 H         1 UNK         0.3000 
    180 H180        1.9461  -12.6640  -45.9980 H         1 UNK         0.0600 
    181 H181        0.9869  -14.5073  -48.2497 H         1 UNK         0.0600 
    182 H182        1.6483  -12.8872  -48.4649 H         1 UNK         0.0600 
    183 H183        2.6539  -14.1721  -47.8171 H         1 UNK         0.0600 
    184 H184       -0.6743  -12.9333  -47.2206 H         1 UNK         0.3000 
    185 H185       -2.4569  -11.2727  -44.6714 H         1 UNK         0.0600 
    186 H186       -2.9656   -9.5649  -46.3962 H         1 UNK         0.0600 
    187 H187       -1.3541   -9.3061  -45.7489 H         1 UNK         0.0600 
    188 H188       -1.5500  -10.0474  -47.3324 H         1 UNK         0.0600 
    189 H189       -3.1759  -11.9176  -47.3463 H         1 UNK         0.3000 
    190 H190       -0.7136  -20.8603  -46.6725 H         1 UNK         0.3000 
    191 H191       -3.0730  -19.7551  -47.7954 H         1 UNK         0.0600 
    192 H192       -3.2146  -18.5025  -45.6833 H         1 UNK         0.0600 
    193 H193       -1.5399  -18.5530  -46.2035 H         1 UNK         0.0600 
    194 H194       -2.0967  -19.6037  -44.9019 H         1 UNK         0.0600 
    195 H195       -2.6710  -22.6098  -45.8382 H         1 UNK         0.3000 
    196 H196       -5.3352  -22.7883  -44.7662 H         1 UNK         0.0600 
    197 H197       -4.6788  -25.1469  -44.3226 H         1 UNK         0.0600 
    198 H198       -3.3971  -24.0496  -43.8309 H         1 UNK         0.0600 
    199 H199       -3.2491  -24.9635  -45.3316 H         1 UNK         0.0600 
    200 H200       -3.9928  -23.3804  -47.9522 H         1 UNK         0.3000 
    201 H201       -6.1830  -25.1127  -48.8721 H         1 UNK         0.0600 
    202 H202       -3.7690  -25.4441  -49.5610 H         1 UNK         0.0600 
    203 H203       -3.8340  -23.8903  -50.3885 H         1 UNK         0.0600 
    204 H204       -4.8503  -25.2201  -50.9217 H         1 UNK         0.0600 
    205 H205       -7.4489  -23.0773  -47.9670 H         1 UNK         0.3000 
    206 H206       -8.9451  -21.4588  -48.2838 H         1 UNK         0.0600 
    207 H207       -9.8519  -23.0642  -49.9570 H         1 UNK         0.0600 
    208 H208      -10.1565  -21.4070  -50.4524 H         1 UNK         0.0600 
    209 H209       -8.8752  -22.3290  -51.2259 H         1 UNK         0.0600 
    210 H210       -6.6843  -20.2828  -47.8238 H         1 UNK         0.3000 
    211 H211       -5.4083  -18.4855  -47.9848 H         1 UNK         0.0600 
    212 H212       -7.4931  -17.2736  -49.8679 H         1 UNK         0.0600 
    213 H213       -6.2635  -16.4068  -48.9606 H         1 UNK         0.0600 
    214 H214       -7.5626  -17.2209  -48.1064 H         1 UNK         0.0600 
    215 H215       -4.9298  -20.6926  -49.6299 H         1 UNK         0.3000 
    216 H216       -3.5545  -21.5211  -51.0867 H         1 UNK         0.0600 
    217 H217       -2.3920  -18.7484  -51.6322 H         1 UNK         0.0600 
    218 H218       -1.6215  -20.2981  -51.9301 H         1 UNK         0.0600 
    219 H219       -1.9230  -19.7832  -50.2821 H         1 UNK         0.0600 
    220 H220       -6.2247  -20.2107  -51.9731 H         1 UNK         0.3000 
    221 H221       -5.9509  -19.7070  -54.7785 H         1 UNK         0.0600 
    222 H222       -8.3878  -20.6683  -53.1887 H         1 UNK         0.0600 
    223 H223       -7.9293  -18.9835  -53.4375 H         1 UNK         0.0600 
    224 H224       -8.4143  -19.9756  -54.8050 H         1 UNK         0.0600 
    225 H225       -6.3718  -22.6893  -52.8666 H         1 UNK         0.3000 
    226 H226       -6.6486  -24.3631  -55.2871 H         1 UNK         0.0600 
    227 H227       -8.0141  -24.9430  -53.3501 H         1 UNK         0.0600 
    228 H228       -6.8248  -26.2103  -53.6059 H         1 UNK         0.0600 
    229 H229       -6.6030  -25.0431  -52.3087 H         1 UNK         0.0600 
    230 H230       -4.1252  -23.3556  -53.0232 H         1 UNK         0.3000 
    231 H231       -2.2374  -25.4386  -53.8481 H         1 UNK         0.0600 
    232 H232       -1.9515  -22.9934  -52.0312 H         1 UNK         0.0600 
    233 H233       -2.0669  -24.6938  -51.5583 H         1 UNK         0.0600 
    234 H234       -0.6436  -24.1118  -52.3817 H         1 UNK         0.0600 
    235 H235       -2.9025  -22.0807  -54.7516 H         1 UNK         0.3000 
    236 H236       -2.0592  -20.6275  -56.1694 H         1 UNK         0.0600 
    237 H237       -2.5070  -22.3808  -57.8966 H         1 UNK         0.0600 
    238 H238       -1.1315  -21.3788  -58.3308 H         1 UNK         0.0600 
    239 H239       -0.8677  -23.0002  -57.7037 H         1 UNK         0.0600 
    240 H240       -0.7402  -20.9210  -53.8434 H         1 UNK         0.3000 
    241 H241        1.0341  -20.4156  -52.6491 H         1 UNK         0.0600 
    242 H242        0.9832  -23.2121  -54.3887 H         1 UNK         0.3800 
    243 H243        2.5002  -23.8507  -53.8188 H         1 UNK         0.3800 
    244 H244        2.5037  -19.5234  -55.1753 H         1 UNK         0.0800 
    245 H245        3.0235  -19.2173  -53.5497 H         1 UNK         0.0800 
    246 H246        2.9555  -17.0168  -52.7379 H         1 UNK         0.0800 
    247 H247        1.6402  -15.8799  -52.8286 H         1 UNK         0.0800 
@<TRIPOS>BOND
     1    1    2 1    
     2    1  127 1    
     3    1  128 1    
     4    1  129 1    
     5    2    3 2    
     6    2    4 am   BACKBONE|DICT|INTERRES
     7    4    5 1    
     8    4  130 1    
     9    5    6 1    
    10    5   65 1    
    11    5  131 1    
    12    6    7 1    
    13    6  132 1    
    14    6  133 1    
    15    7    8 1    
    16    8    9 1    
    17    8  134 1    
    18    8  135 1    
    19    9   10 ar   
    20    9   14 ar   
    21   10   11 ar   
    22   10  136 1    
    23   11   12 ar   
    24   11  126 1    
    25   12   13 ar   
    26   12  137 1    
    27   13   14 ar   
    28   13   15 1    
    29   14  138 1    
    30   15   16 1    
    31   15  139 1    
    32   15  140 1    
    33   16   17 1    
    34   17   18 1    
    35   17  141 1    
    36   17  142 1    
    37   18   19 1    
    38   18   67 1    
    39   18  143 1    
    40   19   20 am   BACKBONE|DICT|INTERRES
    41   19  144 1    
    42   20   21 2    
    43   20   22 1    
    44   22   23 1    
    45   22   24 1    
    46   22  145 1    
    47   23  146 1    
    48   23  147 1    
    49   23  148 1    
    50   24   25 am   BACKBONE|DICT|INTERRES
    51   24  149 1    
    52   25   26 2    
    53   25   27 1    
    54   27   28 1    
    55   27   29 1    
    56   27  150 1    
    57   28  151 1    
    58   28  152 1    
    59   28  153 1    
    60   29   30 am   BACKBONE|DICT|INTERRES
    61   29  154 1    
    62   30   31 2    
    63   30   32 1    
    64   32   33 1    
    65   32   34 1    
    66   32  155 1    
    67   33  156 1    
    68   33  157 1    
    69   33  158 1    
    70   34   35 am   BACKBONE|DICT|INTERRES
    71   34  159 1    
    72   35   36 2    
    73   35   37 1    
    74   37   38 1    
    75   37   39 1    
    76   37  160 1    
    77   38  161 1    
    78   38  162 1    
    79   38  163 1    
    80   39   40 am   BACKBONE|DICT|INTERRES
    81   39  164 1    
    82   40   41 2    
    83   40   42 1    
    84   42   43 1    
    85   42   44 1    
    86   42  165 1    
    87   43  166 1    
    88   43  167 1    
    89   43  168 1    
    90   44   45 am   BACKBONE|DICT|INTERRES
    91   44  169 1    
    92   45   46 2    
    93   45   47 1    
    94   47   48 1    
    95   47   49 1    
    96   47  170 1    
    97   48  171 1    
    98   48  172 1    
    99   48  173 1    
   100   49   50 am   BACKBONE|DICT|INTERRES
   101   49  174 1    
   102   50   51 2    
   103   50   52 1    
   104   52   53 1    
   105   52   54 1    
   106   52  175 1    
   107   53  176 1    
   108   53  177 1    
   109   53  178 1    
   110   54   55 am   BACKBONE|DICT|INTERRES
   111   54  179 1    
   112   55   56 2    
   113   55   57 1    
   114   57   58 1    
   115   57   59 1    
   116   57  180 1    
   117   58  181 1    
   118   58  182 1    
   119   58  183 1    
   120   59   60 am   BACKBONE|DICT|INTERRES
   121   59  184 1    
   122   60   61 2    
   123   60   62 1    
   124   62   63 1    
   125   62   64 1    
   126   62  185 1    
   127   63  186 1    
   128   63  187 1    
   129   63  188 1    
   130   64   65 am   BACKBONE|DICT|INTERRES
   131   64  189 1    
   132   65   66 2    
   133   67   68 2    
   134   67   69 am   BACKBONE|DICT|INTERRES
   135   69   70 1    
   136   69  190 1    
   137   70   71 1    
   138   70   72 1    
   139   70  191 1    
   140   71  192 1    
   141   71  193 1    
   142   71  194 1    
   143   72   73 2    
   144   72   74 am   BACKBONE|DICT|INTERRES
   145   74   75 1    
   146   74  195 1    
   147   75   76 1    
   148   75   77 1    
   149   75  196 1    
   150   76  197 1    
   151   76  198 1    
   152   76  199 1    
   153   77   78 2    
   154   77   79 am   BACKBONE|DICT|INTERRES
   155   79   80 1    
   156   79  200 1    
   157   80   81 1    
   158   80   82 1    
   159   80  201 1    
   160   81  202 1    
   161   81  203 1    
   162   81  204 1    
   163   82   83 2    
   164   82   84 am   BACKBONE|DICT|INTERRES
   165   84   85 1    
   166   84  205 1    
   167   85   86 1    
   168   85   87 1    
   169   85  206 1    
   170   86  207 1    
   171   86  208 1    
   172   86  209 1    
   173   87   88 2    
   174   87   89 am   BACKBONE|DICT|INTERRES
   175   89   90 1    
   176   89  210 1    
   177   90   91 1    
   178   90   92 1    
   179   90  211 1    
   180   91  212 1    
   181   91  213 1    
   182   91  214 1    
   183   92   93 2    
   184   92   94 am   BACKBONE|DICT|INTERRES
   185   94   95 1    
   186   94  215 1    
   187   95   96 1    
   188   95   97 1    
   189   95  216 1    
   190   96  217 1    
   191   96  218 1    
   192   96  219 1    
   193   97   98 2    
   194   97   99 am   BACKBONE|DICT|INTERRES
   195   99  100 1    
   196   99  220 1    
   197  100  101 1    
   198  100  102 1    
   199  100  221 1    
   200  101  222 1    
   201  101  223 1    
   202  101  224 1    
   203  102  103 2    
   204  102  104 am   BACKBONE|DICT|INTERRES
   205  104  105 1    
   206  104  225 1    
   207  105  106 1    
   208  105  107 1    
   209  105  226 1    
   210  106  227 1    
   211  106  228 1    
   212  106  229 1    
   213  107  108 2    
   214  107  109 am   BACKBONE|DICT|INTERRES
   215  109  110 1    
   216  109  230 1    
   217  110  111 1    
   218  110  112 1    
   219  110  231 1    
   220  111  232 1    
   221  111  233 1    
   222  111  234 1    
   223  112  113 2    
   224  112  114 am   BACKBONE|DICT|INTERRES
   225  114  115 1    
   226  114  235 1    
   227  115  116 1    
   228  115  117 1    
   229  115  236 1    
   230  116  237 1    
   231  116  238 1    
   232  116  239 1    
   233  117  118 2    
   234  117  119 am   BACKBONE|DICT|INTERRES
   235  119  120 1    
   236  119  240 1    
   237  120  121 1    
   238  120  124 1    
   239  120  241 1    
   240  121  122 am   BACKBONE|DICT|INTERRES
   241  121  123 2    
   242  122  242 1    
   243  122  243 1    
   244  124  125 1    
   245  124  244 1    
   246  124  245 1    
   247  125  126 1    
   248  126  246 1    
   249  126  247 1    
@<TRIPOS>SUBSTRUCTURE
     1 UNK         1 GROUP             0       ****    0 ROOT    
