@<TRIPOS>MOLECULE
3R540
247   249    1
SMALL
USER_CHARGES


@<TRIPOS>ATOM
      1 CA         -1.2557  -15.4246  -43.9984 C.3       0 UNK        -0.1800 
      2 C          -1.5971  -14.4788  -45.1378 C.2       0 UNK         0.5000 
      3 O          -2.6540  -13.8498  -45.1060 O.2       0 UNK        -0.5000 
      4 N          -0.6988  -14.3455  -46.1237 N.am      1 UNK        -0.5000 
      5 CA         -0.8417  -13.4745  -47.3025 C.3       1 UNK         0.1400 
      6 C6          0.3406  -13.6272  -48.2901 C.3       23 UNK        -0.0398 
      7 S7          0.5208  -15.3126  -48.9642 S.3       23 UNK        -0.2404 
      8 C8          2.2829  -15.2735  -49.4180 C.3       23 UNK        -0.0205 
      9 C9          2.6273  -16.3428  -50.4417 C.ar      23 UNK        -0.0193 
     10 C10         2.6008  -16.0391  -51.8061 C.ar      23 UNK        -0.1150 
     11 C11         2.9542  -17.0013  -52.7565 C.ar      23 UNK        -0.0193 
     12 C12         3.3300  -18.2780  -52.3306 C.ar      23 UNK        -0.1150 
     13 C13         3.3262  -18.6052  -50.9722 C.ar      23 UNK        -0.0193 
     14 C14         2.9908  -17.6280  -50.0304 C.ar      23 UNK        -0.1150 
     15 C15         3.6763  -20.0177  -50.5310 C.3       23 UNK        -0.0205 
     16 S16         2.1794  -21.0360  -50.3236 S.3       23 UNK        -0.2404 
     17 C17         1.6208  -20.5013  -48.6720 C.3       23 UNK        -0.0398 
     18 CA          0.6966  -21.5424  -47.9868 C.3       11 UNK         0.1400 
     19 N           0.9640  -21.6358  -46.5491 N.am      11 UNK        -0.5000 
     20 C           0.6032  -22.6612  -45.7664 C.2       10 UNK         0.5000 
     21 O           0.0559  -23.6801  -46.1858 O.2       10 UNK        -0.5000 
     22 CA          0.8814  -22.5180  -44.2569 C.3       10 UNK         0.1400 
     23 CB          2.2704  -23.0737  -43.9096 C.3       10 UNK        -0.1800 
     24 N           0.7810  -21.1356  -43.7850 N.am      10 UNK        -0.5000 
     25 C          -0.3516  -20.4194  -43.7699 C.2       9 UNK         0.5000 
     26 O          -1.4491  -20.8733  -44.0867 O.2       9 UNK        -0.5000 
     27 CA         -0.2345  -18.9314  -43.3996 C.3       9 UNK         0.1400 
     28 CB         -0.2660  -18.7343  -41.8779 C.3       9 UNK        -0.1800 
     29 N           0.9601  -18.2946  -43.9561 N.am      9 UNK        -0.5000 
     30 C           1.2202  -18.1650  -45.2648 C.2       8 UNK         0.5000 
     31 O           0.4654  -18.5548  -46.1537 O.2       8 UNK        -0.5000 
     32 CA          2.5741  -17.5460  -45.6441 C.3       8 UNK         0.1400 
     33 CB          2.5329  -16.0149  -45.5554 C.3       8 UNK        -0.1800 
     34 N           3.6491  -18.0604  -44.8004 N.am      8 UNK        -0.5000 
     35 C           4.1465  -19.3014  -44.8925 C.2       7 UNK         0.5000 
     36 O           3.7866  -20.1215  -45.7371 O.2       7 UNK        -0.5000 
     37 CA          5.1941  -19.7016  -43.8379 C.3       7 UNK         0.1400 
     38 CB          6.5980  -19.2558  -44.2729 C.3       7 UNK        -0.1800 
     39 N           4.8976  -19.1499  -42.5141 N.am      7 UNK        -0.5000 
     40 C           3.8427  -19.5069  -41.7681 C.2       6 UNK         0.5000 
     41 O           3.0231  -20.3590  -42.1084 O.2       6 UNK        -0.5000 
     42 CA          3.6468  -18.7556  -40.4389 C.3       6 UNK         0.1400 
     43 CB          4.4612  -19.4209  -39.3194 C.3       6 UNK        -0.1800 
     44 N           3.9896  -17.3318  -40.5100 N.am      6 UNK        -0.5000 
     45 C           3.3799  -16.4340  -41.2961 C.2       5 UNK         0.5000 
     46 O           2.4971  -16.7278  -42.1028 O.2       5 UNK        -0.5000 
     47 CA          3.8625  -14.9790  -41.1638 C.3       5 UNK         0.1400 
     48 CB          4.6057  -14.5048  -42.4282 C.3       5 UNK        -0.1800 
     49 N           2.7824  -14.0675  -40.7683 N.am      5 UNK        -0.5000 
     50 C           1.7566  -13.5986  -41.4937 C.2       4 UNK         0.5000 
     51 O           1.5741  -13.8158  -42.6955 O.2       4 UNK        -0.5000 
     52 CA          0.7758  -12.6895  -40.7343 C.3       4 UNK         0.1400 
     53 CB          1.4427  -11.3548  -40.3445 C.3       4 UNK        -0.1800 
     54 N          -0.3750  -12.4323  -41.5898 N.am      4 UNK        -0.5000 
     55 C          -1.5659  -11.9523  -41.2152 C.2       3 UNK         0.5000 
     56 O          -1.8667  -11.7172  -40.0434 O.2       3 UNK        -0.5000 
     57 CA         -2.5838  -11.6932  -42.3498 C.3       3 UNK         0.1400 
     58 CB         -3.6676  -10.6634  -41.9679 C.3       3 UNK        -0.1800 
     59 N          -1.9416  -11.3390  -43.6238 N.am      3 UNK        -0.5000 
     60 C          -1.1650  -10.2712  -43.8776 C.2       2 UNK         0.5000 
     61 O          -0.9673   -9.3649  -43.0672 O.2       2 UNK        -0.5000 
     62 CA         -0.4579  -10.2275  -45.2489 C.3       2 UNK         0.1400 
     63 CB          0.9639   -9.6473  -45.1371 C.3       2 UNK        -0.1800 
     64 N          -0.3643  -11.5641  -45.8393 N.am      2 UNK        -0.5000 
     65 C          -1.0139  -11.9833  -46.9327 C.2       1 UNK         0.5000 
     66 O          -1.7357  -11.2635  -47.6235 O.2       1 UNK        -0.5000 
     67 C          -0.7939  -21.2422  -48.2575 C.2       11 UNK         0.5000 
     68 O          -1.3943  -21.8519  -49.1419 O.2       11 UNK        -0.5000 
     69 N          -1.3611  -20.3136  -47.4747 N.am      12 UNK        -0.5000 
     70 CA         -2.7493  -19.8567  -47.5558 C.3       12 UNK         0.1400 
     71 CB         -2.8595  -18.5066  -46.8291 C.3       12 UNK        -0.1800 
     72 C          -3.7803  -20.8565  -46.9922 C.2       12 UNK         0.5000 
     73 O          -4.9739  -20.6915  -47.2531 O.2       12 UNK        -0.5000 
     74 N          -3.3219  -21.8578  -46.2291 N.am      13 UNK        -0.5000 
     75 CA         -4.1315  -22.8946  -45.5858 C.3       13 UNK         0.1400 
     76 CB         -3.2035  -23.8558  -44.8277 C.3       13 UNK        -0.1800 
     77 C          -5.0166  -23.6830  -46.5699 C.2       13 UNK         0.5000 
     78 O          -4.6113  -23.9194  -47.7105 O.2       13 UNK        -0.5000 
     79 N          -6.2082  -24.0773  -46.0972 N.am      14 UNK        -0.5000 
     80 CA         -7.2457  -24.8126  -46.8327 C.3       14 UNK         0.1400 
     81 CB         -6.7865  -26.2582  -47.1185 C.3       14 UNK        -0.1800 
     82 C          -7.7179  -24.0681  -48.1001 C.2       14 UNK         0.5000 
     83 O          -7.8728  -24.6837  -49.1558 O.2       14 UNK        -0.5000 
     84 N          -7.9012  -22.7441  -47.9702 N.am      15 UNK        -0.5000 
     85 CA         -8.2498  -21.7936  -49.0337 C.3       15 UNK         0.1400 
     86 CB         -9.6904  -22.0352  -49.5325 C.3       15 UNK        -0.1800 
     87 C          -7.2083  -21.8063  -50.1704 C.2       15 UNK         0.5000 
     88 O          -7.5600  -22.0044  -51.3344 O.2       15 UNK        -0.5000 
     89 N          -5.9340  -21.6482  -49.7858 N.am      16 UNK        -0.5000 
     90 CA         -4.7348  -21.7585  -50.6200 C.3       16 UNK         0.1400 
     91 CB         -4.6357  -20.5658  -51.5937 C.3       16 UNK        -0.1800 
     92 C          -4.6465  -23.1255  -51.3245 C.2       16 UNK         0.5000 
     93 O          -4.5301  -23.1789  -52.5476 O.2       16 UNK        -0.5000 
     94 N          -4.7592  -24.2036  -50.5349 N.am      17 UNK        -0.5000 
     95 CA         -4.7678  -25.6084  -50.9560 C.3       17 UNK         0.1400 
     96 CB         -3.3467  -26.0457  -51.3657 C.3       17 UNK        -0.1800 
     97 C          -5.8327  -25.9042  -52.0359 C.2       17 UNK         0.5000 
     98 O          -5.5182  -26.4853  -53.0758 O.2       17 UNK        -0.5000 
     99 N          -7.0716  -25.4702  -51.7627 N.am      18 UNK        -0.5000 
    100 CA        -8.2478  -25.5241  -52.6341 C.3       18 UNK         0.1400 
    101 CB        -8.6888  -26.9830  -52.8765 C.3       18 UNK        -0.1800 
    102 C         -8.0546  -24.7156  -53.9347 C.2       18 UNK         0.5000 
    103 O         -8.2300  -25.2480  -55.0327 O.2       18 UNK        -0.5000 
    104 N         -7.7049  -23.4319  -53.7701 N.am      19 UNK        -0.5000 
    105 CA        -7.5081  -22.4169  -54.8097 C.3       19 UNK         0.1400 
    106 CB        -8.8368  -22.1056  -55.5302 C.3       19 UNK        -0.1800 
    107 C         -6.3496  -22.7271  -55.7816 C.2       19 UNK         0.5000 
    108 O         -6.4187  -22.3751  -56.9608 O.2       19 UNK        -0.5000 
    109 N         -5.2809  -23.3387  -55.2616 N.am      20 UNK        -0.5000 
    110 CA        -4.0133  -23.5690  -55.9461 C.3       20 UNK         0.1400 
    111 CB        -3.5304  -24.9949  -55.6293 C.3       20 UNK        -0.1800 
    112 C         -3.0251  -22.4848  -55.4822 C.2       20 UNK         0.5000 
    113 O         -2.0499  -22.7819  -54.7876 O.2       20 UNK        -0.5000 
    114 N         -3.3410  -21.2294  -55.8344 N.am      21 UNK        -0.5000 
    115 CA        -2.6429  -20.0102  -55.4222 C.3       21 UNK         0.1400 
    116 CB        -3.2789  -18.8019  -56.1266 C.3       21 UNK        -0.1800 
    117 C         -1.1263  -20.0660  -55.6834 C.2       21 UNK         0.5000 
    118 O         -0.7099  -20.2804  -56.8241 O.2       21 UNK        -0.5000 
    119 N         -0.3502  -19.8994  -54.6067 N.am      22 UNK        -0.5000 
    120 CA         1.1169  -20.0162  -54.5521 C.3       22 UNK         0.1400 
    121 C          1.6720  -21.4630  -54.7405 C.2       22 UNK         0.5000 
    122 N          0.8527  -22.5079  -54.7563 N.am      22 UNK        -0.7600 
    123 O          2.8814  -21.6512  -54.8411 O.2       22 UNK        -0.5000 
    124 C124        1.8588  -18.9819  -55.4489 C.3       23 UNK        -0.0398 
    125 S125        1.4304  -17.2457  -55.0682 S.3       23 UNK        -0.2404 
    126 C126        2.9414  -16.6533  -54.2381 C.3       23 UNK        -0.0205 
    127 H127       -0.2242  -15.7691  -44.0540 H         1 UNK         0.0600 
    128 H128       -1.9187  -16.2879  -44.0251 H         1 UNK         0.0600 
    129 H129       -1.3872  -14.9240  -43.0394 H         1 UNK         0.0600 
    130 H130        0.1407  -14.9039  -46.1013 H         1 UNK         0.3000 
    131 H131       -1.7549  -13.7810  -47.8172 H         1 UNK         0.0600 
    132 H132        0.2173  -12.9534  -49.1406 H         1 UNK         0.0800 
    133 H133        1.2742  -13.3368  -47.8040 H         1 UNK         0.0800 
    134 H134        2.8935  -15.4004  -48.5232 H         1 UNK         0.0800 
    135 H135        2.5344  -14.2914  -49.8220 H         1 UNK         0.0800 
    136 H136        2.3124  -15.0480  -52.1276 H         1 UNK         0.1150 
    137 H137        3.6096  -19.0264  -53.0581 H         1 UNK         0.1150 
    138 H138        3.0038  -17.8699  -48.9785 H         1 UNK         0.1150 
    139 H139        4.3169  -20.4910  -51.2768 H         1 UNK         0.0800 
    140 H140        4.2561  -19.9970  -49.6071 H         1 UNK         0.0800 
    141 H141        1.1506  -19.5187  -48.7473 H         1 UNK         0.0800 
    142 H142        2.5153  -20.3488  -48.0677 H         1 UNK         0.0800 
    143 H143        0.9103  -22.5274  -48.4081 H         1 UNK         0.0600 
    144 H144        1.4175  -20.8403  -46.1207 H         1 UNK         0.3000 
    145 H145        0.1336  -23.1103  -43.7254 H         1 UNK         0.0600 
    146 H146        2.3715  -24.1090  -44.2377 H         1 UNK         0.0600 
    147 H147        3.0644  -22.4977  -44.3862 H         1 UNK         0.0600 
    148 H148        2.4440  -23.0553  -42.8336 H         1 UNK         0.0600 
    149 H149        1.6331  -20.7113  -43.4298 H         1 UNK         0.3000 
    150 H150       -1.1038  -18.4280  -43.8228 H         1 UNK         0.0600 
    151 H151       -1.1830  -19.1422  -41.4513 H         1 UNK         0.0600 
    152 H152       -0.2258  -17.6766  -41.6162 H         1 UNK         0.0600 
    153 H153        0.5718  -19.2329  -41.3917 H         1 UNK         0.0600 
    154 H154        1.6125  -17.8910  -43.2879 H         1 UNK         0.3000 
    155 H155        2.7896  -17.8181  -46.6785 H         1 UNK         0.0600 
    156 H156        1.8038  -15.6090  -46.2533 H         1 UNK         0.0600 
    157 H157        3.4989  -15.5769  -45.8066 H         1 UNK         0.0600 
    158 H158        2.2579  -15.6731  -44.5581 H         1 UNK         0.0600 
    159 H159        3.9555  -17.4683  -44.0428 H         1 UNK         0.3000 
    160 H160        5.1889  -20.7912  -43.7617 H         1 UNK         0.0600 
    161 H161        6.6736  -18.1700  -44.3437 H         1 UNK         0.0600 
    162 H162        6.8520  -19.6672  -45.2507 H         1 UNK         0.0600 
    163 H163        7.3565  -19.6005  -43.5698 H         1 UNK         0.0600 
    164 H164        5.5229  -18.4414  -42.1597 H         1 UNK         0.3000 
    165 H165        2.5904  -18.8266  -40.1742 H         1 UNK         0.0600 
    166 H166        4.2557  -18.9587  -38.3537 H         1 UNK         0.0600 
    167 H167        4.2110  -20.4791  -39.2308 H         1 UNK         0.0600 
    168 H168        5.5339  -19.3516  -39.5043 H         1 UNK         0.0600 
    169 H169        4.7133  -17.0171  -39.8797 H         1 UNK         0.3000 
    170 H170        4.5817  -14.9400  -40.3441 H         1 UNK         0.0600 
    171 H171        5.4807  -15.1271  -42.6188 H         1 UNK         0.0600 
    172 H172        3.9796  -14.5506  -43.3182 H         1 UNK         0.0600 
    173 H173        4.9545  -13.4782  -42.3178 H         1 UNK         0.0600 
    174 H174        2.8020  -13.8108  -39.7912 H         1 UNK         0.3000 
    175 H175        0.4431  -13.2160  -39.8376 H         1 UNK         0.0600 
    176 H176        0.7560  -10.7116  -39.7942 H         1 UNK         0.0600 
    177 H177        2.3113  -11.5139  -39.7050 H         1 UNK         0.0600 
    178 H178        1.7781  -10.8053  -41.2252 H         1 UNK         0.0600 
    179 H179       -0.2067  -12.6549  -42.5619 H         1 UNK         0.3000 
    180 H180       -3.0870  -12.6457  -42.5216 H         1 UNK         0.0600 
    181 H181       -3.2365   -9.6984  -41.7005 H         1 UNK         0.0600 
    182 H182       -4.2492  -11.0080  -41.1122 H         1 UNK         0.0600 
    183 H183       -4.3660  -10.5036  -42.7894 H         1 UNK         0.0600 
    184 H184       -2.0733  -12.0192  -44.3649 H         1 UNK         0.3000 
    185 H185       -1.0466   -9.5648  -45.8861 H         1 UNK         0.0600 
    186 H186        0.9444   -8.6213  -44.7677 H         1 UNK         0.0600 
    187 H187        1.5837  -10.2318  -44.4558 H         1 UNK         0.0600 
    188 H188        1.4587   -9.6293  -46.1084 H         1 UNK         0.0600 
    189 H189        0.2019  -12.2334  -45.3369 H         1 UNK         0.3000 
    190 H190       -0.7680  -19.8178  -46.8138 H         1 UNK         0.3000 
    191 H191       -2.9938  -19.6967  -48.6078 H         1 UNK         0.0600 
    192 H192       -2.1767  -17.7705  -47.2548 H         1 UNK         0.0600 
    193 H193       -3.8678  -18.0983  -46.9084 H         1 UNK         0.0600 
    194 H194       -2.6264  -18.6040  -45.7684 H         1 UNK         0.0600 
    195 H195       -2.3314  -21.8786  -46.0314 H         1 UNK         0.3000 
    196 H196       -4.7772  -22.3926  -44.8628 H         1 UNK         0.0600 
    197 H197       -3.7753  -24.6215  -44.3022 H         1 UNK         0.0600 
    198 H198       -2.6077  -23.3295  -44.0822 H         1 UNK         0.0600 
    199 H199       -2.5187  -24.3665  -45.5058 H         1 UNK         0.0600 
    200 H200       -6.4467  -23.8364  -45.1449 H         1 UNK         0.3000 
    201 H201       -8.1139  -24.8685  -46.1746 H         1 UNK         0.0600 
    202 H202       -6.4983  -26.7678  -46.1991 H         1 UNK         0.0600 
    203 H203       -5.9343  -26.2878  -47.7972 H         1 UNK         0.0600 
    204 H204       -7.5877  -26.8415  -47.5738 H         1 UNK         0.0600 
    205 H205       -7.7116  -22.3333  -47.0668 H         1 UNK         0.3000 
    206 H206       -8.2141  -20.7973  -48.5905 H         1 UNK         0.0600 
    207 H207      -10.4036  -21.9975  -48.7092 H         1 UNK         0.0600 
    208 H208       -9.9854  -21.2714  -50.2529 H         1 UNK         0.0600 
    209 H209       -9.7962  -23.0032  -50.0233 H         1 UNK         0.0600 
    210 H210       -5.7514  -21.4849  -48.7990 H         1 UNK         0.3000 
    211 H211       -3.8823  -21.7077  -49.9444 H         1 UNK         0.0600 
    212 H212       -5.4447  -20.5682  -52.3249 H         1 UNK         0.0600 
    213 H213       -3.6958  -20.5964  -52.1453 H         1 UNK         0.0600 
    214 H214       -4.6681  -19.6170  -51.0586 H         1 UNK         0.0600 
    215 H215       -4.8362  -24.0517  -49.5302 H         1 UNK         0.3000 
    216 H216       -5.0520  -26.1916  -50.0796 H         1 UNK         0.0600 
    217 H217       -3.3195  -27.1058  -51.6199 H         1 UNK         0.0600 
    218 H218       -2.6394  -25.8892  -50.5513 H         1 UNK         0.0600 
    219 H219       -2.9857  -25.4897  -52.2310 H         1 UNK         0.0600 
    220 H220       -7.2330  -25.0299  -50.8584 H         1 UNK         0.3000 
    221 H221       -9.0505  -25.0297  -52.0845 H         1 UNK         0.0600 
    222 H222       -7.9519  -27.5428  -53.4528 H         1 UNK         0.0600 
    223 H223       -8.8469  -27.5076  -51.9342 H         1 UNK         0.0600 
    224 H224       -9.6286  -27.0177  -53.4287 H         1 UNK         0.0600 
    225 H225       -7.5805  -23.0847  -52.8200 H         1 UNK         0.3000 
    226 H226       -7.2094  -21.5118  -54.2787 H         1 UNK         0.0600 
    227 H227       -9.6249  -21.8655  -54.8164 H         1 UNK         0.0600 
    228 H228       -8.7307  -21.2467  -56.1938 H         1 UNK         0.0600 
    229 H229       -9.1762  -22.9461  -56.1360 H         1 UNK         0.0600 
    230 H230       -5.2533  -23.4935  -54.2555 H         1 UNK         0.3000 
    231 H231       -4.1296  -23.4828  -57.0282 H         1 UNK         0.0600 
    232 H232       -3.3929  -25.1432  -54.5580 H         1 UNK         0.0600 
    233 H233       -2.5784  -25.2041  -56.1181 H         1 UNK         0.0600 
    234 H234       -4.2483  -25.7384  -55.9760 H         1 UNK         0.0600 
    235 H235       -4.1579  -21.0972  -56.4133 H         1 UNK         0.3000 
    236 H236       -2.8099  -19.8974  -54.3495 H         1 UNK         0.0600 
    237 H237       -4.3350  -18.7065  -55.8732 H         1 UNK         0.0600 
    238 H238       -2.7884  -17.8743  -55.8283 H         1 UNK         0.0600 
    239 H239       -3.1987  -18.8814  -57.2115 H         1 UNK         0.0600 
    240 H240       -0.7952  -19.7463  -53.7136 H         1 UNK         0.3000 
    241 H241        1.3620  -19.7804  -53.5175 H         1 UNK         0.0600 
    242 H242        1.2417  -23.4305  -54.8643 H         1 UNK         0.3800 
    243 H243       -0.1559  -22.4026  -54.6871 H         1 UNK         0.3800 
    244 H244        2.9390  -19.1017  -55.3613 H         1 UNK         0.0800 
    245 H245        1.6369  -19.1625  -56.5009 H         1 UNK         0.0800 
    246 H246        2.9980  -15.5710  -54.3636 H         1 UNK         0.0800 
    247 H247        3.8297  -17.0540  -54.7284 H         1 UNK         0.0800 
@<TRIPOS>BOND
     1    1    2 1    
     2    1  127 1    
     3    1  128 1    
     4    1  129 1    
     5    2    3 2    
     6    2    4 am   BACKBONE|DICT|INTERRES
     7    4    5 1    
     8    4  130 1    
     9    5    6 1    
    10    5   65 1    
    11    5  131 1    
    12    6    7 1    
    13    6  132 1    
    14    6  133 1    
    15    7    8 1    
    16    8    9 1    
    17    8  134 1    
    18    8  135 1    
    19    9   10 ar   
    20    9   14 ar   
    21   10   11 ar   
    22   10  136 1    
    23   11   12 ar   
    24   11  126 1    
    25   12   13 ar   
    26   12  137 1    
    27   13   14 ar   
    28   13   15 1    
    29   14  138 1    
    30   15   16 1    
    31   15  139 1    
    32   15  140 1    
    33   16   17 1    
    34   17   18 1    
    35   17  141 1    
    36   17  142 1    
    37   18   19 1    
    38   18   67 1    
    39   18  143 1    
    40   19   20 am   BACKBONE|DICT|INTERRES
    41   19  144 1    
    42   20   21 2    
    43   20   22 1    
    44   22   23 1    
    45   22   24 1    
    46   22  145 1    
    47   23  146 1    
    48   23  147 1    
    49   23  148 1    
    50   24   25 am   BACKBONE|DICT|INTERRES
    51   24  149 1    
    52   25   26 2    
    53   25   27 1    
    54   27   28 1    
    55   27   29 1    
    56   27  150 1    
    57   28  151 1    
    58   28  152 1    
    59   28  153 1    
    60   29   30 am   BACKBONE|DICT|INTERRES
    61   29  154 1    
    62   30   31 2    
    63   30   32 1    
    64   32   33 1    
    65   32   34 1    
    66   32  155 1    
    67   33  156 1    
    68   33  157 1    
    69   33  158 1    
    70   34   35 am   BACKBONE|DICT|INTERRES
    71   34  159 1    
    72   35   36 2    
    73   35   37 1    
    74   37   38 1    
    75   37   39 1    
    76   37  160 1    
    77   38  161 1    
    78   38  162 1    
    79   38  163 1    
    80   39   40 am   BACKBONE|DICT|INTERRES
    81   39  164 1    
    82   40   41 2    
    83   40   42 1    
    84   42   43 1    
    85   42   44 1    
    86   42  165 1    
    87   43  166 1    
    88   43  167 1    
    89   43  168 1    
    90   44   45 am   BACKBONE|DICT|INTERRES
    91   44  169 1    
    92   45   46 2    
    93   45   47 1    
    94   47   48 1    
    95   47   49 1    
    96   47  170 1    
    97   48  171 1    
    98   48  172 1    
    99   48  173 1    
   100   49   50 am   BACKBONE|DICT|INTERRES
   101   49  174 1    
   102   50   51 2    
   103   50   52 1    
   104   52   53 1    
   105   52   54 1    
   106   52  175 1    
   107   53  176 1    
   108   53  177 1    
   109   53  178 1    
   110   54   55 am   BACKBONE|DICT|INTERRES
   111   54  179 1    
   112   55   56 2    
   113   55   57 1    
   114   57   58 1    
   115   57   59 1    
   116   57  180 1    
   117   58  181 1    
   118   58  182 1    
   119   58  183 1    
   120   59   60 am   BACKBONE|DICT|INTERRES
   121   59  184 1    
   122   60   61 2    
   123   60   62 1    
   124   62   63 1    
   125   62   64 1    
   126   62  185 1    
   127   63  186 1    
   128   63  187 1    
   129   63  188 1    
   130   64   65 am   BACKBONE|DICT|INTERRES
   131   64  189 1    
   132   65   66 2    
   133   67   68 2    
   134   67   69 am   BACKBONE|DICT|INTERRES
   135   69   70 1    
   136   69  190 1    
   137   70   71 1    
   138   70   72 1    
   139   70  191 1    
   140   71  192 1    
   141   71  193 1    
   142   71  194 1    
   143   72   73 2    
   144   72   74 am   BACKBONE|DICT|INTERRES
   145   74   75 1    
   146   74  195 1    
   147   75   76 1    
   148   75   77 1    
   149   75  196 1    
   150   76  197 1    
   151   76  198 1    
   152   76  199 1    
   153   77   78 2    
   154   77   79 am   BACKBONE|DICT|INTERRES
   155   79   80 1    
   156   79  200 1    
   157   80   81 1    
   158   80   82 1    
   159   80  201 1    
   160   81  202 1    
   161   81  203 1    
   162   81  204 1    
   163   82   83 2    
   164   82   84 am   BACKBONE|DICT|INTERRES
   165   84   85 1    
   166   84  205 1    
   167   85   86 1    
   168   85   87 1    
   169   85  206 1    
   170   86  207 1    
   171   86  208 1    
   172   86  209 1    
   173   87   88 2    
   174   87   89 am   BACKBONE|DICT|INTERRES
   175   89   90 1    
   176   89  210 1    
   177   90   91 1    
   178   90   92 1    
   179   90  211 1    
   180   91  212 1    
   181   91  213 1    
   182   91  214 1    
   183   92   93 2    
   184   92   94 am   BACKBONE|DICT|INTERRES
   185   94   95 1    
   186   94  215 1    
   187   95   96 1    
   188   95   97 1    
   189   95  216 1    
   190   96  217 1    
   191   96  218 1    
   192   96  219 1    
   193   97   98 2    
   194   97   99 am   BACKBONE|DICT|INTERRES
   195   99  100 1    
   196   99  220 1    
   197  100  101 1    
   198  100  102 1    
   199  100  221 1    
   200  101  222 1    
   201  101  223 1    
   202  101  224 1    
   203  102  103 2    
   204  102  104 am   BACKBONE|DICT|INTERRES
   205  104  105 1    
   206  104  225 1    
   207  105  106 1    
   208  105  107 1    
   209  105  226 1    
   210  106  227 1    
   211  106  228 1    
   212  106  229 1    
   213  107  108 2    
   214  107  109 am   BACKBONE|DICT|INTERRES
   215  109  110 1    
   216  109  230 1    
   217  110  111 1    
   218  110  112 1    
   219  110  231 1    
   220  111  232 1    
   221  111  233 1    
   222  111  234 1    
   223  112  113 2    
   224  112  114 am   BACKBONE|DICT|INTERRES
   225  114  115 1    
   226  114  235 1    
   227  115  116 1    
   228  115  117 1    
   229  115  236 1    
   230  116  237 1    
   231  116  238 1    
   232  116  239 1    
   233  117  118 2    
   234  117  119 am   BACKBONE|DICT|INTERRES
   235  119  120 1    
   236  119  240 1    
   237  120  121 1    
   238  120  124 1    
   239  120  241 1    
   240  121  122 am   BACKBONE|DICT|INTERRES
   241  121  123 2    
   242  122  242 1    
   243  122  243 1    
   244  124  125 1    
   245  124  244 1    
   246  124  245 1    
   247  125  126 1    
   248  126  246 1    
   249  126  247 1    
@<TRIPOS>SUBSTRUCTURE
     1 UNK         1 GROUP             0       ****    0 ROOT    
