@<TRIPOS>MOLECULE
3R540
247   249    1
SMALL
USER_CHARGES


@<TRIPOS>ATOM
      1 CA          5.9702  -14.2381  -46.0902 C.3       0 UNK        -0.1800 
      2 C           4.8730  -13.3331  -45.5512 C.2       0 UNK         0.5000 
      3 O           4.9314  -12.9215  -44.3929 O.2       0 UNK        -0.5000 
      4 N           3.8809  -13.0050  -46.3898 N.am      1 UNK        -0.5000 
      5 CA          2.6894  -12.2199  -46.0303 C.3       1 UNK         0.1400 
      6 C6          1.6248  -12.2189  -47.1500 C.3       23 UNK        -0.0398 
      7 S7          0.9924  -13.8968  -47.4817 S.3       23 UNK        -0.2404 
      8 C8          1.6585  -14.2023  -49.1429 C.3       23 UNK        -0.0205 
      9 C9          1.2187  -15.5512  -49.6905 C.ar      23 UNK        -0.0193 
     10 C10        -0.0332  -15.6840  -50.3003 C.ar      23 UNK        -0.1150 
     11 C11        -0.4148  -16.8977  -50.8788 C.ar      23 UNK        -0.0193 
     12 C12         0.4684  -17.9793  -50.8473 C.ar      23 UNK        -0.1150 
     13 C13         1.7106  -17.8696  -50.2182 C.ar      23 UNK        -0.0193 
     14 C14         2.0794  -16.6529  -49.6355 C.ar      23 UNK        -0.1150 
     15 C15         2.6637  -19.0565  -50.2096 C.3       23 UNK        -0.0205 
     16 S16         2.4441  -20.1136  -48.7448 S.3       23 UNK        -0.2404 
     17 C17         0.7554  -20.7563  -49.0021 C.3       23 UNK        -0.0398 
     18 CA          0.4356  -21.9539  -48.0797 C.3       11 UNK         0.1400 
     19 N           0.3992  -21.5823  -46.6610 N.am      11 UNK        -0.5000 
     20 C           0.3245  -22.4576  -45.6485 C.2       10 UNK         0.5000 
     21 O           0.3309  -23.6786  -45.8029 O.2       10 UNK        -0.5000 
     22 CA          0.1561  -21.8778  -44.2315 C.3       10 UNK         0.1400 
     23 CB          1.4963  -21.3830  -43.6678 C.3       10 UNK        -0.1800 
     24 N          -0.8325  -20.8000  -44.1869 N.am      10 UNK        -0.5000 
     25 C          -2.1375  -20.9609  -44.4472 C.2       9 UNK         0.5000 
     26 O          -2.6556  -22.0522  -44.6799 O.2       9 UNK        -0.5000 
     27 CA         -3.0014  -19.6883  -44.5096 C.3       9 UNK         0.1400 
     28 CB         -3.4883  -19.2765  -43.1122 C.3       9 UNK        -0.1800 
     29 N          -2.3000  -18.5716  -45.1431 N.am      9 UNK        -0.5000 
     30 C          -1.9479  -18.5378  -46.4367 C.2       8 UNK         0.5000 
     31 O          -2.2099  -19.4313  -47.2392 O.2       8 UNK        -0.5000 
     32 CA         -1.1235  -17.3238  -46.8954 C.3       8 UNK         0.1400 
     33 CB         -2.0530  -16.1404  -47.2036 C.3       8 UNK        -0.1800 
     34 N          -0.1146  -16.9373  -45.9047 N.am      8 UNK        -0.5000 
     35 C           0.9302  -17.7125  -45.5717 C.2       7 UNK         0.5000 
     36 O           1.1417  -18.8132  -46.0752 O.2       7 UNK        -0.5000 
     37 CA          1.8523  -17.2271  -44.4356 C.3       7 UNK         0.1400 
     38 CB          2.9257  -16.2747  -44.9772 C.3       7 UNK        -0.1800 
     39 N           1.1282  -16.5753  -43.3449 N.am      7 UNK        -0.5000 
     40 C           0.1468  -17.1489  -42.6314 C.2       6 UNK         0.5000 
     41 O          -0.1605  -18.3355  -42.7416 O.2       6 UNK        -0.5000 
     42 CA         -0.6651  -16.2537  -41.6711 C.3       6 UNK         0.1400 
     43 CB         -0.2395  -16.5058  -40.2171 C.3       6 UNK        -0.1800 
     44 N          -0.5592  -14.8202  -41.9517 N.am      6 UNK        -0.5000 
     45 C          -0.8789  -14.2104  -43.1027 C.2       5 UNK         0.5000 
     46 O          -1.4098  -14.7852  -44.0533 O.2       5 UNK        -0.5000 
     47 CA         -0.4806  -12.7258  -43.2380 C.3       5 UNK         0.1400 
     48 CB         -1.7137  -11.8233  -43.0870 C.3       5 UNK        -0.1800 
     49 N           0.5562  -12.2805  -42.2955 N.am      5 UNK        -0.5000 
     50 C           1.8002  -12.7730  -42.2122 C.2       4 UNK         0.5000 
     51 O           2.2085  -13.7187  -42.8879 O.2       4 UNK        -0.5000 
     52 CA          2.7228  -12.1431  -41.1649 C.3       4 UNK         0.1400 
     53 CB          3.0205  -13.1399  -40.0295 C.3       4 UNK        -0.1800 
     54 N           3.9599  -11.7195  -41.8119 N.am      4 UNK        -0.5000 
     55 C           4.7908  -10.7882  -41.3258 C.2       3 UNK         0.5000 
     56 O           4.6161  -10.2074  -40.2535 O.2       3 UNK        -0.5000 
     57 CA          6.0048  -10.4175  -42.1920 C.3       3 UNK         0.1400 
     58 CB          7.0836  -11.5113  -42.1340 C.3       3 UNK        -0.1800 
     59 N           5.6000  -10.1901  -43.5778 N.am      3 UNK        -0.5000 
     60 C           5.1912   -9.0080  -44.0623 C.2       2 UNK         0.5000 
     61 O           5.1842   -7.9669  -43.4041 O.2       2 UNK        -0.5000 
     62 CA          4.7070   -8.9704  -45.5266 C.3       2 UNK         0.1400 
     63 CB          5.8524   -8.5506  -46.4606 C.3       2 UNK        -0.1800 
     64 N           4.1655  -10.2494  -45.9851 N.am      2 UNK        -0.5000 
     65 C           3.0071  -10.7809  -45.5699 C.2       1 UNK         0.5000 
     66 O           2.2168  -10.1966  -44.8283 O.2       1 UNK        -0.5000 
     67 C          -0.8644  -22.6573  -48.5236 C.2       11 UNK         0.5000 
     68 O          -0.7909  -23.6643  -49.2276 O.2       11 UNK        -0.5000 
     69 N          -2.0234  -22.1549  -48.0741 N.am      12 UNK        -0.5000 
     70 CA         -3.3370  -22.7574  -48.3086 C.3       12 UNK         0.1400 
     71 CB         -4.4364  -21.8312  -47.7718 C.3       12 UNK        -0.1800 
     72 C          -3.4653  -24.1591  -47.6867 C.2       12 UNK         0.5000 
     73 O          -3.9800  -25.0658  -48.3397 O.2       12 UNK        -0.5000 
     74 N          -2.9630  -24.3248  -46.4551 N.am      13 UNK        -0.5000 
     75 CA         -2.9040  -25.6044  -45.7480 C.3       13 UNK         0.1400 
     76 CB         -2.5019  -25.3683  -44.2845 C.3       13 UNK        -0.1800 
     77 C          -1.9570  -26.6150  -46.4208 C.2       13 UNK         0.5000 
     78 O          -2.2876  -27.7993  -46.4819 O.2       13 UNK        -0.5000 
     79 N          -0.8164  -26.1313  -46.9341 N.am      14 UNK        -0.5000 
     80 CA          0.1522  -26.9209  -47.6965 C.3       14 UNK         0.1400 
     81 CB          1.4521  -26.1209  -47.8708 C.3       14 UNK        -0.1800 
     82 C          -0.4000  -27.3800  -49.0593 C.2       14 UNK         0.5000 
     83 O          -0.1771  -28.5284  -49.4452 O.2       14 UNK        -0.5000 
     84 N          -1.1281  -26.4901  -49.7498 N.am      15 UNK        -0.5000 
     85 CA         -1.8500  -26.7900  -50.9888 C.3       15 UNK         0.1400 
     86 CB         -2.3333  -25.4792  -51.6307 C.3       15 UNK        -0.1800 
     87 C          -3.0375  -27.7450  -50.7636 C.2       15 UNK         0.5000 
     88 O          -3.3086  -28.5887  -51.6186 O.2       15 UNK        -0.5000 
     89 N          -3.7121  -27.5839  -49.6155 N.am      16 UNK        -0.5000 
     90 CA         -4.8902  -28.3179  -49.1440 C.3       16 UNK         0.1400 
     91 CB         -4.5575  -29.8064  -48.9130 C.3       16 UNK        -0.1800 
     92 C          -6.1331  -28.1044  -50.0343 C.2       16 UNK         0.5000 
     93 O          -7.0090  -28.9697  -50.0907 O.2       16 UNK        -0.5000 
     94 N          -6.1907  -26.9514  -50.7097 N.am      17 UNK        -0.5000 
     95 CA         -7.2222  -26.5509  -51.6573 C.3       17 UNK         0.1400 
     96 CB         -7.0908  -27.3678  -52.9590 C.3       17 UNK        -0.1800 
     97 C          -7.0620  -25.0537  -51.9508 C.2       17 UNK         0.5000 
     98 O          -6.0087  -24.4742  -51.6647 O.2       17 UNK        -0.5000 
     99 N          -8.0845  -24.4641  -52.5819 N.am      18 UNK        -0.5000 
    100 CA        -8.1158  -23.0768  -53.0560 C.3       18 UNK         0.1400 
    101 CB        -9.5823  -22.6272  -53.1824 C.3       18 UNK        -0.1800 
    102 C         -7.3209  -22.8750  -54.3682 C.2       18 UNK         0.5000 
    103 O         -7.7871  -22.1834  -55.2765 O.2       18 UNK        -0.5000 
    104 N         -6.1314  -23.4863  -54.4508 N.am      19 UNK        -0.5000 
    105 CA        -5.1783  -23.3758  -55.5533 C.3       19 UNK         0.1400 
    106 CB        -3.9774  -24.2897  -55.2674 C.3       19 UNK        -0.1800 
    107 C         -4.7254  -21.9178  -55.7319 C.2       19 UNK         0.5000 
    108 O         -4.2827  -21.3044  -54.7568 O.2       19 UNK        -0.5000 
    109 N         -4.9120  -21.3788  -56.9451 N.am      20 UNK        -0.5000 
    110 CA        -4.6893  -19.9767  -57.3293 C.3       20 UNK         0.1400 
    111 CB        -3.1827  -19.6432  -57.3011 C.3       20 UNK        -0.1800 
    112 C         -5.5353  -18.9723  -56.5100 C.2       20 UNK         0.5000 
    113 O         -5.1128  -17.8320  -56.3145 O.2       20 UNK        -0.5000 
    114 N         -6.6975  -19.4323  -56.0162 N.am      21 UNK        -0.5000 
    115 CA        -7.6067  -18.7644  -55.0745 C.3       21 UNK         0.1400 
    116 CB        -8.1734  -17.4581  -55.6688 C.3       21 UNK        -0.1800 
    117 C         -7.0079  -18.5658  -53.6622 C.2       21 UNK         0.5000 
    118 O         -7.5771  -17.8222  -52.8618 O.2       21 UNK        -0.5000 
    119 N         -5.8896  -19.2414  -53.3752 N.am      22 UNK        -0.5000 
    120 CA        -5.1762  -19.2419  -52.0959 C.3       22 UNK         0.1400 
    121 C         -5.4184  -20.5941  -51.3793 C.2       22 UNK         0.5000 
    122 N         -4.9815  -21.7077  -51.9567 N.am      22 UNK        -0.7600 
    123 O         -6.0533  -20.6391  -50.3309 O.2       22 UNK        -0.5000 
    124 C124       -3.6716  -18.9414  -52.3217 C.3       23 UNK        -0.0398 
    125 S125       -2.8147  -18.3065  -50.8404 S.3       23 UNK        -0.2404 
    126 C126       -1.7485  -17.0338  -51.5966 C.3       23 UNK        -0.0205 
    127 H127        6.0296  -15.1473  -45.4921 H         1 UNK         0.0600 
    128 H128        6.9334  -13.7308  -46.0389 H         1 UNK         0.0600 
    129 H129        5.7879  -14.5238  -47.1264 H         1 UNK         0.0600 
    130 H130        3.8923  -13.3712  -47.3298 H         1 UNK         0.3000 
    131 H131        2.2415  -12.7152  -45.1714 H         1 UNK         0.0600 
    132 H132        0.7674  -11.6070  -46.8630 H         1 UNK         0.0800 
    133 H133        2.0229  -11.7740  -48.0635 H         1 UNK         0.0800 
    134 H134        1.3247  -13.4119  -49.8170 H         1 UNK         0.0800 
    135 H135        2.7473  -14.1441  -49.1156 H         1 UNK         0.0800 
    136 H136       -0.6991  -14.8335  -50.3422 H         1 UNK         0.1150 
    137 H137        0.1832  -18.9109  -51.3152 H         1 UNK         0.1150 
    138 H138        3.0460  -16.5580  -49.1611 H         1 UNK         0.1150 
    139 H139        2.5325  -19.6546  -51.1127 H         1 UNK         0.0800 
    140 H140        3.6945  -18.7000  -50.2317 H         1 UNK         0.0800 
    141 H141        0.6644  -21.0480  -50.0501 H         1 UNK         0.0800 
    142 H142        0.0399  -19.9489  -48.8379 H         1 UNK         0.0800 
    143 H143        1.2391  -22.6842  -48.1976 H         1 UNK         0.0600 
    144 H144        0.4570  -20.5888  -46.4521 H         1 UNK         0.3000 
    145 H145       -0.2027  -22.6816  -43.5853 H         1 UNK         0.0600 
    146 H146        1.3802  -20.9982  -42.6545 H         1 UNK         0.0600 
    147 H147        2.2233  -22.1950  -43.6279 H         1 UNK         0.0600 
    148 H148        1.9265  -20.5903  -44.2788 H         1 UNK         0.0600 
    149 H149       -0.4950  -19.8731  -43.9470 H         1 UNK         0.3000 
    150 H150       -3.8807  -19.9140  -45.1159 H         1 UNK         0.0600 
    151 H151       -4.0704  -20.0775  -42.6548 H         1 UNK         0.0600 
    152 H152       -4.1296  -18.3964  -43.1607 H         1 UNK         0.0600 
    153 H153       -2.6607  -19.0526  -42.4398 H         1 UNK         0.0600 
    154 H154       -2.0063  -17.8145  -44.5438 H         1 UNK         0.3000 
    155 H155       -0.6050  -17.5981  -47.8168 H         1 UNK         0.0600 
    156 H156       -2.5798  -15.7952  -46.3136 H         1 UNK         0.0600 
    157 H157       -1.5026  -15.2976  -47.6165 H         1 UNK         0.0600 
    158 H158       -2.8042  -16.4220  -47.9429 H         1 UNK         0.0600 
    159 H159       -0.2654  -16.0639  -45.4145 H         1 UNK         0.3000 
    160 H160        2.3540  -18.1032  -44.0202 H         1 UNK         0.0600 
    161 H161        2.4839  -15.3488  -45.3438 H         1 UNK         0.0600 
    162 H162        3.4764  -16.7279  -45.8025 H         1 UNK         0.0600 
    163 H163        3.6483  -16.0137  -44.2037 H         1 UNK         0.0600 
    164 H164        1.3492  -15.5990  -43.1790 H         1 UNK         0.3000 
    165 H165       -1.7147  -16.5344  -41.7780 H         1 UNK         0.0600 
    166 H166       -0.8645  -15.9480  -39.5196 H         1 UNK         0.0600 
    167 H167       -0.3317  -17.5620  -39.9600 H         1 UNK         0.0600 
    168 H168        0.7982  -16.2155  -40.0466 H         1 UNK         0.0600 
    169 H169       -0.1227  -14.2587  -41.2363 H         1 UNK         0.3000 
    170 H170       -0.0851  -12.5944  -44.2471 H         1 UNK         0.0600 
    171 H171       -2.4951  -12.1065  -43.7937 H         1 UNK         0.0600 
    172 H172       -2.1385  -11.8873  -42.0844 H         1 UNK         0.0600 
    173 H173       -1.4653  -10.7799  -43.2825 H         1 UNK         0.0600 
    174 H174        0.2996  -11.5121  -41.6922 H         1 UNK         0.3000 
    175 H175        2.2250  -11.2667  -40.7441 H         1 UNK         0.0600 
    176 H176        3.5564  -14.0162  -40.3967 H         1 UNK         0.0600 
    177 H177        3.6254  -12.6829  -39.2463 H         1 UNK         0.0600 
    178 H178        2.0986  -13.4894  -39.5633 H         1 UNK         0.0600 
    179 H179        4.1687  -12.1704  -42.7000 H         1 UNK         0.3000 
    180 H180        6.4432   -9.5035  -41.7855 H         1 UNK         0.0600 
    181 H181        6.7162  -12.4707  -42.4984 H         1 UNK         0.0600 
    182 H182        7.4270  -11.6621  -41.1099 H         1 UNK         0.0600 
    183 H183        7.9531  -11.2376  -42.7316 H         1 UNK         0.0600 
    184 H184        5.5101  -11.0190  -44.1548 H         1 UNK         0.3000 
    185 H185        3.9174   -8.2190  -45.5951 H         1 UNK         0.0600 
    186 H186        6.2637   -7.5848  -46.1641 H         1 UNK         0.0600 
    187 H187        6.6692   -9.2734  -46.4464 H         1 UNK         0.0600 
    188 H188        5.5070   -8.4530  -47.4899 H         1 UNK         0.0600 
    189 H189        4.7533  -10.8009  -46.5931 H         1 UNK         0.3000 
    190 H190       -2.0144  -21.2780  -47.5586 H         1 UNK         0.3000 
    191 H191       -3.4701  -22.8533  -49.3882 H         1 UNK         0.0600 
    192 H192       -4.3858  -21.7228  -46.6893 H         1 UNK         0.0600 
    193 H193       -5.4249  -22.2216  -48.0165 H         1 UNK         0.0600 
    194 H194       -4.3625  -20.8364  -48.2111 H         1 UNK         0.0600 
    195 H195       -2.6123  -23.5122  -45.9557 H         1 UNK         0.3000 
    196 H196       -3.9071  -26.0358  -45.7569 H         1 UNK         0.0600 
    197 H197       -2.4714  -26.3075  -43.7311 H         1 UNK         0.0600 
    198 H198       -3.2157  -24.7165  -43.7806 H         1 UNK         0.0600 
    199 H199       -1.5168  -24.9080  -44.2058 H         1 UNK         0.0600 
    200 H200       -0.5866  -25.1549  -46.7768 H         1 UNK         0.3000 
    201 H201        0.3844  -27.8154  -47.1149 H         1 UNK         0.0600 
    202 H202        1.8784  -25.8467  -46.9056 H         1 UNK         0.0600 
    203 H203        1.2900  -25.2039  -48.4368 H         1 UNK         0.0600 
    204 H204        2.2018  -26.7069  -48.4035 H         1 UNK         0.0600 
    205 H205       -1.1964  -25.5379  -49.4002 H         1 UNK         0.3000 
    206 H206       -1.1563  -27.2739  -51.6793 H         1 UNK         0.0600 
    207 H207       -1.4958  -24.8221  -51.8656 H         1 UNK         0.0600 
    208 H208       -2.8670  -25.6744  -52.5614 H         1 UNK         0.0600 
    209 H209       -3.0113  -24.9326  -50.9742 H         1 UNK         0.0600 
    210 H210       -3.4545  -26.7916  -49.0343 H         1 UNK         0.3000 
    211 H211       -5.1389  -27.8846  -48.1742 H         1 UNK         0.0600 
    212 H212       -4.3682  -30.3305  -49.8500 H         1 UNK         0.0600 
    213 H213       -5.3803  -30.3184  -48.4129 H         1 UNK         0.0600 
    214 H214       -3.6759  -29.9174  -48.2812 H         1 UNK         0.0600 
    215 H215       -5.4612  -26.2606  -50.5768 H         1 UNK         0.3000 
    216 H216       -8.2037  -26.7152  -51.2085 H         1 UNK         0.0600 
    217 H217       -6.1071  -27.2389  -53.4127 H         1 UNK         0.0600 
    218 H218       -7.8349  -27.0643  -53.6962 H         1 UNK         0.0600 
    219 H219       -7.2370  -28.4329  -52.7805 H         1 UNK         0.0600 
    220 H220       -8.8928  -25.0233  -52.8141 H         1 UNK         0.3000 
    221 H221       -7.6490  -22.4434  -52.3004 H         1 UNK         0.0600 
    222 H222      -10.1138  -22.7460  -52.2380 H         1 UNK         0.0600 
    223 H223      -10.1145  -23.2001  -53.9427 H         1 UNK         0.0600 
    224 H224       -9.6479  -21.5735  -53.4567 H         1 UNK         0.0600 
    225 H225       -5.8167  -23.9898  -53.6301 H         1 UNK         0.3000 
    226 H226       -5.6721  -23.7200  -56.4642 H         1 UNK         0.0600 
    227 H227       -4.2893  -25.3279  -55.1511 H         1 UNK         0.0600 
    228 H228       -3.2574  -24.2551  -56.0859 H         1 UNK         0.0600 
    229 H229       -3.4545  -23.9931  -54.3572 H         1 UNK         0.0600 
    230 H230       -5.3061  -21.9634  -57.6696 H         1 UNK         0.3000 
    231 H231       -5.0289  -19.8836  -58.3617 H         1 UNK         0.0600 
    232 H232       -2.7867  -19.6424  -56.2851 H         1 UNK         0.0600 
    233 H233       -2.9910  -18.6576  -57.7267 H         1 UNK         0.0600 
    234 H234       -2.6085  -20.3630  -57.8842 H         1 UNK         0.0600 
    235 H235       -6.9389  -20.3985  -56.2072 H         1 UNK         0.3000 
    236 H236       -8.4456  -19.4491  -54.9427 H         1 UNK         0.0600 
    237 H237       -8.9807  -17.0660  -55.0492 H         1 UNK         0.0600 
    238 H238       -7.4141  -16.6793  -55.7405 H         1 UNK         0.0600 
    239 H239       -8.5828  -17.6226  -56.6654 H         1 UNK         0.0600 
    240 H240       -5.5002  -19.8588  -54.0788 H         1 UNK         0.3000 
    241 H241       -5.5829  -18.4544  -51.4584 H         1 UNK         0.0600 
    242 H242       -5.1863  -22.6060  -51.5362 H         1 UNK         0.3800 
    243 H243       -4.5213  -21.6680  -52.8599 H         1 UNK         0.3800 
    244 H244       -3.1334  -19.8134  -52.6963 H         1 UNK         0.0800 
    245 H245       -3.5844  -18.1895  -53.1075 H         1 UNK         0.0800 
    246 H246       -1.5374  -17.2874  -52.6363 H         1 UNK         0.0800 
    247 H247       -2.2866  -16.0849  -51.6123 H         1 UNK         0.0800 
@<TRIPOS>BOND
     1    1    2 1    
     2    1  127 1    
     3    1  128 1    
     4    1  129 1    
     5    2    3 2    
     6    2    4 am   BACKBONE|DICT|INTERRES
     7    4    5 1    
     8    4  130 1    
     9    5    6 1    
    10    5   65 1    
    11    5  131 1    
    12    6    7 1    
    13    6  132 1    
    14    6  133 1    
    15    7    8 1    
    16    8    9 1    
    17    8  134 1    
    18    8  135 1    
    19    9   10 ar   
    20    9   14 ar   
    21   10   11 ar   
    22   10  136 1    
    23   11   12 ar   
    24   11  126 1    
    25   12   13 ar   
    26   12  137 1    
    27   13   14 ar   
    28   13   15 1    
    29   14  138 1    
    30   15   16 1    
    31   15  139 1    
    32   15  140 1    
    33   16   17 1    
    34   17   18 1    
    35   17  141 1    
    36   17  142 1    
    37   18   19 1    
    38   18   67 1    
    39   18  143 1    
    40   19   20 am   BACKBONE|DICT|INTERRES
    41   19  144 1    
    42   20   21 2    
    43   20   22 1    
    44   22   23 1    
    45   22   24 1    
    46   22  145 1    
    47   23  146 1    
    48   23  147 1    
    49   23  148 1    
    50   24   25 am   BACKBONE|DICT|INTERRES
    51   24  149 1    
    52   25   26 2    
    53   25   27 1    
    54   27   28 1    
    55   27   29 1    
    56   27  150 1    
    57   28  151 1    
    58   28  152 1    
    59   28  153 1    
    60   29   30 am   BACKBONE|DICT|INTERRES
    61   29  154 1    
    62   30   31 2    
    63   30   32 1    
    64   32   33 1    
    65   32   34 1    
    66   32  155 1    
    67   33  156 1    
    68   33  157 1    
    69   33  158 1    
    70   34   35 am   BACKBONE|DICT|INTERRES
    71   34  159 1    
    72   35   36 2    
    73   35   37 1    
    74   37   38 1    
    75   37   39 1    
    76   37  160 1    
    77   38  161 1    
    78   38  162 1    
    79   38  163 1    
    80   39   40 am   BACKBONE|DICT|INTERRES
    81   39  164 1    
    82   40   41 2    
    83   40   42 1    
    84   42   43 1    
    85   42   44 1    
    86   42  165 1    
    87   43  166 1    
    88   43  167 1    
    89   43  168 1    
    90   44   45 am   BACKBONE|DICT|INTERRES
    91   44  169 1    
    92   45   46 2    
    93   45   47 1    
    94   47   48 1    
    95   47   49 1    
    96   47  170 1    
    97   48  171 1    
    98   48  172 1    
    99   48  173 1    
   100   49   50 am   BACKBONE|DICT|INTERRES
   101   49  174 1    
   102   50   51 2    
   103   50   52 1    
   104   52   53 1    
   105   52   54 1    
   106   52  175 1    
   107   53  176 1    
   108   53  177 1    
   109   53  178 1    
   110   54   55 am   BACKBONE|DICT|INTERRES
   111   54  179 1    
   112   55   56 2    
   113   55   57 1    
   114   57   58 1    
   115   57   59 1    
   116   57  180 1    
   117   58  181 1    
   118   58  182 1    
   119   58  183 1    
   120   59   60 am   BACKBONE|DICT|INTERRES
   121   59  184 1    
   122   60   61 2    
   123   60   62 1    
   124   62   63 1    
   125   62   64 1    
   126   62  185 1    
   127   63  186 1    
   128   63  187 1    
   129   63  188 1    
   130   64   65 am   BACKBONE|DICT|INTERRES
   131   64  189 1    
   132   65   66 2    
   133   67   68 2    
   134   67   69 am   BACKBONE|DICT|INTERRES
   135   69   70 1    
   136   69  190 1    
   137   70   71 1    
   138   70   72 1    
   139   70  191 1    
   140   71  192 1    
   141   71  193 1    
   142   71  194 1    
   143   72   73 2    
   144   72   74 am   BACKBONE|DICT|INTERRES
   145   74   75 1    
   146   74  195 1    
   147   75   76 1    
   148   75   77 1    
   149   75  196 1    
   150   76  197 1    
   151   76  198 1    
   152   76  199 1    
   153   77   78 2    
   154   77   79 am   BACKBONE|DICT|INTERRES
   155   79   80 1    
   156   79  200 1    
   157   80   81 1    
   158   80   82 1    
   159   80  201 1    
   160   81  202 1    
   161   81  203 1    
   162   81  204 1    
   163   82   83 2    
   164   82   84 am   BACKBONE|DICT|INTERRES
   165   84   85 1    
   166   84  205 1    
   167   85   86 1    
   168   85   87 1    
   169   85  206 1    
   170   86  207 1    
   171   86  208 1    
   172   86  209 1    
   173   87   88 2    
   174   87   89 am   BACKBONE|DICT|INTERRES
   175   89   90 1    
   176   89  210 1    
   177   90   91 1    
   178   90   92 1    
   179   90  211 1    
   180   91  212 1    
   181   91  213 1    
   182   91  214 1    
   183   92   93 2    
   184   92   94 am   BACKBONE|DICT|INTERRES
   185   94   95 1    
   186   94  215 1    
   187   95   96 1    
   188   95   97 1    
   189   95  216 1    
   190   96  217 1    
   191   96  218 1    
   192   96  219 1    
   193   97   98 2    
   194   97   99 am   BACKBONE|DICT|INTERRES
   195   99  100 1    
   196   99  220 1    
   197  100  101 1    
   198  100  102 1    
   199  100  221 1    
   200  101  222 1    
   201  101  223 1    
   202  101  224 1    
   203  102  103 2    
   204  102  104 am   BACKBONE|DICT|INTERRES
   205  104  105 1    
   206  104  225 1    
   207  105  106 1    
   208  105  107 1    
   209  105  226 1    
   210  106  227 1    
   211  106  228 1    
   212  106  229 1    
   213  107  108 2    
   214  107  109 am   BACKBONE|DICT|INTERRES
   215  109  110 1    
   216  109  230 1    
   217  110  111 1    
   218  110  112 1    
   219  110  231 1    
   220  111  232 1    
   221  111  233 1    
   222  111  234 1    
   223  112  113 2    
   224  112  114 am   BACKBONE|DICT|INTERRES
   225  114  115 1    
   226  114  235 1    
   227  115  116 1    
   228  115  117 1    
   229  115  236 1    
   230  116  237 1    
   231  116  238 1    
   232  116  239 1    
   233  117  118 2    
   234  117  119 am   BACKBONE|DICT|INTERRES
   235  119  120 1    
   236  119  240 1    
   237  120  121 1    
   238  120  124 1    
   239  120  241 1    
   240  121  122 am   BACKBONE|DICT|INTERRES
   241  121  123 2    
   242  122  242 1    
   243  122  243 1    
   244  124  125 1    
   245  124  244 1    
   246  124  245 1    
   247  125  126 1    
   248  126  246 1    
   249  126  247 1    
@<TRIPOS>SUBSTRUCTURE
     1 UNK         1 GROUP             0       ****    0 ROOT    
