@<TRIPOS>MOLECULE
3R540
247   249    1
SMALL
USER_CHARGES


@<TRIPOS>ATOM
      1 CA         -6.1331   -9.8322  -47.4760 C.3       0 UNK        -0.1800 
      2 C          -4.8043  -10.5225  -47.7493 C.2       0 UNK         0.5000 
      3 O          -3.8984   -9.9082  -48.3125 O.2       0 UNK        -0.5000 
      4 N          -4.6836  -11.7920  -47.3507 N.am      1 UNK        -0.5000 
      5 CA         -3.4878  -12.6154  -47.5053 C.3       1 UNK         0.1400 
      6 C6         -3.3802  -13.2002  -48.9392 C.3       23 UNK        -0.0398 
      7 S7         -1.7339  -13.8963  -49.2918 S.3       23 UNK        -0.2404 
      8 C8         -2.1579  -15.5773  -49.8471 C.3       23 UNK        -0.0205 
      9 C9         -0.9117  -16.3359  -50.2781 C.ar      23 UNK        -0.0193 
     10 C10        -0.3563  -16.1054  -51.5390 C.ar      23 UNK        -0.1150 
     11 C11         0.8273  -16.7422  -51.9219 C.ar      23 UNK        -0.0193 
     12 C12         1.4523  -17.6245  -51.0356 C.ar      23 UNK        -0.1150 
     13 C13         0.8967  -17.8785  -49.7782 C.ar      23 UNK        -0.0193 
     14 C14        -0.2898  -17.2388  -49.4114 C.ar      23 UNK        -0.1150 
     15 C15         1.6094  -18.7979  -48.7973 C.3       23 UNK        -0.0205 
     16 S16         1.4172  -20.5528  -49.2280 S.3       23 UNK        -0.2404 
     17 C17        -0.2938  -20.8986  -48.7040 C.3       23 UNK        -0.0398 
     18 CA         -0.3687  -22.1393  -47.7840 C.3       11 UNK         0.1400 
     19 N           0.2538  -21.9218  -46.4754 N.am      11 UNK        -0.5000 
     20 C           0.6863  -22.9096  -45.6792 C.2       10 UNK         0.5000 
     21 O           0.6263  -24.1027  -45.9757 O.2       10 UNK        -0.5000 
     22 CA          1.2399  -22.4947  -44.3032 C.3       10 UNK         0.1400 
     23 CB          2.6770  -21.9709  -44.4298 C.3       10 UNK        -0.1800 
     24 N           0.4138  -21.4782  -43.6529 N.am      10 UNK        -0.5000 
     25 C          -0.8487  -21.6782  -43.2473 C.2       9 UNK         0.5000 
     26 O          -1.4367  -22.7544  -43.3453 O.2       9 UNK        -0.5000 
     27 CA         -1.6019  -20.4598  -42.6847 C.3       9 UNK         0.1400 
     28 CB         -1.4514  -20.4013  -41.1586 C.3       9 UNK        -0.1800 
     29 N          -1.1890  -19.1892  -43.2907 N.am      9 UNK        -0.5000 
     30 C          -1.3271  -18.9053  -44.5963 C.2       8 UNK         0.5000 
     31 O          -1.7730  -19.7133  -45.4125 O.2       8 UNK        -0.5000 
     32 CA         -0.8501  -17.5376  -45.1152 C.3       8 UNK         0.1400 
     33 CB         -1.8995  -16.8884  -46.0397 C.3       8 UNK        -0.1800 
     34 N          -0.3629  -16.6277  -44.0724 N.am      8 UNK        -0.5000 
     35 C          -1.0630  -15.8930  -43.1941 C.2       7 UNK         0.5000 
     36 O          -2.2858  -15.7556  -43.2268 O.2       7 UNK        -0.5000 
     37 CA         -0.2413  -15.1744  -42.0997 C.3       7 UNK         0.1400 
     38 CB         -1.0540  -14.9237  -40.8118 C.3       7 UNK        -0.1800 
     39 N           1.0355  -15.8441  -41.8043 N.am      7 UNK        -0.5000 
     40 C           1.1815  -17.0770  -41.2971 C.2       6 UNK         0.5000 
     41 O           0.2297  -17.7962  -40.9985 O.2       6 UNK        -0.5000 
     42 CA          2.6231  -17.6059  -41.1534 C.3       6 UNK         0.1400 
     43 CB          2.6724  -19.0897  -40.7285 C.3       6 UNK        -0.1800 
     44 N           3.4367  -17.3997  -42.3566 N.am      6 UNK        -0.5000 
     45 C           3.2017  -17.8614  -43.5926 C.2       5 UNK         0.5000 
     46 O           2.1766  -18.4657  -43.9193 O.2       5 UNK        -0.5000 
     47 CA          4.2989  -17.5615  -44.6369 C.3       5 UNK         0.1400 
     48 CB          4.1023  -18.3488  -45.9426 C.3       5 UNK        -0.1800 
     49 N           4.3492  -16.1393  -44.9662 N.am      5 UNK        -0.5000 
     50 C           4.8564  -15.1623  -44.2019 C.2       4 UNK         0.5000 
     51 O           5.4154  -15.3630  -43.1226 O.2       4 UNK        -0.5000 
     52 CA          4.6806  -13.7171  -44.7176 C.3       4 UNK         0.1400 
     53 CB          5.9615  -13.2363  -45.4158 C.3       4 UNK        -0.1800 
     54 N           3.5450  -13.5579  -45.6353 N.am      4 UNK        -0.5000 
     55 C           2.2648  -13.7470  -45.2899 C.2       3 UNK         0.5000 
     56 O           1.9091  -14.0330  -44.1454 O.2       3 UNK        -0.5000 
     57 CA          1.2313  -13.6959  -46.4295 C.3       3 UNK         0.1400 
     58 CB          1.3301  -14.9817  -47.2653 C.3       3 UNK        -0.1800 
     59 N          -0.1338  -13.5636  -45.9137 N.am      3 UNK        -0.5000 
     60 C          -0.6481  -12.4276  -45.4260 C.2       2 UNK         0.5000 
     61 O          -0.0741  -11.3400  -45.4920 O.2       2 UNK        -0.5000 
     62 CA         -2.0233  -12.5290  -44.7335 C.3       2 UNK         0.1400 
     63 CB         -2.7557  -11.1776  -44.5985 C.3       2 UNK        -0.1800 
     64 N          -2.8976  -13.5901  -45.2548 N.am      2 UNK        -0.5000 
     65 C          -3.5684  -13.7018  -46.4143 C.2       1 UNK         0.5000 
     66 O          -4.3168  -14.6578  -46.6106 O.2       1 UNK        -0.5000 
     67 C          -1.8163  -22.6461  -47.6369 C.2       11 UNK         0.5000 
     68 O          -2.2479  -23.4678  -48.4431 O.2       11 UNK        -0.5000 
     69 N          -2.5406  -22.1869  -46.6063 N.am      12 UNK        -0.5000 
     70 CA         -3.8862  -22.6611  -46.2783 C.3       12 UNK         0.1400 
     71 CB         -4.4926  -21.7978  -45.1643 C.3       12 UNK        -0.1800 
     72 C          -3.9006  -24.1533  -45.8956 C.2       12 UNK         0.5000 
     73 O          -4.7423  -24.9004  -46.3968 O.2       12 UNK        -0.5000 
     74 N          -2.9329  -24.5666  -45.0637 N.am      13 UNK        -0.5000 
     75 CA         -2.7041  -25.9585  -44.6711 C.3       13 UNK         0.1400 
     76 CB         -1.6405  -26.0094  -43.5644 C.3       13 UNK        -0.1800 
     77 C          -2.2975  -26.8621  -45.8502 C.2       13 UNK         0.5000 
     78 O          -2.6726  -28.0353  -45.8718 O.2       13 UNK        -0.5000 
     79 N          -1.5824  -26.2988  -46.8332 N.am      14 UNK        -0.5000 
     80 CA         -1.1783  -26.9493  -48.0809 C.3       14 UNK         0.1400 
     81 CB          0.0543  -26.2217  -48.6469 C.3       14 UNK        -0.1800 
     82 C          -2.3377  -27.0352  -49.0991 C.2       14 UNK         0.5000 
     83 O          -2.1901  -26.6039  -50.2426 O.2       14 UNK        -0.5000 
     84 N          -3.4713  -27.6000  -48.6603 N.am      15 UNK        -0.5000 
     85 CA         -4.6947  -27.8630  -49.4250 C.3       15 UNK         0.1400 
     86 CB         -4.4459  -28.9735  -50.4676 C.3       15 UNK        -0.1800 
     87 C          -5.3283  -26.5932  -50.0340 C.2       15 UNK         0.5000 
     88 O          -5.7380  -26.6050  -51.1965 O.2       15 UNK        -0.5000 
     89 N          -5.4079  -25.5252  -49.2254 N.am      16 UNK        -0.5000 
     90 CA         -6.0125  -24.2265  -49.5432 C.3       16 UNK         0.1400 
     91 CB         -7.5341  -24.3635  -49.7618 C.3       16 UNK        -0.1800 
     92 C          -5.3069  -23.4685  -50.6883 C.2       16 UNK         0.5000 
     93 O          -5.9530  -22.7158  -51.4198 O.2       16 UNK        -0.5000 
     94 N          -3.9804  -23.6303  -50.8012 N.am      17 UNK        -0.5000 
     95 CA         -3.1388  -22.9609  -51.7980 C.3       17 UNK         0.1400 
     96 CB         -1.7487  -23.6112  -51.8282 C.3       17 UNK        -0.1800 
     97 C          -3.0202  -21.4364  -51.6003 C.2       17 UNK         0.5000 
     98 O          -2.5892  -20.7376  -52.5193 O.2       17 UNK        -0.5000 
     99 N          -3.4422  -20.9397  -50.4277 N.am      18 UNK        -0.5000 
    100 CA        -3.5769  -19.5193  -50.0972 C.3       18 UNK         0.1400 
    101 CB        -3.9742  -19.3799  -48.6195 C.3       18 UNK        -0.1800 
    102 C         -4.5717  -18.7631  -51.0027 C.2       18 UNK         0.5000 
    103 O         -4.4866  -17.5395  -51.0954 O.2       18 UNK        -0.5000 
    104 N         -5.4545  -19.4879  -51.7068 N.am      19 UNK        -0.5000 
    105 CA        -6.3374  -18.9819  -52.7615 C.3       19 UNK         0.1400 
    106 CB        -7.4880  -19.9850  -52.9583 C.3       19 UNK        -0.1800 
    107 C         -5.5810  -18.6765  -54.0794 C.2       19 UNK         0.5000 
    108 O         -6.0164  -19.0911  -55.1547 O.2       19 UNK        -0.5000 
    109 N         -4.4561  -17.9568  -53.9635 N.am      20 UNK        -0.5000 
    110 CA        -3.5735  -17.4539  -55.0217 C.3       20 UNK         0.1400 
    111 CB        -4.3099  -16.4023  -55.8776 C.3       20 UNK        -0.1800 
    112 C         -2.8837  -18.5360  -55.8832 C.2       20 UNK         0.5000 
    113 O         -2.4061  -18.2176  -56.9741 O.2       20 UNK        -0.5000 
    114 N         -2.8098  -19.7810  -55.3912 N.am      21 UNK        -0.5000 
    115 CA        -2.0440  -20.8573  -56.0271 C.3       21 UNK         0.1400 
    116 CB        -2.6845  -22.2148  -55.7071 C.3       21 UNK        -0.1800 
    117 C         -0.5729  -20.8231  -55.5761 C.2       21 UNK         0.5000 
    118 O          0.3165  -21.0912  -56.3838 O.2       21 UNK        -0.5000 
    119 N         -0.3540  -20.4680  -54.3024 N.am      22 UNK        -0.5000 
    120 CA         0.9450  -20.2009  -53.6590 C.3       22 UNK         0.1400 
    121 C          1.8450  -21.4506  -53.4145 C.2       22 UNK         0.5000 
    122 N          1.3945  -22.6672  -53.6927 N.am      22 UNK        -0.7600 
    123 O          2.9695  -21.3190  -52.9394 O.2       22 UNK        -0.5000 
    124 C124        1.7411  -19.0497  -54.3396 C.3       23 UNK        -0.0398 
    125 S125        0.7733  -17.5167  -54.5800 S.3       23 UNK        -0.2404 
    126 C126        1.4440  -16.4395  -53.2778 C.3       23 UNK        -0.0205 
    127 H127       -6.5831   -9.5005  -48.4117 H         1 UNK         0.0600 
    128 H128       -5.9785   -8.9591  -46.8421 H         1 UNK         0.0600 
    129 H129       -6.8393  -10.4951  -46.9753 H         1 UNK         0.0600 
    130 H130       -5.4541  -12.2505  -46.8819 H         1 UNK         0.3000 
    131 H131       -2.6091  -11.9933  -47.3422 H         1 UNK         0.0600 
    132 H132       -3.5446  -12.4107  -49.6734 H         1 UNK         0.0800 
    133 H133       -4.1595  -13.9408  -49.1278 H         1 UNK         0.0800 
    134 H134       -2.8522  -15.5116  -50.6856 H         1 UNK         0.0800 
    135 H135       -2.6784  -16.1096  -49.0493 H         1 UNK         0.0800 
    136 H136       -0.8326  -15.4071  -52.2128 H         1 UNK         0.1150 
    137 H137        2.3760  -18.1094  -51.3187 H         1 UNK         0.1150 
    138 H138       -0.7063  -17.4179  -48.4352 H         1 UNK         0.1150 
    139 H139        1.2576  -18.6311  -47.7787 H         1 UNK         0.0800 
    140 H140        2.6731  -18.5563  -48.7966 H         1 UNK         0.0800 
    141 H141       -0.8619  -21.0629  -49.6185 H         1 UNK         0.0800 
    142 H142       -0.7326  -20.0266  -48.2171 H         1 UNK         0.0800 
    143 H143        0.1819  -22.9394  -48.2832 H         1 UNK         0.0600 
    144 H144        0.2935  -20.9711  -46.1402 H         1 UNK         0.3000 
    145 H145        1.2519  -23.3807  -43.6649 H         1 UNK         0.0600 
    146 H146        3.0944  -21.7179  -43.4550 H         1 UNK         0.0600 
    147 H147        2.7185  -21.0787  -45.0536 H         1 UNK         0.0600 
    148 H148        3.3287  -22.7200  -44.8812 H         1 UNK         0.0600 
    149 H149        0.8147  -20.5545  -43.5538 H         1 UNK         0.3000 
    150 H150       -2.6615  -20.5907  -42.9063 H         1 UNK         0.0600 
    151 H151       -1.8673  -21.2959  -40.6936 H         1 UNK         0.0600 
    152 H152       -0.4048  -20.3371  -40.8593 H         1 UNK         0.0600 
    153 H153       -1.9770  -19.5428  -40.7400 H         1 UNK         0.0600 
    154 H154       -0.7722  -18.5061  -42.6676 H         1 UNK         0.3000 
    155 H155        0.0216  -17.7642  -45.7294 H         1 UNK         0.0600 
    156 H156       -2.8174  -16.6420  -45.5087 H         1 UNK         0.0600 
    157 H157       -2.1954  -17.5680  -46.8377 H         1 UNK         0.0600 
    158 H158       -1.5181  -15.9849  -46.5116 H         1 UNK         0.0600 
    159 H159        0.6354  -16.6796  -43.9143 H         1 UNK         0.3000 
    160 H160        0.0081  -14.1941  -42.5036 H         1 UNK         0.0600 
    161 H161       -1.4405  -15.8495  -40.3851 H         1 UNK         0.0600 
    162 H162       -1.9097  -14.2774  -41.0104 H         1 UNK         0.0600 
    163 H163       -0.4474  -14.4308  -40.0522 H         1 UNK         0.0600 
    164 H164        1.8626  -15.3339  -42.0867 H         1 UNK         0.3000 
    165 H165        3.0862  -17.0185  -40.3594 H         1 UNK         0.0600 
    166 H166        2.1590  -19.2422  -39.7783 H         1 UNK         0.0600 
    167 H167        2.1966  -19.7393  -41.4642 H         1 UNK         0.0600 
    168 H168        3.7001  -19.4285  -40.5985 H         1 UNK         0.0600 
    169 H169        4.2732  -16.8386  -42.2318 H         1 UNK         0.3000 
    170 H170        5.2582  -17.8585  -44.2079 H         1 UNK         0.0600 
    171 H171        4.8857  -18.1197  -46.6653 H         1 UNK         0.0600 
    172 H172        4.1385  -19.4223  -45.7611 H         1 UNK         0.0600 
    173 H173        3.1428  -18.1200  -46.4045 H         1 UNK         0.0600 
    174 H174        3.9013  -15.8691  -45.8280 H         1 UNK         0.3000 
    175 H175        4.5036  -13.0800  -43.8485 H         1 UNK         0.0600 
    176 H176        6.8225  -13.3159  -44.7507 H         1 UNK         0.0600 
    177 H177        6.1799  -13.8256  -46.3073 H         1 UNK         0.0600 
    178 H178        5.8798  -12.1911  -45.7146 H         1 UNK         0.0600 
    179 H179        3.7696  -13.3303  -46.5935 H         1 UNK         0.3000 
    180 H180        1.4554  -12.8401  -47.0699 H         1 UNK         0.0600 
    181 H181        1.1349  -15.8718  -46.6682 H         1 UNK         0.0600 
    182 H182        2.3205  -15.0957  -47.7071 H         1 UNK         0.0600 
    183 H183        0.6219  -14.9662  -48.0895 H         1 UNK         0.0600 
    184 H184       -0.6568  -14.4179  -45.7990 H         1 UNK         0.3000 
    185 H185       -1.7967  -12.8462  -43.7150 H         1 UNK         0.0600 
    186 H186       -2.2234  -10.5249  -43.9058 H         1 UNK         0.0600 
    187 H187       -2.8225  -10.6390  -45.5419 H         1 UNK         0.0600 
    188 H188       -3.7650  -11.3060  -44.2071 H         1 UNK         0.0600 
    189 H189       -3.0069  -14.3618  -44.6050 H         1 UNK         0.3000 
    190 H190       -2.1562  -21.4518  -46.0181 H         1 UNK         0.3000 
    191 H191       -4.5018  -22.5322  -47.1689 H         1 UNK         0.0600 
    192 H192       -4.4585  -20.7382  -45.4191 H         1 UNK         0.0600 
    193 H193       -5.5378  -22.0603  -44.9973 H         1 UNK         0.0600 
    194 H194       -3.9689  -21.9361  -44.2198 H         1 UNK         0.0600 
    195 H195       -2.3076  -23.8767  -44.6555 H         1 UNK         0.3000 
    196 H196       -3.6392  -26.3487  -44.2644 H         1 UNK         0.0600 
    197 H197       -0.6916  -25.5891  -43.9002 H         1 UNK         0.0600 
    198 H198       -1.4529  -27.0359  -43.2468 H         1 UNK         0.0600 
    199 H199       -1.9607  -25.4508  -42.6848 H         1 UNK         0.0600 
    200 H200       -1.3222  -25.3267  -46.7356 H         1 UNK         0.3000 
    201 H201       -0.8769  -27.9741  -47.8547 H         1 UNK         0.0600 
    202 H202       -0.1825  -25.1997  -48.9408 H         1 UNK         0.0600 
    203 H203        0.8620  -26.1827  -47.9158 H         1 UNK         0.0600 
    204 H204        0.4399  -26.7342  -49.5290 H         1 UNK         0.0600 
    205 H205       -3.4807  -27.9036  -47.6915 H         1 UNK         0.3000 
    206 H206       -5.4227  -28.2462  -48.7087 H         1 UNK         0.0600 
    207 H207       -4.0317  -29.8671  -50.0007 H         1 UNK         0.0600 
    208 H208       -5.3752  -29.2665  -50.9573 H         1 UNK         0.0600 
    209 H209       -3.7537  -28.6503  -51.2458 H         1 UNK         0.0600 
    210 H210       -5.0336  -25.6010  -48.2842 H         1 UNK         0.3000 
    211 H211       -5.8775  -23.6104  -48.6556 H         1 UNK         0.0600 
    212 H212       -8.0065  -24.8856  -48.9297 H         1 UNK         0.0600 
    213 H213       -8.0083  -23.3843  -49.8384 H         1 UNK         0.0600 
    214 H214       -7.7662  -24.9091  -50.6767 H         1 UNK         0.0600 
    215 H215       -3.4971  -24.2191  -50.1323 H         1 UNK         0.3000 
    216 H216       -3.6101  -23.1208  -52.7683 H         1 UNK         0.0600 
    217 H217       -1.2374  -23.5292  -50.8694 H         1 UNK         0.0600 
    218 H218       -1.1148  -23.1376  -52.5766 H         1 UNK         0.0600 
    219 H219       -1.8147  -24.6681  -52.0850 H         1 UNK         0.0600 
    220 H220       -3.7676  -21.6007  -49.7384 H         1 UNK         0.3000 
    221 H221       -2.5999  -19.0520  -50.2368 H         1 UNK         0.0600 
    222 H222       -4.9102  -19.8959  -48.4030 H         1 UNK         0.0600 
    223 H223       -3.2071  -19.7848  -47.9610 H         1 UNK         0.0600 
    224 H224       -4.1073  -18.3321  -48.3466 H         1 UNK         0.0600 
    225 H225       -5.4542  -20.4928  -51.5826 H         1 UNK         0.3000 
    226 H226       -6.7743  -18.0405  -52.4221 H         1 UNK         0.0600 
    227 H227       -8.0217  -20.1621  -52.0243 H         1 UNK         0.0600 
    228 H228       -8.2156  -19.6130  -53.6807 H         1 UNK         0.0600 
    229 H229       -7.1233  -20.9467  -53.3217 H         1 UNK         0.0600 
    230 H230       -4.2060  -17.6738  -53.0206 H         1 UNK         0.3000 
    231 H231       -2.7626  -16.9397  -54.5036 H         1 UNK         0.0600 
    232 H232       -5.1006  -16.8529  -56.4782 H         1 UNK         0.0600 
    233 H233       -3.6249  -15.9007  -56.5622 H         1 UNK         0.0600 
    234 H234       -4.7606  -15.6309  -55.2531 H         1 UNK         0.0600 
    235 H235       -3.1810  -19.9653  -54.4676 H         1 UNK         0.3000 
    236 H236       -2.0688  -20.7307  -57.1116 H         1 UNK         0.0600 
    237 H237       -2.5879  -22.4643  -54.6534 H         1 UNK         0.0600 
    238 H238       -3.7442  -22.2250  -55.9630 H         1 UNK         0.0600 
    239 H239       -2.2031  -23.0122  -56.2742 H         1 UNK         0.0600 
    240 H240       -1.1628  -20.3404  -53.7008 H         1 UNK         0.3000 
    241 H241        0.6839  -19.8604  -52.6568 H         1 UNK         0.0600 
    242 H242        1.9860  -23.4650  -53.5225 H         1 UNK         0.3800 
    243 H243        0.4901  -22.7903  -54.1158 H         1 UNK         0.3800 
    244 H244        2.1007  -19.3703  -55.3181 H         1 UNK         0.0800 
    245 H245        2.6368  -18.8151  -53.7630 H         1 UNK         0.0800 
    246 H246        1.2375  -15.4024  -53.5466 H         1 UNK         0.0800 
    247 H247        2.5307  -16.5250  -53.2364 H         1 UNK         0.0800 
@<TRIPOS>BOND
     1    1    2 1    
     2    1  127 1    
     3    1  128 1    
     4    1  129 1    
     5    2    3 2    
     6    2    4 am   BACKBONE|DICT|INTERRES
     7    4    5 1    
     8    4  130 1    
     9    5    6 1    
    10    5   65 1    
    11    5  131 1    
    12    6    7 1    
    13    6  132 1    
    14    6  133 1    
    15    7    8 1    
    16    8    9 1    
    17    8  134 1    
    18    8  135 1    
    19    9   10 ar   
    20    9   14 ar   
    21   10   11 ar   
    22   10  136 1    
    23   11   12 ar   
    24   11  126 1    
    25   12   13 ar   
    26   12  137 1    
    27   13   14 ar   
    28   13   15 1    
    29   14  138 1    
    30   15   16 1    
    31   15  139 1    
    32   15  140 1    
    33   16   17 1    
    34   17   18 1    
    35   17  141 1    
    36   17  142 1    
    37   18   19 1    
    38   18   67 1    
    39   18  143 1    
    40   19   20 am   BACKBONE|DICT|INTERRES
    41   19  144 1    
    42   20   21 2    
    43   20   22 1    
    44   22   23 1    
    45   22   24 1    
    46   22  145 1    
    47   23  146 1    
    48   23  147 1    
    49   23  148 1    
    50   24   25 am   BACKBONE|DICT|INTERRES
    51   24  149 1    
    52   25   26 2    
    53   25   27 1    
    54   27   28 1    
    55   27   29 1    
    56   27  150 1    
    57   28  151 1    
    58   28  152 1    
    59   28  153 1    
    60   29   30 am   BACKBONE|DICT|INTERRES
    61   29  154 1    
    62   30   31 2    
    63   30   32 1    
    64   32   33 1    
    65   32   34 1    
    66   32  155 1    
    67   33  156 1    
    68   33  157 1    
    69   33  158 1    
    70   34   35 am   BACKBONE|DICT|INTERRES
    71   34  159 1    
    72   35   36 2    
    73   35   37 1    
    74   37   38 1    
    75   37   39 1    
    76   37  160 1    
    77   38  161 1    
    78   38  162 1    
    79   38  163 1    
    80   39   40 am   BACKBONE|DICT|INTERRES
    81   39  164 1    
    82   40   41 2    
    83   40   42 1    
    84   42   43 1    
    85   42   44 1    
    86   42  165 1    
    87   43  166 1    
    88   43  167 1    
    89   43  168 1    
    90   44   45 am   BACKBONE|DICT|INTERRES
    91   44  169 1    
    92   45   46 2    
    93   45   47 1    
    94   47   48 1    
    95   47   49 1    
    96   47  170 1    
    97   48  171 1    
    98   48  172 1    
    99   48  173 1    
   100   49   50 am   BACKBONE|DICT|INTERRES
   101   49  174 1    
   102   50   51 2    
   103   50   52 1    
   104   52   53 1    
   105   52   54 1    
   106   52  175 1    
   107   53  176 1    
   108   53  177 1    
   109   53  178 1    
   110   54   55 am   BACKBONE|DICT|INTERRES
   111   54  179 1    
   112   55   56 2    
   113   55   57 1    
   114   57   58 1    
   115   57   59 1    
   116   57  180 1    
   117   58  181 1    
   118   58  182 1    
   119   58  183 1    
   120   59   60 am   BACKBONE|DICT|INTERRES
   121   59  184 1    
   122   60   61 2    
   123   60   62 1    
   124   62   63 1    
   125   62   64 1    
   126   62  185 1    
   127   63  186 1    
   128   63  187 1    
   129   63  188 1    
   130   64   65 am   BACKBONE|DICT|INTERRES
   131   64  189 1    
   132   65   66 2    
   133   67   68 2    
   134   67   69 am   BACKBONE|DICT|INTERRES
   135   69   70 1    
   136   69  190 1    
   137   70   71 1    
   138   70   72 1    
   139   70  191 1    
   140   71  192 1    
   141   71  193 1    
   142   71  194 1    
   143   72   73 2    
   144   72   74 am   BACKBONE|DICT|INTERRES
   145   74   75 1    
   146   74  195 1    
   147   75   76 1    
   148   75   77 1    
   149   75  196 1    
   150   76  197 1    
   151   76  198 1    
   152   76  199 1    
   153   77   78 2    
   154   77   79 am   BACKBONE|DICT|INTERRES
   155   79   80 1    
   156   79  200 1    
   157   80   81 1    
   158   80   82 1    
   159   80  201 1    
   160   81  202 1    
   161   81  203 1    
   162   81  204 1    
   163   82   83 2    
   164   82   84 am   BACKBONE|DICT|INTERRES
   165   84   85 1    
   166   84  205 1    
   167   85   86 1    
   168   85   87 1    
   169   85  206 1    
   170   86  207 1    
   171   86  208 1    
   172   86  209 1    
   173   87   88 2    
   174   87   89 am   BACKBONE|DICT|INTERRES
   175   89   90 1    
   176   89  210 1    
   177   90   91 1    
   178   90   92 1    
   179   90  211 1    
   180   91  212 1    
   181   91  213 1    
   182   91  214 1    
   183   92   93 2    
   184   92   94 am   BACKBONE|DICT|INTERRES
   185   94   95 1    
   186   94  215 1    
   187   95   96 1    
   188   95   97 1    
   189   95  216 1    
   190   96  217 1    
   191   96  218 1    
   192   96  219 1    
   193   97   98 2    
   194   97   99 am   BACKBONE|DICT|INTERRES
   195   99  100 1    
   196   99  220 1    
   197  100  101 1    
   198  100  102 1    
   199  100  221 1    
   200  101  222 1    
   201  101  223 1    
   202  101  224 1    
   203  102  103 2    
   204  102  104 am   BACKBONE|DICT|INTERRES
   205  104  105 1    
   206  104  225 1    
   207  105  106 1    
   208  105  107 1    
   209  105  226 1    
   210  106  227 1    
   211  106  228 1    
   212  106  229 1    
   213  107  108 2    
   214  107  109 am   BACKBONE|DICT|INTERRES
   215  109  110 1    
   216  109  230 1    
   217  110  111 1    
   218  110  112 1    
   219  110  231 1    
   220  111  232 1    
   221  111  233 1    
   222  111  234 1    
   223  112  113 2    
   224  112  114 am   BACKBONE|DICT|INTERRES
   225  114  115 1    
   226  114  235 1    
   227  115  116 1    
   228  115  117 1    
   229  115  236 1    
   230  116  237 1    
   231  116  238 1    
   232  116  239 1    
   233  117  118 2    
   234  117  119 am   BACKBONE|DICT|INTERRES
   235  119  120 1    
   236  119  240 1    
   237  120  121 1    
   238  120  124 1    
   239  120  241 1    
   240  121  122 am   BACKBONE|DICT|INTERRES
   241  121  123 2    
   242  122  242 1    
   243  122  243 1    
   244  124  125 1    
   245  124  244 1    
   246  124  245 1    
   247  125  126 1    
   248  126  246 1    
   249  126  247 1    
@<TRIPOS>SUBSTRUCTURE
     1 UNK         1 GROUP             0       ****    0 ROOT    
