@<TRIPOS>MOLECULE
3R540
247   249    1
SMALL
USER_CHARGES


@<TRIPOS>ATOM
      1 CA          2.7267  -12.3576  -45.8836 C.3       0 UNK        -0.1800 
      2 C           1.8362  -13.4789  -46.3965 C.2       0 UNK         0.5000 
      3 O           1.3237  -14.2620  -45.5940 O.2       0 UNK        -0.5000 
      4 N           1.6529  -13.5588  -47.7219 N.am      1 UNK        -0.5000 
      5 CA          0.8229  -14.5530  -48.4098 C.3       1 UNK         0.1400 
      6 C6          0.9247  -14.4198  -49.9499 C.3       23 UNK        -0.0398 
      7 S7          0.4075  -15.9528  -50.7946 S.3       23 UNK        -0.2404 
      8 C8          2.0022  -16.6360  -51.3508 C.3       23 UNK        -0.0205 
      9 C9          2.0020  -18.1519  -51.2513 C.ar      23 UNK        -0.0193 
     10 C10         1.2201  -18.9121  -52.1232 C.ar      23 UNK        -0.1150 
     11 C11         1.1747  -20.3030  -52.0048 C.ar      23 UNK        -0.0193 
     12 C12         1.9346  -20.9352  -51.0160 C.ar      23 UNK        -0.1150 
     13 C13         2.7200  -20.1870  -50.1328 C.ar      23 UNK        -0.0193 
     14 C14         2.7588  -18.7942  -50.2680 C.ar      23 UNK        -0.1150 
     15 C15         3.5108  -20.9024  -49.0391 C.3       23 UNK        -0.0205 
     16 S16         3.5463  -20.0317  -47.4327 S.3       23 UNK        -0.2404 
     17 C17         1.7757  -19.9501  -46.9877 C.3       23 UNK        -0.0398 
     18 CA          1.2735  -21.1573  -46.1518 C.3       11 UNK         0.1400 
     19 N           2.0412  -21.3449  -44.9174 N.am      11 UNK        -0.5000 
     20 C           2.9621  -22.2959  -44.7161 C.2       10 UNK         0.5000 
     21 O           3.2007  -23.2068  -45.5095 O.2       10 UNK        -0.5000 
     22 CA          3.7465  -22.2132  -43.3974 C.3       10 UNK         0.1400 
     23 CB          4.8759  -21.1759  -43.5066 C.3       10 UNK        -0.1800 
     24 N           2.8734  -21.8534  -42.2831 N.am      10 UNK        -0.5000 
     25 C           2.1681  -22.7279  -41.5547 C.2       9 UNK         0.5000 
     26 O           2.1994  -23.9452  -41.7421 O.2       9 UNK        -0.5000 
     27 CA          1.2617  -22.1452  -40.4494 C.3       9 UNK         0.1400 
     28 CB          1.0641  -23.1091  -39.2611 C.3       9 UNK        -0.1800 
     29 N           1.6705  -20.8133  -39.9896 N.am      9 UNK        -0.5000 
     30 C           2.7954  -20.4736  -39.3403 C.2       8 UNK         0.5000 
     31 O           3.6639  -21.2815  -39.0096 O.2       8 UNK        -0.5000 
     32 CA          3.0103  -18.9768  -39.0251 C.3       8 UNK         0.1400 
     33 CB          4.1953  -18.4313  -39.8384 C.3       8 UNK        -0.1800 
     34 N           1.8367  -18.1415  -39.2927 N.am      8 UNK        -0.5000 
     35 C           0.7237  -18.1039  -38.5467 C.2       7 UNK         0.5000 
     36 O           0.5914  -18.7110  -37.4839 O.2       7 UNK        -0.5000 
     37 CA         -0.4596  -17.2969  -39.1179 C.3       7 UNK         0.1400 
     38 CB         -0.3579  -15.8183  -38.7154 C.3       7 UNK        -0.1800 
     39 N          -0.5655  -17.3986  -40.5767 N.am      7 UNK        -0.5000 
     40 C          -0.8007  -18.5326  -41.2524 C.2       6 UNK         0.5000 
     41 O          -1.0030  -19.6192  -40.7132 O.2       6 UNK        -0.5000 
     42 CA         -0.7263  -18.4606  -42.7850 C.3       6 UNK         0.1400 
     43 CB         -2.0493  -17.9749  -43.3922 C.3       6 UNK        -0.1800 
     44 N           0.3775  -17.6082  -43.2240 N.am      6 UNK        -0.5000 
     45 C           1.6577  -18.0034  -43.2486 C.2       5 UNK         0.5000 
     46 O           2.0128  -19.1593  -43.0124 O.2       5 UNK        -0.5000 
     47 CA          2.7212  -16.9361  -43.5679 C.3       5 UNK         0.1400 
     48 CB          3.1031  -16.9710  -45.0529 C.3       5 UNK        -0.1800 
     49 N           2.2922  -15.5837  -43.2093 N.am      5 UNK        -0.5000 
     50 C           2.2334  -15.1328  -41.9487 C.2       4 UNK         0.5000 
     51 O           2.5322  -15.8167  -40.9707 O.2       4 UNK        -0.5000 
     52 CA          1.7076  -13.7006  -41.7348 C.3       4 UNK         0.1400 
     53 CB          2.8493  -12.6829  -41.8714 C.3       4 UNK        -0.1800 
     54 N           0.6144  -13.3254  -42.6350 N.am      4 UNK        -0.5000 
     55 C          -0.5549  -13.9701  -42.7409 C.2       3 UNK         0.5000 
     56 O          -0.8252  -14.9894  -42.1057 O.2       3 UNK        -0.5000 
     57 CA         -1.5822  -13.4247  -43.7418 C.3       3 UNK         0.1400 
     58 CB         -1.3102  -11.9811  -44.2110 C.3       3 UNK        -0.1800 
     59 N          -1.5868  -14.3120  -44.8973 N.am      3 UNK        -0.5000 
     60 C          -2.6748  -14.8226  -45.4871 C.2       2 UNK         0.5000 
     61 O          -3.8228  -14.6082  -45.0947 O.2       2 UNK        -0.5000 
     62 CA         -2.4460  -15.7395  -46.7126 C.3       2 UNK         0.1400 
     63 CB         -3.5723  -15.6233  -47.7597 C.3       2 UNK        -0.1800 
     64 N          -1.1283  -15.5804  -47.3420 N.am      2 UNK        -0.5000 
     65 C          -0.6424  -14.4772  -47.9308 C.2       1 UNK         0.5000 
     66 O          -1.2710  -13.4259  -48.0708 O.2       1 UNK        -0.5000 
     67 C          -0.2307  -21.0476  -45.8272 C.2       11 UNK         0.5000 
     68 O          -0.9533  -20.3091  -46.4953 O.2       11 UNK        -0.5000 
     69 N          -0.6966  -21.7795  -44.8049 N.am      12 UNK        -0.5000 
     70 CA         -2.0966  -21.7781  -44.3610 C.3       12 UNK         0.1400 
     71 CB         -2.2012  -22.5066  -43.0135 C.3       12 UNK        -0.1800 
     72 C          -3.0810  -22.3769  -45.3862 C.2       12 UNK         0.5000 
     73 O          -4.2453  -21.9784  -45.4143 O.2       12 UNK        -0.5000 
     74 N          -2.5924  -23.3051  -46.2181 N.am      13 UNK        -0.5000 
     75 CA         -3.3586  -23.9846  -47.2655 C.3       13 UNK         0.1400 
     76 CB         -2.8389  -25.4281  -47.3789 C.3       13 UNK        -0.1800 
     77 C          -3.2903  -23.2712  -48.6330 C.2       13 UNK         0.5000 
     78 O          -3.8498  -23.7867  -49.6008 O.2       13 UNK        -0.5000 
     79 N          -2.5872  -22.1307  -48.7131 N.am      14 UNK        -0.5000 
     80 CA         -2.3076  -21.4108  -49.9575 C.3       14 UNK         0.1400 
     81 CB         -1.3128  -20.2791  -49.6705 C.3       14 UNK        -0.1800 
     82 C          -3.5438  -20.8182  -50.6474 C.2       14 UNK         0.5000 
     83 O          -3.5827  -20.7798  -51.8784 O.2       14 UNK        -0.5000 
     84 N          -4.4843  -20.2997  -49.8413 N.am      15 UNK        -0.5000 
     85 CA         -5.6836  -19.5528  -50.2499 C.3       15 UNK         0.1400 
     86 CB         -6.7207  -20.5066  -50.8715 C.3       15 UNK        -0.1800 
     87 C          -5.3586  -18.3557  -51.1728 C.2       15 UNK         0.5000 
     88 O          -6.0760  -18.1072  -52.1431 O.2       15 UNK        -0.5000 
     89 N          -4.2267  -17.6893  -50.8920 N.am      16 UNK        -0.5000 
     90 CA         -3.6128  -16.6010  -51.6667 C.3       16 UNK         0.1400 
     91 CB         -4.4828  -15.3295  -51.5867 C.3       16 UNK        -0.1800 
     92 C          -3.2678  -16.9892  -53.1246 C.2       16 UNK         0.5000 
     93 O          -3.2054  -16.1141  -53.9887 O.2       16 UNK        -0.5000 
     94 N          -3.0842  -18.2971  -53.3722 N.am      17 UNK        -0.5000 
     95 CA         -2.9034  -18.9561  -54.6705 C.3       17 UNK         0.1400 
     96 CB         -1.6368  -18.4485  -55.3918 C.3       17 UNK        -0.1800 
     97 C          -4.1548  -18.9190  -55.5767 C.2       17 UNK         0.5000 
     98 O          -4.0507  -19.2709  -56.7523 O.2       17 UNK        -0.5000 
     99 N          -5.3107  -18.5137  -55.0308 N.am      18 UNK        -0.5000 
    100 CA        -6.5687  -18.3680  -55.7545 C.3       18 UNK         0.1400 
    101 CB        -7.3410  -17.1557  -55.1989 C.3       18 UNK        -0.1800 
    102 C         -7.3705  -19.6782  -55.6984 C.2       18 UNK         0.5000 
    103 O         -7.2085  -20.5218  -56.5799 O.2       18 UNK        -0.5000 
    104 N         -8.2207  -19.8327  -54.6732 N.am      19 UNK        -0.5000 
    105 CA        -9.2133  -20.9084  -54.5541 C.3       19 UNK         0.1400 
    106 CB       -10.1054  -20.6364  -53.3336 C.3       19 UNK        -0.1800 
    107 C         -8.6231  -22.3302  -54.4839 C.2       19 UNK         0.5000 
    108 O         -9.2556  -23.2729  -54.9611 O.2       19 UNK        -0.5000 
    109 N         -7.4212  -22.4540  -53.9088 N.am      20 UNK        -0.5000 
    110 CA        -6.6730  -23.7088  -53.8067 C.3       20 UNK         0.1400 
    111 CB        -5.8822  -23.7044  -52.4881 C.3       20 UNK        -0.1800 
    112 C         -5.7205  -23.9327  -54.9976 C.2       20 UNK         0.5000 
    113 O         -5.0555  -24.9688  -55.0404 O.2       20 UNK        -0.5000 
    114 N         -5.6122  -22.9487  -55.9072 N.am      21 UNK        -0.5000 
    115 CA        -4.7063  -22.9001  -57.0653 C.3       21 UNK         0.1400 
    116 CB        -5.1407  -23.9300  -58.1280 C.3       21 UNK        -0.1800 
    117 C         -3.2104  -23.0284  -56.6920 C.2       21 UNK         0.5000 
    118 O         -2.4032  -23.4645  -57.5140 O.2       21 UNK        -0.5000 
    119 N         -2.8786  -22.6627  -55.4461 N.am      22 UNK        -0.5000 
    120 CA        -1.5782  -22.8579  -54.7879 C.3       22 UNK         0.1400 
    121 C         -1.2456  -24.3414  -54.4326 C.2       22 UNK         0.5000 
    122 N         -2.1939  -25.2706  -54.4801 N.am      22 UNK        -0.7600 
    123 O         -0.1155  -24.6592  -54.0747 O.2       22 UNK        -0.5000 
    124 C124       -0.4145  -22.1247  -55.5282 C.3       23 UNK        -0.0398 
    125 S125        0.9582  -21.4243  -54.5310 S.3       23 UNK        -0.2404 
    126 C126        0.2400  -21.1072  -52.8916 C.3       23 UNK        -0.0205 
    127 H127        3.0724  -11.7124  -46.6915 H         1 UNK         0.0600 
    128 H128        2.1831  -11.7428  -45.1668 H         1 UNK         0.0600 
    129 H129        3.6005  -12.7757  -45.3843 H         1 UNK         0.0600 
    130 H130        2.0812  -12.8628  -48.3148 H         1 UNK         0.3000 
    131 H131        1.2326  -15.5261  -48.1286 H         1 UNK         0.0600 
    132 H132        1.9478  -14.1822  -50.2431 H         1 UNK         0.0800 
    133 H133        0.3187  -13.5898  -50.3183 H         1 UNK         0.0800 
    134 H134        2.8203  -16.2273  -50.7560 H         1 UNK         0.0800 
    135 H135        2.1868  -16.3319  -52.3820 H         1 UNK         0.0800 
    136 H136        0.6209  -18.4149  -52.8721 H         1 UNK         0.1150 
    137 H137        1.8916  -22.0109  -50.9173 H         1 UNK         0.1150 
    138 H138        3.3630  -18.2059  -49.5922 H         1 UNK         0.1150 
    139 H139        4.5364  -21.0334  -49.3857 H         1 UNK         0.0800 
    140 H140        3.1115  -21.9042  -48.8731 H         1 UNK         0.0800 
    141 H141        1.6159  -19.0267  -46.4319 H         1 UNK         0.0800 
    142 H142        1.1935  -19.8402  -47.9014 H         1 UNK         0.0800 
    143 H143        1.3625  -22.0462  -46.7791 H         1 UNK         0.0600 
    144 H144        1.9298  -20.6267  -44.2067 H         1 UNK         0.3000 
    145 H145        4.2002  -23.1883  -43.2074 H         1 UNK         0.0600 
    146 H146        5.4610  -21.1335  -42.5878 H         1 UNK         0.0600 
    147 H147        5.5595  -21.4291  -44.3179 H         1 UNK         0.0600 
    148 H148        4.4912  -20.1746  -43.7044 H         1 UNK         0.0600 
    149 H149        2.7379  -20.8625  -42.1181 H         1 UNK         0.3000 
    150 H150        0.2867  -22.0084  -40.9152 H         1 UNK         0.0600 
    151 H151        0.5956  -24.0389  -39.5853 H         1 UNK         0.0600 
    152 H152        0.4169  -22.6698  -38.5019 H         1 UNK         0.0600 
    153 H153        2.0105  -23.3700  -38.7869 H         1 UNK         0.0600 
    154 H154        1.0065  -20.0773  -40.1962 H         1 UNK         0.3000 
    155 H155        3.2564  -18.8979  -37.9644 H         1 UNK         0.0600 
    156 H156        5.1065  -18.9948  -39.6341 H         1 UNK         0.0600 
    157 H157        4.3982  -17.3892  -39.5908 H         1 UNK         0.0600 
    158 H158        4.0063  -18.4915  -40.9106 H         1 UNK         0.0600 
    159 H159        1.8945  -17.5318  -40.1017 H         1 UNK         0.3000 
    160 H160       -1.3775  -17.7049  -38.6897 H         1 UNK         0.0600 
    161 H161        0.5488  -15.3565  -39.1057 H         1 UNK         0.0600 
    162 H162       -1.2101  -15.2483  -39.0862 H         1 UNK         0.0600 
    163 H163       -0.3399  -15.7102  -37.6303 H         1 UNK         0.0600 
    164 H164       -0.4715  -16.5327  -41.1016 H         1 UNK         0.3000 
    165 H165       -0.5504  -19.4747  -43.1463 H         1 UNK         0.0600 
    166 H166       -2.0312  -18.0705  -44.4767 H         1 UNK         0.0600 
    167 H167       -2.8876  -18.5712  -43.0301 H         1 UNK         0.0600 
    168 H168       -2.2591  -16.9348  -43.1443 H         1 UNK         0.0600 
    169 H169        0.1695  -16.6292  -43.3630 H         1 UNK         0.3000 
    170 H170        3.6147  -17.1783  -42.9890 H         1 UNK         0.0600 
    171 H171        3.5370  -17.9359  -45.3144 H         1 UNK         0.0600 
    172 H172        2.2403  -16.8052  -45.6984 H         1 UNK         0.0600 
    173 H173        3.8468  -16.2096  -45.2878 H         1 UNK         0.0600 
    174 H174        1.9914  -14.9821  -43.9720 H         1 UNK         0.3000 
    175 H175        1.3229  -13.6427  -40.7150 H         1 UNK         0.0600 
    176 H176        3.2643  -12.6758  -42.8795 H         1 UNK         0.0600 
    177 H177        2.5094  -11.6733  -41.6400 H         1 UNK         0.0600 
    178 H178        3.6635  -12.9159  -41.1838 H         1 UNK         0.0600 
    179 H179        0.7657  -12.5122  -43.2124 H         1 UNK         0.3000 
    180 H180       -2.5486  -13.4456  -43.2341 H         1 UNK         0.0600 
    181 H181       -1.2404  -11.2959  -43.3652 H         1 UNK         0.0600 
    182 H182       -0.3892  -11.9025  -44.7890 H         1 UNK         0.0600 
    183 H183       -2.1217  -11.6249  -44.8458 H         1 UNK         0.0600 
    184 H184       -0.6722  -14.5316  -45.2782 H         1 UNK         0.3000 
    185 H185       -2.4703  -16.7601  -46.3315 H         1 UNK         0.0600 
    186 H186       -4.5341  -15.9164  -47.3377 H         1 UNK         0.0600 
    187 H187       -3.6772  -14.6046  -48.1336 H         1 UNK         0.0600 
    188 H188       -3.3808  -16.2747  -48.6103 H         1 UNK         0.0600 
    189 H189       -0.5208  -16.3840  -47.2680 H         1 UNK         0.3000 
    190 H190       -0.0525  -22.3717  -44.3009 H         1 UNK         0.3000 
    191 H191       -2.4005  -20.7418  -44.2064 H         1 UNK         0.0600 
    192 H192       -3.2357  -22.5505  -42.6704 H         1 UNK         0.0600 
    193 H193       -1.6322  -21.9870  -42.2438 H         1 UNK         0.0600 
    194 H194       -1.8317  -23.5307  -43.0771 H         1 UNK         0.0600 
    195 H195       -1.6230  -23.5706  -46.1245 H         1 UNK         0.3000 
    196 H196       -4.4114  -24.0288  -46.9791 H         1 UNK         0.0600 
    197 H197       -3.4172  -25.9998  -48.1059 H         1 UNK         0.0600 
    198 H198       -2.9163  -25.9508  -46.4253 H         1 UNK         0.0600 
    199 H199       -1.7951  -25.4567  -47.6941 H         1 UNK         0.0600 
    200 H200       -2.1743  -21.7535  -47.8706 H         1 UNK         0.3000 
    201 H201       -1.8451  -22.1106  -50.6564 H         1 UNK         0.0600 
    202 H202       -1.6838  -19.5954  -48.9068 H         1 UNK         0.0600 
    203 H203       -1.1210  -19.6821  -50.5618 H         1 UNK         0.0600 
    204 H204       -0.3600  -20.6811  -49.3322 H         1 UNK         0.0600 
    205 H205       -4.3425  -20.3898  -48.8450 H         1 UNK         0.3000 
    206 H206       -6.1169  -19.1333  -49.3409 H         1 UNK         0.0600 
    207 H207       -6.3815  -20.8838  -51.8346 H         1 UNK         0.0600 
    208 H208       -6.9151  -21.3605  -50.2227 H         1 UNK         0.0600 
    209 H209       -7.6702  -19.9961  -51.0326 H         1 UNK         0.0600 
    210 H210       -3.6995  -17.9984  -50.0886 H         1 UNK         0.3000 
    211 H211       -2.6611  -16.3804  -51.1817 H         1 UNK         0.0600 
    212 H212       -5.4240  -15.4500  -52.1242 H         1 UNK         0.0600 
    213 H213       -3.9659  -14.4725  -52.0199 H         1 UNK         0.0600 
    214 H214       -4.7177  -15.0746  -50.5537 H         1 UNK         0.0600 
    215 H215       -3.2093  -18.9441  -52.6010 H         1 UNK         0.3000 
    216 H216       -2.7425  -20.0088  -54.4412 H         1 UNK         0.0600 
    217 H217       -1.7255  -17.4043  -55.6904 H         1 UNK         0.0600 
    218 H218       -1.4431  -19.0214  -56.2986 H         1 UNK         0.0600 
    219 H219       -0.7562  -18.5439  -54.7585 H         1 UNK         0.0600 
    220 H220       -5.3380  -18.2873  -54.0420 H         1 UNK         0.3000 
    221 H221       -6.3644  -18.1613  -56.8073 H         1 UNK         0.0600 
    222 H222       -7.5418  -17.2385  -54.1312 H         1 UNK         0.0600 
    223 H223       -6.7775  -16.2353  -55.3534 H         1 UNK         0.0600 
    224 H224       -8.2986  -17.0364  -55.7073 H         1 UNK         0.0600 
    225 H225       -8.2628  -19.1032  -53.9757 H         1 UNK         0.3000 
    226 H226       -9.8422  -20.8673  -55.4459 H         1 UNK         0.0600 
    227 H227      -10.6015  -19.6689  -53.4134 H         1 UNK         0.0600 
    228 H228      -10.8860  -21.3931  -53.2441 H         1 UNK         0.0600 
    229 H229       -9.5334  -20.6462  -52.4059 H         1 UNK         0.0600 
    230 H230       -6.9748  -21.6231  -53.5503 H         1 UNK         0.3000 
    231 H231       -7.3661  -24.5522  -53.7804 H         1 UNK         0.0600 
    232 H232       -5.1270  -22.9188  -52.4717 H         1 UNK         0.0600 
    233 H233       -6.5393  -23.5572  -51.6310 H         1 UNK         0.0600 
    234 H234       -5.3650  -24.6525  -52.3350 H         1 UNK         0.0600 
    235 H235       -6.2292  -22.1478  -55.8241 H         1 UNK         0.3000 
    236 H236       -4.8235  -21.9069  -57.5009 H         1 UNK         0.0600 
    237 H237       -6.1939  -23.8112  -58.3827 H         1 UNK         0.0600 
    238 H238       -4.5705  -23.8080  -59.0495 H         1 UNK         0.0600 
    239 H239       -4.9917  -24.9538  -57.7839 H         1 UNK         0.0600 
    240 H240       -3.6242  -22.3440  -54.8458 H         1 UNK         0.3000 
    241 H241       -1.7495  -22.3891  -53.8240 H         1 UNK         0.0600 
    242 H242       -1.9587  -26.2194  -54.2370 H         1 UNK         0.3800 
    243 H243       -3.1472  -25.0523  -54.7544 H         1 UNK         0.3800 
    244 H244       -0.8206  -21.2831  -56.0885 H         1 UNK         0.0800 
    245 H245        0.0184  -22.7776  -56.2880 H         1 UNK         0.0800 
    246 H246       -0.6968  -20.5588  -53.0001 H         1 UNK         0.0800 
    247 H247        0.0031  -22.0569  -52.4099 H         1 UNK         0.0800 
@<TRIPOS>BOND
     1    1    2 1    
     2    1  127 1    
     3    1  128 1    
     4    1  129 1    
     5    2    3 2    
     6    2    4 am   BACKBONE|DICT|INTERRES
     7    4    5 1    
     8    4  130 1    
     9    5    6 1    
    10    5   65 1    
    11    5  131 1    
    12    6    7 1    
    13    6  132 1    
    14    6  133 1    
    15    7    8 1    
    16    8    9 1    
    17    8  134 1    
    18    8  135 1    
    19    9   10 ar   
    20    9   14 ar   
    21   10   11 ar   
    22   10  136 1    
    23   11   12 ar   
    24   11  126 1    
    25   12   13 ar   
    26   12  137 1    
    27   13   14 ar   
    28   13   15 1    
    29   14  138 1    
    30   15   16 1    
    31   15  139 1    
    32   15  140 1    
    33   16   17 1    
    34   17   18 1    
    35   17  141 1    
    36   17  142 1    
    37   18   19 1    
    38   18   67 1    
    39   18  143 1    
    40   19   20 am   BACKBONE|DICT|INTERRES
    41   19  144 1    
    42   20   21 2    
    43   20   22 1    
    44   22   23 1    
    45   22   24 1    
    46   22  145 1    
    47   23  146 1    
    48   23  147 1    
    49   23  148 1    
    50   24   25 am   BACKBONE|DICT|INTERRES
    51   24  149 1    
    52   25   26 2    
    53   25   27 1    
    54   27   28 1    
    55   27   29 1    
    56   27  150 1    
    57   28  151 1    
    58   28  152 1    
    59   28  153 1    
    60   29   30 am   BACKBONE|DICT|INTERRES
    61   29  154 1    
    62   30   31 2    
    63   30   32 1    
    64   32   33 1    
    65   32   34 1    
    66   32  155 1    
    67   33  156 1    
    68   33  157 1    
    69   33  158 1    
    70   34   35 am   BACKBONE|DICT|INTERRES
    71   34  159 1    
    72   35   36 2    
    73   35   37 1    
    74   37   38 1    
    75   37   39 1    
    76   37  160 1    
    77   38  161 1    
    78   38  162 1    
    79   38  163 1    
    80   39   40 am   BACKBONE|DICT|INTERRES
    81   39  164 1    
    82   40   41 2    
    83   40   42 1    
    84   42   43 1    
    85   42   44 1    
    86   42  165 1    
    87   43  166 1    
    88   43  167 1    
    89   43  168 1    
    90   44   45 am   BACKBONE|DICT|INTERRES
    91   44  169 1    
    92   45   46 2    
    93   45   47 1    
    94   47   48 1    
    95   47   49 1    
    96   47  170 1    
    97   48  171 1    
    98   48  172 1    
    99   48  173 1    
   100   49   50 am   BACKBONE|DICT|INTERRES
   101   49  174 1    
   102   50   51 2    
   103   50   52 1    
   104   52   53 1    
   105   52   54 1    
   106   52  175 1    
   107   53  176 1    
   108   53  177 1    
   109   53  178 1    
   110   54   55 am   BACKBONE|DICT|INTERRES
   111   54  179 1    
   112   55   56 2    
   113   55   57 1    
   114   57   58 1    
   115   57   59 1    
   116   57  180 1    
   117   58  181 1    
   118   58  182 1    
   119   58  183 1    
   120   59   60 am   BACKBONE|DICT|INTERRES
   121   59  184 1    
   122   60   61 2    
   123   60   62 1    
   124   62   63 1    
   125   62   64 1    
   126   62  185 1    
   127   63  186 1    
   128   63  187 1    
   129   63  188 1    
   130   64   65 am   BACKBONE|DICT|INTERRES
   131   64  189 1    
   132   65   66 2    
   133   67   68 2    
   134   67   69 am   BACKBONE|DICT|INTERRES
   135   69   70 1    
   136   69  190 1    
   137   70   71 1    
   138   70   72 1    
   139   70  191 1    
   140   71  192 1    
   141   71  193 1    
   142   71  194 1    
   143   72   73 2    
   144   72   74 am   BACKBONE|DICT|INTERRES
   145   74   75 1    
   146   74  195 1    
   147   75   76 1    
   148   75   77 1    
   149   75  196 1    
   150   76  197 1    
   151   76  198 1    
   152   76  199 1    
   153   77   78 2    
   154   77   79 am   BACKBONE|DICT|INTERRES
   155   79   80 1    
   156   79  200 1    
   157   80   81 1    
   158   80   82 1    
   159   80  201 1    
   160   81  202 1    
   161   81  203 1    
   162   81  204 1    
   163   82   83 2    
   164   82   84 am   BACKBONE|DICT|INTERRES
   165   84   85 1    
   166   84  205 1    
   167   85   86 1    
   168   85   87 1    
   169   85  206 1    
   170   86  207 1    
   171   86  208 1    
   172   86  209 1    
   173   87   88 2    
   174   87   89 am   BACKBONE|DICT|INTERRES
   175   89   90 1    
   176   89  210 1    
   177   90   91 1    
   178   90   92 1    
   179   90  211 1    
   180   91  212 1    
   181   91  213 1    
   182   91  214 1    
   183   92   93 2    
   184   92   94 am   BACKBONE|DICT|INTERRES
   185   94   95 1    
   186   94  215 1    
   187   95   96 1    
   188   95   97 1    
   189   95  216 1    
   190   96  217 1    
   191   96  218 1    
   192   96  219 1    
   193   97   98 2    
   194   97   99 am   BACKBONE|DICT|INTERRES
   195   99  100 1    
   196   99  220 1    
   197  100  101 1    
   198  100  102 1    
   199  100  221 1    
   200  101  222 1    
   201  101  223 1    
   202  101  224 1    
   203  102  103 2    
   204  102  104 am   BACKBONE|DICT|INTERRES
   205  104  105 1    
   206  104  225 1    
   207  105  106 1    
   208  105  107 1    
   209  105  226 1    
   210  106  227 1    
   211  106  228 1    
   212  106  229 1    
   213  107  108 2    
   214  107  109 am   BACKBONE|DICT|INTERRES
   215  109  110 1    
   216  109  230 1    
   217  110  111 1    
   218  110  112 1    
   219  110  231 1    
   220  111  232 1    
   221  111  233 1    
   222  111  234 1    
   223  112  113 2    
   224  112  114 am   BACKBONE|DICT|INTERRES
   225  114  115 1    
   226  114  235 1    
   227  115  116 1    
   228  115  117 1    
   229  115  236 1    
   230  116  237 1    
   231  116  238 1    
   232  116  239 1    
   233  117  118 2    
   234  117  119 am   BACKBONE|DICT|INTERRES
   235  119  120 1    
   236  119  240 1    
   237  120  121 1    
   238  120  124 1    
   239  120  241 1    
   240  121  122 am   BACKBONE|DICT|INTERRES
   241  121  123 2    
   242  122  242 1    
   243  122  243 1    
   244  124  125 1    
   245  124  244 1    
   246  124  245 1    
   247  125  126 1    
   248  126  246 1    
   249  126  247 1    
@<TRIPOS>SUBSTRUCTURE
     1 UNK         1 GROUP             0       ****    0 ROOT    
