@<TRIPOS>MOLECULE
3R540
247   249    1
SMALL
USER_CHARGES


@<TRIPOS>ATOM
      1 CA         -1.7575  -16.0138  -45.6368 C.3       0 UNK        -0.1800 
      2 C          -1.0735  -15.3706  -46.8330 C.2       0 UNK         0.5000 
      3 O           0.0538  -14.8874  -46.7177 O.2       0 UNK        -0.5000 
      4 N          -1.7699  -15.3467  -47.9771 N.am      1 UNK        -0.5000 
      5 CA         -1.3633  -14.7960  -49.2807 C.3       1 UNK         0.1400 
      6 C6         -0.0937  -15.4480  -49.8914 C.3       23 UNK        -0.0398 
      7 S7         -0.2401  -17.2550  -50.0894 S.3       23 UNK        -0.2404 
      8 C8          1.0795  -17.5741  -51.2967 C.3       23 UNK        -0.0205 
      9 C9          1.7413  -18.9195  -51.0479 C.ar      23 UNK        -0.0193 
     10 C10         1.2676  -20.0734  -51.6797 C.ar      23 UNK        -0.1150 
     11 C11         1.9018  -21.3026  -51.4735 C.ar      23 UNK        -0.0193 
     12 C12         3.0174  -21.3675  -50.6360 C.ar      23 UNK        -0.1150 
     13 C13         3.4827  -20.2279  -49.9755 C.ar      23 UNK        -0.0193 
     14 C14         2.8412  -19.0051  -50.1890 C.ar      23 UNK        -0.1150 
     15 C15         4.6887  -20.3114  -49.0493 C.3       23 UNK        -0.0205 
     16 S16         4.5331  -21.6185  -47.7872 S.3       23 UNK        -0.2404 
     17 C17         3.1682  -20.9965  -46.7505 C.3       23 UNK        -0.0398 
     18 CA          2.0441  -22.0504  -46.5546 C.3       11 UNK         0.1400 
     19 N           1.5164  -22.0311  -45.1877 N.am      11 UNK        -0.5000 
     20 C           0.7797  -23.0060  -44.6379 C.2       10 UNK         0.5000 
     21 O           0.5391  -24.0756  -45.1960 O.2       10 UNK        -0.5000 
     22 CA          0.1857  -22.7321  -43.2428 C.3       10 UNK         0.1400 
     23 CB          1.1641  -23.1666  -42.1416 C.3       10 UNK        -0.1800 
     24 N          -0.1814  -21.3286  -43.0449 N.am      10 UNK        -0.5000 
     25 C          -1.1510  -20.6946  -43.7195 C.2       9 UNK         0.5000 
     26 O          -1.8872  -21.2485  -44.5355 O.2       9 UNK        -0.5000 
     27 CA         -1.2875  -19.1784  -43.4829 C.3       9 UNK         0.1400 
     28 CB         -2.1291  -18.8885  -42.2324 C.3       9 UNK        -0.1800 
     29 N           0.0040  -18.4967  -43.3750 N.am      9 UNK        -0.5000 
     30 C           0.9236  -18.4409  -44.3495 C.2       8 UNK         0.5000 
     31 O           0.7724  -18.9389  -45.4631 O.2       8 UNK        -0.5000 
     32 CA          2.2643  -17.7761  -44.0011 C.3       8 UNK         0.1400 
     33 CB          2.1641  -16.2461  -44.0754 C.3       8 UNK        -0.1800 
     34 N           2.7355  -18.1846  -42.6789 N.am      8 UNK        -0.5000 
     35 C           3.1805  -19.4155  -42.3879 C.2       7 UNK         0.5000 
     36 O           3.2856  -20.3180  -43.2180 O.2       7 UNK        -0.5000 
     37 CA          3.5253  -19.6948  -40.9138 C.3       7 UNK         0.1400 
     38 CB          4.9566  -19.2372  -40.5960 C.3       7 UNK        -0.1800 
     39 N           2.5927  -19.0489  -39.9888 N.am      7 UNK        -0.5000 
     40 C           1.2970  -19.3726  -39.8715 C.2       6 UNK         0.5000 
     41 O           0.7608  -20.2826  -40.5018 O.2       6 UNK        -0.5000 
     42 CA          0.4487  -18.4983  -38.9297 C.3       6 UNK         0.1400 
     43 CB          0.5195  -19.0288  -37.4902 C.3       6 UNK        -0.1800 
     44 N           0.8397  -17.0857  -38.9490 N.am      6 UNK        -0.5000 
     45 C           0.7558  -16.2895  -40.0229 C.2       5 UNK         0.5000 
     46 O           0.3616  -16.6699  -41.1276 O.2       5 UNK        -0.5000 
     47 CA          1.2659  -14.8485  -39.8446 C.3       5 UNK         0.1400 
     48 CB          2.7406  -14.7557  -40.2677 C.3       5 UNK        -0.1800 
     49 N           0.4946  -13.8736  -40.6152 N.am      5 UNK        -0.5000 
     50 C          -0.7962  -13.5710  -40.4160 C.2       4 UNK         0.5000 
     51 O          -1.4892  -14.0957  -39.5427 O.2       4 UNK        -0.5000 
     52 CA         -1.4136  -12.4715  -41.3059 C.3       4 UNK         0.1400 
     53 CB         -1.8849  -11.2844  -40.4485 C.3       4 UNK        -0.1800 
     54 N          -0.4813  -11.9655  -42.3189 N.am      4 UNK        -0.5000 
     55 C          -0.4224  -12.3982  -43.5832 C.2       3 UNK         0.5000 
     56 O          -1.1536  -13.2765  -44.0426 O.2       3 UNK        -0.5000 
     57 CA          0.6460  -11.7435  -44.4706 C.3       3 UNK         0.1400 
     58 CB          2.0263  -12.3722  -44.2188 C.3       3 UNK        -0.1800 
     59 N           0.2975  -11.9172  -45.8792 N.am      3 UNK        -0.5000 
     60 C           0.3305  -10.9483  -46.8048 C.2       2 UNK         0.5000 
     61 O           0.6745   -9.7916  -46.5549 O.2       2 UNK        -0.5000 
     62 CA         -0.0779  -11.3038  -48.2490 C.3       2 UNK         0.1400 
     63 CB          0.9975  -10.8764  -49.2659 C.3       2 UNK        -0.1800 
     64 N          -0.3614  -12.7278  -48.4175 N.am      2 UNK        -0.5000 
     65 C          -1.2461  -13.2565  -49.2681 C.2       1 UNK         0.5000 
     66 O          -1.9561  -12.5871  -50.0199 O.2       1 UNK        -0.5000 
     67 C           0.9000  -21.8955  -47.5807 C.2       11 UNK         0.5000 
     68 O           0.7787  -22.7067  -48.4999 O.2       11 UNK        -0.5000 
     69 N           0.0365  -20.8951  -47.3499 N.am      12 UNK        -0.5000 
     70 CA         -1.1336  -20.5547  -48.1613 C.3       12 UNK         0.1400 
     71 CB         -1.7766  -19.2784  -47.6028 C.3       12 UNK        -0.1800 
     72 C          -2.1964  -21.6627  -48.2496 C.2       12 UNK         0.5000 
     73 O          -2.9948  -21.6502  -49.1865 O.2       12 UNK        -0.5000 
     74 N          -2.2021  -22.6092  -47.3010 N.am      13 UNK        -0.5000 
     75 CA         -3.0823  -23.7808  -47.2793 C.3       13 UNK         0.1400 
     76 CB         -2.8127  -24.5993  -46.0096 C.3       13 UNK        -0.1800 
     77 C          -2.9494  -24.6657  -48.5357 C.2       13 UNK         0.5000 
     78 O          -3.9509  -25.2062  -49.0043 O.2       13 UNK        -0.5000 
     79 N          -1.7382  -24.7293  -49.1077 N.am      14 UNK        -0.5000 
     80 CA         -1.4435  -25.3976  -50.3791 C.3       14 UNK         0.1400 
     81 CB          0.0500  -25.7566  -50.4168 C.3       14 UNK        -0.1800 
     82 C          -1.8880  -24.5955  -51.6255 C.2       14 UNK         0.5000 
     83 O          -1.7657  -25.1003  -52.7426 O.2       14 UNK        -0.5000 
     84 N          -2.4153  -23.3814  -51.4190 N.am      15 UNK        -0.5000 
     85 CA         -3.1261  -22.5627  -52.4012 C.3       15 UNK         0.1400 
     86 CB         -2.4310  -21.1925  -52.5159 C.3       15 UNK        -0.1800 
     87 C          -4.6127  -22.4146  -52.0128 C.2       15 UNK         0.5000 
     88 O          -5.2573  -21.4539  -52.4326 O.2       15 UNK        -0.5000 
     89 N          -5.1322  -23.3414  -51.1903 N.am      16 UNK        -0.5000 
     90 CA         -6.5003  -23.3827  -50.6589 C.3       16 UNK         0.1400 
     91 CB         -7.5183  -23.6240  -51.7947 C.3       16 UNK        -0.1800 
     92 C          -6.8402  -22.1472  -49.7978 C.2       16 UNK         0.5000 
     93 O          -7.9165  -21.5692  -49.9435 O.2       16 UNK        -0.5000 
     94 N          -5.8880  -21.7436  -48.9437 N.am      17 UNK        -0.5000 
     95 CA         -5.8867  -20.5194  -48.1311 C.3       17 UNK         0.1400 
     96 CB         -7.0473  -20.5071  -47.1143 C.3       17 UNK        -0.1800 
     97 C          -5.8203  -19.2540  -49.0118 C.2       17 UNK         0.5000 
     98 O          -6.4897  -18.2594  -48.7302 O.2       17 UNK        -0.5000 
     99 N          -5.0139  -19.3444  -50.0801 N.am      18 UNK        -0.5000 
    100 CA        -4.7925  -18.3511  -51.1372 C.3       18 UNK         0.1400 
    101 CB        -4.1498  -17.0731  -50.5623 C.3       18 UNK        -0.1800 
    102 C         -6.0339  -18.0530  -52.0090 C.2       18 UNK         0.5000 
    103 O         -6.0565  -17.0332  -52.7006 O.2       18 UNK        -0.5000 
    104 N         -7.0379  -18.9407  -51.9855 N.am      19 UNK        -0.5000 
    105 CA        -8.2376  -18.8533  -52.8206 C.3       19 UNK         0.1400 
    106 CB        -9.3833  -19.6169  -52.1403 C.3       19 UNK        -0.1800 
    107 C         -8.0084  -19.3968  -54.2439 C.2       19 UNK         0.5000 
    108 O         -8.7495  -19.0263  -55.1557 O.2       19 UNK        -0.5000 
    109 N         -7.0048  -20.2649  -54.4076 N.am      20 UNK        -0.5000 
    110 CA        -6.5988  -20.8864  -55.6632 C.3       20 UNK         0.1400 
    111 CB        -6.8609  -22.4005  -55.5524 C.3       20 UNK        -0.1800 
    112 C         -5.1124  -20.5884  -55.9312 C.2       20 UNK         0.5000 
    113 O         -4.4800  -19.8364  -55.1855 O.2       20 UNK        -0.5000 
    114 N         -4.5720  -21.1862  -56.9993 N.am      21 UNK        -0.5000 
    115 CA        -3.1370  -21.2148  -57.2800 C.3       21 UNK         0.1400 
    116 CB        -2.9249  -21.5901  -58.7549 C.3       21 UNK        -0.1800 
    117 C         -2.4265  -22.2244  -56.3582 C.2       21 UNK         0.5000 
    118 O         -3.0306  -23.2296  -55.9764 O.2       21 UNK        -0.5000 
    119 N         -1.1580  -21.9461  -56.0365 N.am      22 UNK        -0.5000 
    120 CA        -0.2792  -22.8114  -55.2358 C.3       22 UNK         0.1400 
    121 C         -0.0085  -24.1762  -55.9319 C.2       22 UNK         0.5000 
    122 N         -0.3541  -25.2869  -55.2940 N.am      22 UNK        -0.7600 
    123 O          0.5303  -24.2282  -57.0353 O.2       22 UNK        -0.5000 
    124 C124        1.0240  -22.0518  -54.8670 C.3       23 UNK        -0.0398 
    125 S125        2.1184  -22.9499  -53.7142 S.3       23 UNK        -0.2404 
    126 C126        1.3682  -22.5798  -52.1007 C.3       23 UNK        -0.0205 
    127 H127       -2.5252  -15.3497  -45.2404 H         1 UNK         0.0600 
    128 H128       -1.0376  -16.2068  -44.8420 H         1 UNK         0.0600 
    129 H129       -2.2275  -16.9562  -45.9136 H         1 UNK         0.0600 
    130 H130       -2.7006  -15.7379  -47.9688 H         1 UNK         0.3000 
    131 H131       -2.1895  -15.0232  -49.9552 H         1 UNK         0.0600 
    132 H132        0.7865  -15.2439  -49.2800 H         1 UNK         0.0800 
    133 H133        0.1083  -15.0150  -50.8729 H         1 UNK         0.0800 
    134 H134        0.6632  -17.5334  -52.3043 H         1 UNK         0.0800 
    135 H135        1.8334  -16.7869  -51.2446 H         1 UNK         0.0800 
    136 H136        0.4046  -20.0093  -52.3248 H         1 UNK         0.1150 
    137 H137        3.5089  -22.3165  -50.4741 H         1 UNK         0.1150 
    138 H138        3.1998  -18.1146  -49.6920 H         1 UNK         0.1150 
    139 H139        5.5750  -20.5117  -49.6525 H         1 UNK         0.0800 
    140 H140        4.8657  -19.3574  -48.5500 H         1 UNK         0.0800 
    141 H141        2.7824  -20.0533  -47.1423 H         1 UNK         0.0800 
    142 H142        3.6203  -20.7426  -45.7917 H         1 UNK         0.0800 
    143 H143        2.4735  -23.0439  -46.7022 H         1 UNK         0.0600 
    144 H144        1.6903  -21.1944  -44.6459 H         1 UNK         0.3000 
    145 H145       -0.7218  -23.3320  -43.1474 H         1 UNK         0.0600 
    146 H146        0.7203  -23.0516  -41.1526 H         1 UNK         0.0600 
    147 H147        1.4393  -24.2159  -42.2546 H         1 UNK         0.0600 
    148 H148        2.0834  -22.5809  -42.1656 H         1 UNK         0.0600 
    149 H149        0.3291  -20.8206  -42.3285 H         1 UNK         0.3000 
    150 H150       -1.8099  -18.7581  -44.3428 H         1 UNK         0.0600 
    151 H151       -3.1222  -19.3307  -42.3205 H         1 UNK         0.0600 
    152 H152       -2.2607  -17.8161  -42.0853 H         1 UNK         0.0600 
    153 H153       -1.6678  -19.2957  -41.3332 H         1 UNK         0.0600 
    154 H154        0.1937  -18.0135  -42.5011 H         1 UNK         0.3000 
    155 H155        3.0006  -18.0999  -44.7400 H         1 UNK         0.0600 
    156 H156        1.9024  -15.9296  -45.0852 H         1 UNK         0.0600 
    157 H157        1.4027  -15.8489  -43.4040 H         1 UNK         0.0600 
    158 H158        3.1144  -15.7745  -43.8256 H         1 UNK         0.0600 
    159 H159        2.6243  -17.5180  -41.9302 H         1 UNK         0.3000 
    160 H160        3.4678  -20.7741  -40.7568 H         1 UNK         0.0600 
    161 H161        5.0712  -18.1585  -40.7106 H         1 UNK         0.0600 
    162 H162        5.6757  -19.7165  -41.2617 H         1 UNK         0.0600 
    163 H163        5.2364  -19.4985  -39.5753 H         1 UNK         0.0600 
    164 H164        2.9532  -18.2912  -39.4283 H         1 UNK         0.3000 
    165 H165       -0.5884  -18.5615  -39.2645 H         1 UNK         0.0600 
    166 H166       -0.1441  -18.4694  -36.8305 H         1 UNK         0.0600 
    167 H167        0.2138  -20.0751  -37.4448 H         1 UNK         0.0600 
    168 H168        1.5300  -18.9642  -37.0848 H         1 UNK         0.0600 
    169 H169        1.1841  -16.7035  -38.0799 H         1 UNK         0.3000 
    170 H170        1.1875  -14.5774  -38.7897 H         1 UNK         0.0600 
    171 H171        2.8718  -14.9826  -41.3263 H         1 UNK         0.0600 
    172 H172        3.1398  -13.7572  -40.0884 H         1 UNK         0.0600 
    173 H173        3.3576  -15.4554  -39.7025 H         1 UNK         0.0600 
    174 H174        0.9746  -13.4165  -41.3741 H         1 UNK         0.3000 
    175 H175       -2.2913  -12.9051  -41.7898 H         1 UNK         0.0600 
    176 H176       -2.3579  -10.5182  -41.0631 H         1 UNK         0.0600 
    177 H177       -1.0563  -10.8207  -39.9119 H         1 UNK         0.0600 
    178 H178       -2.6199  -11.6011  -39.7074 H         1 UNK         0.0600 
    179 H179        0.1510  -11.2373  -42.0174 H         1 UNK         0.3000 
    180 H180        0.6851  -10.6833  -44.2118 H         1 UNK         0.0600 
    181 H181        2.7949  -11.8803  -44.8152 H         1 UNK         0.0600 
    182 H182        2.0340  -13.4311  -44.4763 H         1 UNK         0.0600 
    183 H183        2.3215  -12.2826  -43.1728 H         1 UNK         0.0600 
    184 H184       -0.0570  -12.8382  -46.1102 H         1 UNK         0.3000 
    185 H185       -0.9882  -10.7352  -48.4496 H         1 UNK         0.0600 
    186 H186        1.2126   -9.8099  -49.1906 H         1 UNK         0.0600 
    187 H187        1.9328  -11.4140  -49.1060 H         1 UNK         0.0600 
    188 H188        0.6725  -11.0662  -50.2890 H         1 UNK         0.0600 
    189 H189        0.1420  -13.3727  -47.8135 H         1 UNK         0.3000 
    190 H190        0.2326  -20.2627  -46.5759 H         1 UNK         0.3000 
    191 H191       -0.7815  -20.3529  -49.1750 H         1 UNK         0.0600 
    192 H192       -1.0460  -18.4750  -47.5155 H         1 UNK         0.0600 
    193 H193       -2.5742  -18.9244  -48.2561 H         1 UNK         0.0600 
    194 H194       -2.2092  -19.4458  -46.6169 H         1 UNK         0.0600 
    195 H195       -1.5578  -22.5078  -46.5279 H         1 UNK         0.3000 
    196 H196       -4.1103  -23.4169  -47.2350 H         1 UNK         0.0600 
    197 H197       -3.5194  -25.4253  -45.9217 H         1 UNK         0.0600 
    198 H198       -2.9142  -23.9862  -45.1135 H         1 UNK         0.0600 
    199 H199       -1.8098  -25.0265  -46.0130 H         1 UNK         0.0600 
    200 H200       -0.9748  -24.2144  -48.6842 H         1 UNK         0.3000 
    201 H201       -2.0027  -26.3349  -50.4138 H         1 UNK         0.0600 
    202 H202        0.2686  -26.5650  -49.7190 H         1 UNK         0.0600 
    203 H203        0.6737  -24.9111  -50.1343 H         1 UNK         0.0600 
    204 H204        0.3636  -26.0915  -51.4065 H         1 UNK         0.0600 
    205 H205       -2.4597  -23.0254  -50.4700 H         1 UNK         0.3000 
    206 H206       -3.1129  -23.0430  -53.3791 H         1 UNK         0.0600 
    207 H207       -1.4180  -21.2922  -52.8932 H         1 UNK         0.0600 
    208 H208       -2.9524  -20.5389  -53.2134 H         1 UNK         0.0600 
    209 H209       -2.3808  -20.6763  -51.5576 H         1 UNK         0.0600 
    210 H210       -4.5256  -24.0825  -50.8630 H         1 UNK         0.3000 
    211 H211       -6.5440  -24.2425  -49.9889 H         1 UNK         0.0600 
    212 H212       -7.5809  -22.7736  -52.4743 H         1 UNK         0.0600 
    213 H213       -8.5180  -23.7923  -51.3929 H         1 UNK         0.0600 
    214 H214       -7.2531  -24.5027  -52.3824 H         1 UNK         0.0600 
    215 H215       -5.0003  -22.2291  -48.9729 H         1 UNK         0.3000 
    216 H216       -4.9600  -20.5345  -47.5563 H         1 UNK         0.0600 
    217 H217       -6.9419  -19.6756  -46.4167 H         1 UNK         0.0600 
    218 H218       -7.0648  -21.4240  -46.5254 H         1 UNK         0.0600 
    219 H219       -8.0173  -20.4001  -47.6000 H         1 UNK         0.0600 
    220 H220       -4.5198  -20.2185  -50.2057 H         1 UNK         0.3000 
    221 H221       -4.0659  -18.7996  -51.8148 H         1 UNK         0.0600 
    222 H222       -4.8475  -16.5102  -49.9421 H         1 UNK         0.0600 
    223 H223       -3.2777  -17.3132  -49.9560 H         1 UNK         0.0600 
    224 H224       -3.8149  -16.4109  -51.3613 H         1 UNK         0.0600 
    225 H225       -6.9408  -19.7674  -51.4110 H         1 UNK         0.3000 
    226 H226       -8.5353  -17.8061  -52.9053 H         1 UNK         0.0600 
    227 H227       -9.5408  -19.2702  -51.1187 H         1 UNK         0.0600 
    228 H228      -10.3196  -19.4759  -52.6814 H         1 UNK         0.0600 
    229 H229       -9.1860  -20.6888  -52.1055 H         1 UNK         0.0600 
    230 H230       -6.4016  -20.4790  -53.6164 H         1 UNK         0.3000 
    231 H231       -7.1730  -20.4831  -56.4993 H         1 UNK         0.0600 
    232 H232       -6.2268  -22.8624  -54.7943 H         1 UNK         0.0600 
    233 H233       -6.6702  -22.9110  -56.4965 H         1 UNK         0.0600 
    234 H234       -7.8984  -22.6012  -55.2844 H         1 UNK         0.0600 
    235 H235       -5.1434  -21.8114  -57.5482 H         1 UNK         0.3000 
    236 H236       -2.7199  -20.2198  -57.1094 H         1 UNK         0.0600 
    237 H237       -3.4101  -20.8738  -59.4181 H         1 UNK         0.0600 
    238 H238       -1.8638  -21.5990  -59.0073 H         1 UNK         0.0600 
    239 H239       -3.3233  -22.5804  -58.9801 H         1 UNK         0.0600 
    240 H240       -0.7294  -21.1188  -56.4247 H         1 UNK         0.3000 
    241 H241       -0.8097  -23.0184  -54.3067 H         1 UNK         0.0600 
    242 H242       -0.8349  -25.2498  -54.3978 H         1 UNK         0.3800 
    243 H243       -0.1805  -26.1801  -55.7264 H         1 UNK         0.3800 
    244 H244        0.7832  -21.0835  -54.4283 H         1 UNK         0.0800 
    245 H245        1.5977  -21.8333  -55.7693 H         1 UNK         0.0800 
    246 H246        1.5981  -23.4123  -51.4387 H         1 UNK         0.0800 
    247 H247        0.2836  -22.5518  -52.1741 H         1 UNK         0.0800 
@<TRIPOS>BOND
     1    1    2 1    
     2    1  127 1    
     3    1  128 1    
     4    1  129 1    
     5    2    3 2    
     6    2    4 am   BACKBONE|DICT|INTERRES
     7    4    5 1    
     8    4  130 1    
     9    5    6 1    
    10    5   65 1    
    11    5  131 1    
    12    6    7 1    
    13    6  132 1    
    14    6  133 1    
    15    7    8 1    
    16    8    9 1    
    17    8  134 1    
    18    8  135 1    
    19    9   10 ar   
    20    9   14 ar   
    21   10   11 ar   
    22   10  136 1    
    23   11   12 ar   
    24   11  126 1    
    25   12   13 ar   
    26   12  137 1    
    27   13   14 ar   
    28   13   15 1    
    29   14  138 1    
    30   15   16 1    
    31   15  139 1    
    32   15  140 1    
    33   16   17 1    
    34   17   18 1    
    35   17  141 1    
    36   17  142 1    
    37   18   19 1    
    38   18   67 1    
    39   18  143 1    
    40   19   20 am   BACKBONE|DICT|INTERRES
    41   19  144 1    
    42   20   21 2    
    43   20   22 1    
    44   22   23 1    
    45   22   24 1    
    46   22  145 1    
    47   23  146 1    
    48   23  147 1    
    49   23  148 1    
    50   24   25 am   BACKBONE|DICT|INTERRES
    51   24  149 1    
    52   25   26 2    
    53   25   27 1    
    54   27   28 1    
    55   27   29 1    
    56   27  150 1    
    57   28  151 1    
    58   28  152 1    
    59   28  153 1    
    60   29   30 am   BACKBONE|DICT|INTERRES
    61   29  154 1    
    62   30   31 2    
    63   30   32 1    
    64   32   33 1    
    65   32   34 1    
    66   32  155 1    
    67   33  156 1    
    68   33  157 1    
    69   33  158 1    
    70   34   35 am   BACKBONE|DICT|INTERRES
    71   34  159 1    
    72   35   36 2    
    73   35   37 1    
    74   37   38 1    
    75   37   39 1    
    76   37  160 1    
    77   38  161 1    
    78   38  162 1    
    79   38  163 1    
    80   39   40 am   BACKBONE|DICT|INTERRES
    81   39  164 1    
    82   40   41 2    
    83   40   42 1    
    84   42   43 1    
    85   42   44 1    
    86   42  165 1    
    87   43  166 1    
    88   43  167 1    
    89   43  168 1    
    90   44   45 am   BACKBONE|DICT|INTERRES
    91   44  169 1    
    92   45   46 2    
    93   45   47 1    
    94   47   48 1    
    95   47   49 1    
    96   47  170 1    
    97   48  171 1    
    98   48  172 1    
    99   48  173 1    
   100   49   50 am   BACKBONE|DICT|INTERRES
   101   49  174 1    
   102   50   51 2    
   103   50   52 1    
   104   52   53 1    
   105   52   54 1    
   106   52  175 1    
   107   53  176 1    
   108   53  177 1    
   109   53  178 1    
   110   54   55 am   BACKBONE|DICT|INTERRES
   111   54  179 1    
   112   55   56 2    
   113   55   57 1    
   114   57   58 1    
   115   57   59 1    
   116   57  180 1    
   117   58  181 1    
   118   58  182 1    
   119   58  183 1    
   120   59   60 am   BACKBONE|DICT|INTERRES
   121   59  184 1    
   122   60   61 2    
   123   60   62 1    
   124   62   63 1    
   125   62   64 1    
   126   62  185 1    
   127   63  186 1    
   128   63  187 1    
   129   63  188 1    
   130   64   65 am   BACKBONE|DICT|INTERRES
   131   64  189 1    
   132   65   66 2    
   133   67   68 2    
   134   67   69 am   BACKBONE|DICT|INTERRES
   135   69   70 1    
   136   69  190 1    
   137   70   71 1    
   138   70   72 1    
   139   70  191 1    
   140   71  192 1    
   141   71  193 1    
   142   71  194 1    
   143   72   73 2    
   144   72   74 am   BACKBONE|DICT|INTERRES
   145   74   75 1    
   146   74  195 1    
   147   75   76 1    
   148   75   77 1    
   149   75  196 1    
   150   76  197 1    
   151   76  198 1    
   152   76  199 1    
   153   77   78 2    
   154   77   79 am   BACKBONE|DICT|INTERRES
   155   79   80 1    
   156   79  200 1    
   157   80   81 1    
   158   80   82 1    
   159   80  201 1    
   160   81  202 1    
   161   81  203 1    
   162   81  204 1    
   163   82   83 2    
   164   82   84 am   BACKBONE|DICT|INTERRES
   165   84   85 1    
   166   84  205 1    
   167   85   86 1    
   168   85   87 1    
   169   85  206 1    
   170   86  207 1    
   171   86  208 1    
   172   86  209 1    
   173   87   88 2    
   174   87   89 am   BACKBONE|DICT|INTERRES
   175   89   90 1    
   176   89  210 1    
   177   90   91 1    
   178   90   92 1    
   179   90  211 1    
   180   91  212 1    
   181   91  213 1    
   182   91  214 1    
   183   92   93 2    
   184   92   94 am   BACKBONE|DICT|INTERRES
   185   94   95 1    
   186   94  215 1    
   187   95   96 1    
   188   95   97 1    
   189   95  216 1    
   190   96  217 1    
   191   96  218 1    
   192   96  219 1    
   193   97   98 2    
   194   97   99 am   BACKBONE|DICT|INTERRES
   195   99  100 1    
   196   99  220 1    
   197  100  101 1    
   198  100  102 1    
   199  100  221 1    
   200  101  222 1    
   201  101  223 1    
   202  101  224 1    
   203  102  103 2    
   204  102  104 am   BACKBONE|DICT|INTERRES
   205  104  105 1    
   206  104  225 1    
   207  105  106 1    
   208  105  107 1    
   209  105  226 1    
   210  106  227 1    
   211  106  228 1    
   212  106  229 1    
   213  107  108 2    
   214  107  109 am   BACKBONE|DICT|INTERRES
   215  109  110 1    
   216  109  230 1    
   217  110  111 1    
   218  110  112 1    
   219  110  231 1    
   220  111  232 1    
   221  111  233 1    
   222  111  234 1    
   223  112  113 2    
   224  112  114 am   BACKBONE|DICT|INTERRES
   225  114  115 1    
   226  114  235 1    
   227  115  116 1    
   228  115  117 1    
   229  115  236 1    
   230  116  237 1    
   231  116  238 1    
   232  116  239 1    
   233  117  118 2    
   234  117  119 am   BACKBONE|DICT|INTERRES
   235  119  120 1    
   236  119  240 1    
   237  120  121 1    
   238  120  124 1    
   239  120  241 1    
   240  121  122 am   BACKBONE|DICT|INTERRES
   241  121  123 2    
   242  122  242 1    
   243  122  243 1    
   244  124  125 1    
   245  124  244 1    
   246  124  245 1    
   247  125  126 1    
   248  126  246 1    
   249  126  247 1    
@<TRIPOS>SUBSTRUCTURE
     1 UNK         1 GROUP             0       ****    0 ROOT    
