@<TRIPOS>MOLECULE
3R540
247   249    1
SMALL
USER_CHARGES


@<TRIPOS>ATOM
      1 CA          7.6556  -14.2639  -48.7513 C.3       0 UNK        -0.1800 
      2 C           6.4478  -13.9612  -47.8763 C.2       0 UNK         0.5000 
      3 O           6.3071  -14.5443  -46.8025 O.2       0 UNK        -0.5000 
      4 N           5.5854  -13.0392  -48.3217 N.am      1 UNK        -0.5000 
      5 CA          4.3395  -12.6431  -47.6480 C.3       1 UNK         0.1400 
      6 C6          3.2543  -12.1767  -48.6525 C.3       23 UNK        -0.0398 
      7 S7          2.8175  -13.4674  -49.8647 S.3       23 UNK        -0.2404 
      8 C8          1.5542  -14.3819  -48.9278 C.3       23 UNK        -0.0205 
      9 C9          1.0312  -15.5718  -49.7138 C.ar      23 UNK        -0.0193 
     10 C10        -0.2569  -15.5504  -50.2573 C.ar      23 UNK        -0.1150 
     11 C11        -0.7453  -16.6518  -50.9654 C.ar      23 UNK        -0.0193 
     12 C12         0.0671  -17.7759  -51.1333 C.ar      23 UNK        -0.1150 
     13 C13         1.3586  -17.8059  -50.6018 C.ar      23 UNK        -0.0193 
     14 C14         1.8327  -16.7045  -49.8848 C.ar      23 UNK        -0.1150 
     15 C15         2.2416  -19.0260  -50.8122 C.3       23 UNK        -0.0205 
     16 S16         2.1994  -20.1510  -49.3845 S.3       23 UNK        -0.2404 
     17 C17         0.4404  -20.6298  -49.3679 C.3       23 UNK        -0.0398 
     18 CA          0.1757  -21.8284  -48.4335 C.3       11 UNK         0.1400 
     19 N           0.4142  -21.5099  -47.0220 N.am      11 UNK        -0.5000 
     20 C           0.4525  -22.4228  -46.0418 C.2       10 UNK         0.5000 
     21 O           0.3340  -23.6330  -46.2332 O.2       10 UNK        -0.5000 
     22 CA          0.5952  -21.8982  -44.6024 C.3       10 UNK         0.1400 
     23 CB          2.0587  -21.5598  -44.2830 C.3       10 UNK        -0.1800 
     24 N          -0.2562  -20.7367  -44.3410 N.am      10 UNK        -0.5000 
     25 C          -1.5967  -20.7605  -44.3690 C.2       9 UNK         0.5000 
     26 O          -2.2550  -21.7797  -44.5716 O.2       9 UNK        -0.5000 
     27 CA         -2.3286  -19.4182  -44.1883 C.3       9 UNK         0.1400 
     28 CB         -2.4309  -19.0445  -42.7026 C.3       9 UNK        -0.1800 
     29 N          -1.7000  -18.3256  -44.9298 N.am      9 UNK        -0.5000 
     30 C          -1.5747  -18.2817  -46.2642 C.2       8 UNK         0.5000 
     31 O          -2.0131  -19.1442  -47.0242 O.2       8 UNK        -0.5000 
     32 CA         -0.7779  -17.1009  -46.8424 C.3       8 UNK         0.1400 
     33 CB         -1.6564  -15.8453  -46.9509 C.3       8 UNK        -0.1800 
     34 N           0.4151  -16.8014  -46.0506 N.am      8 UNK        -0.5000 
     35 C           1.4600  -17.6315  -45.9210 C.2       7 UNK         0.5000 
     36 O           1.5308  -18.7339  -46.4614 O.2       7 UNK        -0.5000 
     37 CA          2.5849  -17.1712  -44.9775 C.3       7 UNK         0.1400 
     38 CB          3.4352  -16.0719  -45.6313 C.3       7 UNK        -0.1800 
     39 N           2.0664  -16.6816  -43.7005 N.am      7 UNK        -0.5000 
     40 C           1.4159  -17.4346  -42.8029 C.2       6 UNK         0.5000 
     41 O           1.2232  -18.6425  -42.9313 O.2       6 UNK        -0.5000 
     42 CA          0.8460  -16.7028  -41.5749 C.3       6 UNK         0.1400 
     43 CB          1.8927  -16.6329  -40.4533 C.3       6 UNK        -0.1800 
     44 N           0.3671  -15.3510  -41.8726 N.am      6 UNK        -0.5000 
     45 C          -0.6295  -15.0473  -42.7163 C.2       5 UNK         0.5000 
     46 O          -1.2147  -15.8919  -43.3951 O.2       5 UNK        -0.5000 
     47 CA         -1.0182  -13.5610  -42.8723 C.3       5 UNK         0.1400 
     48 CB         -2.5221  -13.3406  -42.6159 C.3       5 UNK        -0.1800 
     49 N          -0.2005  -12.6173  -42.0950 N.am      5 UNK        -0.5000 
     50 C          -0.1308  -12.4529  -40.7663 C.2       4 UNK         0.5000 
     51 O          -0.7737  -13.1240  -39.9584 O.2       4 UNK        -0.5000 
     52 CA          0.8810  -11.3953  -40.2710 C.3       4 UNK         0.1400 
     53 CB          0.8545  -11.2193  -38.7417 C.3       4 UNK        -0.1800 
     54 N           2.2527  -11.7140  -40.6822 N.am      4 UNK        -0.5000 
     55 C           2.7564  -11.5375  -41.9096 C.2       3 UNK         0.5000 
     56 O           2.1029  -11.0826  -42.8532 O.2       3 UNK        -0.5000 
     57 CA          4.2100  -11.9806  -42.1275 C.3       3 UNK         0.1400 
     58 CB          4.3074  -13.5138  -42.2331 C.3       3 UNK        -0.1800 
     59 N           4.7008  -11.3755  -43.3591 N.am      3 UNK        -0.5000 
     60 C           5.9722  -11.1042  -43.6631 C.2       2 UNK         0.5000 
     61 O           6.9190  -11.3619  -42.9171 O.2       2 UNK        -0.5000 
     62 CA          6.2155  -10.4572  -45.0452 C.3       2 UNK         0.1400 
     63 CB          7.6845  -10.0506  -45.2612 C.3       2 UNK        -0.1800 
     64 N           5.8133  -11.3455  -46.1376 N.am      2 UNK        -0.5000 
     65 C           4.5563  -11.5997  -46.5261 C.2       1 UNK         0.5000 
     66 O           3.5790  -11.0460  -46.0200 O.2       1 UNK        -0.5000 
     67 C          -1.2382  -22.3986  -48.6639 C.2       11 UNK         0.5000 
     68 O          -1.3773  -23.3748  -49.3995 O.2       11 UNK        -0.5000 
     69 N          -2.2543  -21.8194  -48.0080 N.am      12 UNK        -0.5000 
     70 CA         -3.6330  -22.3101  -48.0314 C.3       12 UNK         0.1400 
     71 CB         -4.5613  -21.3016  -47.3402 C.3       12 UNK        -0.1800 
     72 C          -3.7729  -23.7080  -47.4023 C.2       12 UNK         0.5000 
     73 O          -4.4728  -24.5515  -47.9610 O.2       12 UNK        -0.5000 
     74 N          -3.0758  -23.9476  -46.2826 N.am      13 UNK        -0.5000 
     75 CA         -2.9965  -25.2495  -45.6191 C.3       13 UNK         0.1400 
     76 CB         -2.2957  -25.1039  -44.2603 C.3       13 UNK        -0.1800 
     77 C          -2.3016  -26.3123  -46.4893 C.2       13 UNK         0.5000 
     78 O          -2.8076  -27.4297  -46.5930 O.2       13 UNK        -0.5000 
     79 N          -1.1935  -25.9362  -47.1450 N.am      14 UNK        -0.5000 
     80 CA         -0.4688  -26.7733  -48.1070 C.3       14 UNK         0.1400 
     81 CB          0.8453  -26.0836  -48.5023 C.3       14 UNK        -0.1800 
     82 C          -1.3049  -27.1168  -49.3564 C.2       14 UNK         0.5000 
     83 O          -1.2030  -28.2309  -49.8704 O.2       14 UNK        -0.5000 
     84 N          -2.1512  -26.1728  -49.7889 N.am      15 UNK        -0.5000 
     85 CA         -3.1409  -26.3388  -50.8549 C.3       15 UNK         0.1400 
     86 CB         -3.5153  -24.9507  -51.4042 C.3       15 UNK        -0.1800 
     87 C          -4.4050  -27.1092  -50.4132 C.2       15 UNK         0.5000 
     88 O          -5.2985  -27.3003  -51.2371 O.2       15 UNK        -0.5000 
     89 N          -4.4841  -27.5169  -49.1365 N.am      16 UNK        -0.5000 
     90 CA         -5.5971  -28.2280  -48.4964 C.3       16 UNK         0.1400 
     91 CB         -5.7512  -29.6465  -49.0839 C.3       16 UNK        -0.1800 
     92 C          -6.9131  -27.4205  -48.5041 C.2       16 UNK         0.5000 
     93 O          -7.9922  -27.9937  -48.6639 O.2       16 UNK        -0.5000 
     94 N          -6.7868  -26.0959  -48.3371 N.am      17 UNK        -0.5000 
     95 CA         -7.8452  -25.0818  -48.3280 C.3       17 UNK         0.1400 
     96 CB         -8.8175  -25.3042  -47.1506 C.3       17 UNK        -0.1800 
     97 C          -8.5680  -24.9090  -49.6817 C.2       17 UNK         0.5000 
     98 O          -9.6774  -24.3721  -49.7131 O.2       17 UNK        -0.5000 
     99 N          -7.9315  -25.3385  -50.7809 N.am      18 UNK        -0.5000 
    100 CA        -8.4064  -25.1225  -52.1469 C.3       18 UNK         0.1400 
    101 CB        -7.6104  -26.0198  -53.1061 C.3       18 UNK        -0.1800 
    102 C         -8.2812  -23.6462  -52.5687 C.2       18 UNK         0.5000 
    103 O         -7.4126  -22.9263  -52.0673 O.2       18 UNK        -0.5000 
    104 N         -9.1416  -23.2335  -53.5061 N.am      19 UNK        -0.5000 
    105 CA        -9.1229  -21.9091  -54.1258 C.3       19 UNK         0.1400 
    106 CB       -10.4337  -21.7126  -54.9045 C.3       19 UNK        -0.1800 
    107 C         -7.9089  -21.7220  -55.0569 C.2       19 UNK         0.5000 
    108 O         -7.3610  -22.7054  -55.5621 O.2       19 UNK        -0.5000 
    109 N         -7.5455  -20.4528  -55.2895 N.am      20 UNK        -0.5000 
    110 CA        -6.4509  -19.9955  -56.1540 C.3       20 UNK         0.1400 
    111 CB        -6.7347  -20.3339  -57.6334 C.3       20 UNK        -0.1800 
    112 C         -5.0634  -20.4721  -55.6736 C.2       20 UNK         0.5000 
    113 O         -4.2447  -20.9221  -56.4776 O.2       20 UNK        -0.5000 
    114 N         -4.8157  -20.3379  -54.3612 N.am      21 UNK        -0.5000 
    115 CA        -3.5198  -20.6036  -53.7221 C.3       21 UNK         0.1400 
    116 CB        -3.7016  -20.6196  -52.1947 C.3       21 UNK        -0.1800 
    117 C         -2.4193  -19.5996  -54.1337 C.2       21 UNK         0.5000 
    118 O         -1.2346  -19.9097  -54.0073 O.2       21 UNK        -0.5000 
    119 N         -2.8306  -18.4308  -54.6350 N.am      22 UNK        -0.5000 
    120 CA        -1.9945  -17.4042  -55.2615 C.3       22 UNK         0.1400 
    121 C         -2.8209  -16.5694  -56.2791 C.2       22 UNK         0.5000 
    122 N         -2.1719  -15.7464  -57.0917 N.am      22 UNK        -0.7600 
    123 O         -4.0462  -16.6630  -56.3476 O.2       22 UNK        -0.5000 
    124 C124       -1.2165  -16.5397  -54.2331 C.3       23 UNK        -0.0398 
    125 S125       -2.2683  -15.6177  -53.0518 S.3       23 UNK        -0.2404 
    126 C126       -2.1521  -16.6329  -51.5437 C.3       23 UNK        -0.0205 
    127 H127        7.6544  -13.6682  -49.6645 H         1 UNK         0.0600 
    128 H128        8.5760  -14.0517  -48.2074 H         1 UNK         0.0600 
    129 H129        7.6593  -15.3169  -49.0325 H         1 UNK         0.0600 
    130 H130        5.7600  -12.5886  -49.2090 H         1 UNK         0.3000 
    131 H131        3.9427  -13.5232  -47.1407 H         1 UNK         0.0600 
    132 H132        2.3410  -11.8732  -48.1373 H         1 UNK         0.0800 
    133 H133        3.5972  -11.2966  -49.1988 H         1 UNK         0.0800 
    134 H134        1.9776  -14.7362  -47.9882 H         1 UNK         0.0800 
    135 H135        0.7382  -13.7065  -48.6665 H         1 UNK         0.0800 
    136 H136       -0.8832  -14.6787  -50.1291 H         1 UNK         0.1150 
    137 H137       -0.3044  -18.6284  -51.6849 H         1 UNK         0.1150 
    138 H138        2.8283  -16.7259  -49.4640 H         1 UNK         0.1150 
    139 H139        1.9404  -19.5668  -51.7109 H         1 UNK         0.0800 
    140 H140        3.2714  -18.7074  -50.9802 H         1 UNK         0.0800 
    141 H141        0.1485  -20.8698  -50.3923 H         1 UNK         0.0800 
    142 H142       -0.1591  -19.7703  -49.0632 H         1 UNK         0.0800 
    143 H143        0.8770  -22.6200  -48.7068 H         1 UNK         0.0600 
    144 H144        0.5749  -20.5334  -46.7953 H         1 UNK         0.3000 
    145 H145        0.2810  -22.6973  -43.9279 H         1 UNK         0.0600 
    146 H146        2.1776  -21.2773  -43.2369 H         1 UNK         0.0600 
    147 H147        2.7064  -22.4186  -44.4636 H         1 UNK         0.0600 
    148 H148        2.4268  -20.7362  -44.8949 H         1 UNK         0.0600 
    149 H149        0.2180  -19.8675  -44.1156 H         1 UNK         0.3000 
    150 H150       -3.3419  -19.5377  -44.5769 H         1 UNK         0.0600 
    151 H151       -2.9549  -19.8194  -42.1418 H         1 UNK         0.0600 
    152 H152       -2.9814  -18.1135  -42.5659 H         1 UNK         0.0600 
    153 H153       -1.4474  -18.9216  -42.2502 H         1 UNK         0.0600 
    154 H154       -1.3492  -17.5442  -44.3828 H         1 UNK         0.3000 
    155 H155       -0.4532  -17.3807  -47.8466 H         1 UNK         0.0600 
    156 H156       -1.1046  -15.0119  -47.3845 H         1 UNK         0.0600 
    157 H157       -2.0327  -15.5271  -45.9782 H         1 UNK         0.0600 
    158 H158       -2.5188  -16.0314  -47.5920 H         1 UNK         0.0600 
    159 H159        0.4023  -15.9466  -45.5162 H         1 UNK         0.3000 
    160 H160        3.2276  -18.0317  -44.7798 H         1 UNK         0.0600 
    161 H161        2.8687  -15.1497  -45.7590 H         1 UNK         0.0600 
    162 H162        3.7924  -16.3809  -46.6149 H         1 UNK         0.0600 
    163 H163        4.3129  -15.8413  -45.0270 H         1 UNK         0.0600 
    164 H164        2.1713  -15.6973  -43.5097 H         1 UNK         0.3000 
    165 H165       -0.0050  -17.2806  -41.2101 H         1 UNK         0.0600 
    166 H166        2.7684  -16.0570  -40.7532 H         1 UNK         0.0600 
    167 H167        1.4791  -16.1741  -39.5549 H         1 UNK         0.0600 
    168 H168        2.2358  -17.6313  -40.1785 H         1 UNK         0.0600 
    169 H169        0.7695  -14.5982  -41.3353 H         1 UNK         0.3000 
    170 H170       -0.8290  -13.3174  -43.9187 H         1 UNK         0.0600 
    171 H171       -3.1261  -13.9359  -43.3019 H         1 UNK         0.0600 
    172 H172       -2.8090  -13.6249  -41.6033 H         1 UNK         0.0600 
    173 H173       -2.7992  -12.2970  -42.7642 H         1 UNK         0.0600 
    174 H174        0.4279  -12.0366  -42.6450 H         1 UNK         0.3000 
    175 H175        0.5926  -10.4410  -40.7171 H         1 UNK         0.0600 
    176 H176        1.5299  -10.4243  -38.4250 H         1 UNK         0.0600 
    177 H177       -0.1445  -10.9503  -38.3958 H         1 UNK         0.0600 
    178 H178        1.1471  -12.1339  -38.2244 H         1 UNK         0.0600 
    179 H179        2.8431  -12.1179  -39.9692 H         1 UNK         0.3000 
    180 H180        4.8073  -11.6273  -41.2844 H         1 UNK         0.0600 
    181 H181        3.7107  -13.8972  -43.0616 H         1 UNK         0.0600 
    182 H182        3.9560  -13.9942  -41.3199 H         1 UNK         0.0600 
    183 H183        5.3373  -13.8350  -42.3892 H         1 UNK         0.0600 
    184 H184        3.9739  -11.1241  -44.0253 H         1 UNK         0.3000 
    185 H185        5.6107   -9.5489  -45.0896 H         1 UNK         0.0600 
    186 H186        7.8159   -9.5416  -46.2163 H         1 UNK         0.0600 
    187 H187        8.0196   -9.3653  -44.4814 H         1 UNK         0.0600 
    188 H188        8.3491  -10.9154  -45.2481 H         1 UNK         0.0600 
    189 H189        6.5518  -11.8743  -46.5779 H         1 UNK         0.3000 
    190 H190       -2.0783  -20.9787  -47.4631 H         1 UNK         0.3000 
    191 H191       -3.9397  -22.3857  -49.0766 H         1 UNK         0.0600 
    192 H192       -4.5182  -20.3283  -47.8294 H         1 UNK         0.0600 
    193 H193       -5.5982  -21.6384  -47.3751 H         1 UNK         0.0600 
    194 H194       -4.2962  -21.1609  -46.2925 H         1 UNK         0.0600 
    195 H195       -2.5739  -23.1807  -45.8431 H         1 UNK         0.3000 
    196 H196       -4.0178  -25.5897  -45.4355 H         1 UNK         0.0600 
    197 H197       -2.2486  -26.0616  -43.7408 H         1 UNK         0.0600 
    198 H198       -2.8322  -24.4091  -43.6139 H         1 UNK         0.0600 
    199 H199       -1.2748  -24.7381  -44.3680 H         1 UNK         0.0600 
    200 H200       -0.8086  -25.0127  -46.9650 H         1 UNK         0.3000 
    201 H201       -0.2216  -27.7124  -47.6078 H         1 UNK         0.0600 
    202 H202        1.4701  -25.8954  -47.6290 H         1 UNK         0.0600 
    203 H203        0.6666  -25.1292  -48.9973 H         1 UNK         0.0600 
    204 H204        1.4221  -26.7059  -49.1876 H         1 UNK         0.0600 
    205 H205       -2.1131  -25.2567  -49.3533 H         1 UNK         0.3000 
    206 H206       -2.6839  -26.9099  -51.6654 H         1 UNK         0.0600 
    207 H207       -4.1945  -25.0314  -52.2536 H         1 UNK         0.0600 
    208 H208       -4.0090  -24.3389  -50.6493 H         1 UNK         0.0600 
    209 H209       -2.6331  -24.4100  -51.7474 H         1 UNK         0.0600 
    210 H210       -3.7126  -27.2930  -48.5196 H         1 UNK         0.3000 
    211 H211       -5.3210  -28.3381  -47.4470 H         1 UNK         0.0600 
    212 H212       -6.0914  -29.6227  -50.1196 H         1 UNK         0.0600 
    213 H213       -6.4775  -30.2282  -48.5152 H         1 UNK         0.0600 
    214 H214       -4.8067  -30.1897  -49.0531 H         1 UNK         0.0600 
    215 H215       -5.8468  -25.7157  -48.2320 H         1 UNK         0.3000 
    216 H216       -7.3357  -24.1339  -48.1492 H         1 UNK         0.0600 
    217 H217       -8.2786  -25.4104  -46.2091 H         1 UNK         0.0600 
    218 H218       -9.4286  -26.1959  -47.2913 H         1 UNK         0.0600 
    219 H219       -9.4972  -24.4588  -47.0388 H         1 UNK         0.0600 
    220 H220       -7.0251  -25.7756  -50.6817 H         1 UNK         0.3000 
    221 H221       -9.4581  -25.4133  -52.1928 H         1 UNK         0.0600 
    222 H222       -6.5534  -25.7514  -53.1213 H         1 UNK         0.0600 
    223 H223       -7.6868  -27.0695  -52.8219 H         1 UNK         0.0600 
    224 H224       -7.9836  -25.9308  -54.1271 H         1 UNK         0.0600 
    225 H225       -9.7961  -23.8967  -53.8942 H         1 UNK         0.3000 
    226 H226       -9.0714  -21.1604  -53.3322 H         1 UNK         0.0600 
    227 H227      -11.3003  -21.8099  -54.2502 H         1 UNK         0.0600 
    228 H228      -10.4793  -20.7202  -55.3547 H         1 UNK         0.0600 
    229 H229      -10.5365  -22.4418  -55.7094 H         1 UNK         0.0600 
    230 H230       -8.0671  -19.7180  -54.8315 H         1 UNK         0.3000 
    231 H231       -6.4346  -18.9074  -56.0729 H         1 UNK         0.0600 
    232 H232       -7.7119  -19.9628  -57.9423 H         1 UNK         0.0600 
    233 H233       -6.7096  -21.4079  -57.8191 H         1 UNK         0.0600 
    234 H234       -5.9929  -19.8733  -58.2870 H         1 UNK         0.0600 
    235 H235       -5.5507  -19.9874  -53.7643 H         1 UNK         0.3000 
    236 H236       -3.1865  -21.5957  -54.0338 H         1 UNK         0.0600 
    237 H237       -2.7584  -20.8325  -51.6891 H         1 UNK         0.0600 
    238 H238       -4.0658  -19.6619  -51.8215 H         1 UNK         0.0600 
    239 H239       -4.4107  -21.3904  -51.8909 H         1 UNK         0.0600 
    240 H240       -3.8222  -18.2583  -54.7274 H         1 UNK         0.3000 
    241 H241       -1.2581  -17.9349  -55.8681 H         1 UNK         0.0600 
    242 H242       -1.1680  -15.6555  -57.0690 H         1 UNK         0.3800 
    243 H243       -2.7001  -15.2014  -57.7557 H         1 UNK         0.3800 
    244 H244       -0.5175  -17.1742  -53.6923 H         1 UNK         0.0800 
    245 H245       -0.5873  -15.8147  -54.7507 H         1 UNK         0.0800 
    246 H246       -2.8411  -16.2349  -50.7974 H         1 UNK         0.0800 
    247 H247       -2.4938  -17.6452  -51.7611 H         1 UNK         0.0800 
@<TRIPOS>BOND
     1    1    2 1    
     2    1  127 1    
     3    1  128 1    
     4    1  129 1    
     5    2    3 2    
     6    2    4 am   BACKBONE|DICT|INTERRES
     7    4    5 1    
     8    4  130 1    
     9    5    6 1    
    10    5   65 1    
    11    5  131 1    
    12    6    7 1    
    13    6  132 1    
    14    6  133 1    
    15    7    8 1    
    16    8    9 1    
    17    8  134 1    
    18    8  135 1    
    19    9   10 ar   
    20    9   14 ar   
    21   10   11 ar   
    22   10  136 1    
    23   11   12 ar   
    24   11  126 1    
    25   12   13 ar   
    26   12  137 1    
    27   13   14 ar   
    28   13   15 1    
    29   14  138 1    
    30   15   16 1    
    31   15  139 1    
    32   15  140 1    
    33   16   17 1    
    34   17   18 1    
    35   17  141 1    
    36   17  142 1    
    37   18   19 1    
    38   18   67 1    
    39   18  143 1    
    40   19   20 am   BACKBONE|DICT|INTERRES
    41   19  144 1    
    42   20   21 2    
    43   20   22 1    
    44   22   23 1    
    45   22   24 1    
    46   22  145 1    
    47   23  146 1    
    48   23  147 1    
    49   23  148 1    
    50   24   25 am   BACKBONE|DICT|INTERRES
    51   24  149 1    
    52   25   26 2    
    53   25   27 1    
    54   27   28 1    
    55   27   29 1    
    56   27  150 1    
    57   28  151 1    
    58   28  152 1    
    59   28  153 1    
    60   29   30 am   BACKBONE|DICT|INTERRES
    61   29  154 1    
    62   30   31 2    
    63   30   32 1    
    64   32   33 1    
    65   32   34 1    
    66   32  155 1    
    67   33  156 1    
    68   33  157 1    
    69   33  158 1    
    70   34   35 am   BACKBONE|DICT|INTERRES
    71   34  159 1    
    72   35   36 2    
    73   35   37 1    
    74   37   38 1    
    75   37   39 1    
    76   37  160 1    
    77   38  161 1    
    78   38  162 1    
    79   38  163 1    
    80   39   40 am   BACKBONE|DICT|INTERRES
    81   39  164 1    
    82   40   41 2    
    83   40   42 1    
    84   42   43 1    
    85   42   44 1    
    86   42  165 1    
    87   43  166 1    
    88   43  167 1    
    89   43  168 1    
    90   44   45 am   BACKBONE|DICT|INTERRES
    91   44  169 1    
    92   45   46 2    
    93   45   47 1    
    94   47   48 1    
    95   47   49 1    
    96   47  170 1    
    97   48  171 1    
    98   48  172 1    
    99   48  173 1    
   100   49   50 am   BACKBONE|DICT|INTERRES
   101   49  174 1    
   102   50   51 2    
   103   50   52 1    
   104   52   53 1    
   105   52   54 1    
   106   52  175 1    
   107   53  176 1    
   108   53  177 1    
   109   53  178 1    
   110   54   55 am   BACKBONE|DICT|INTERRES
   111   54  179 1    
   112   55   56 2    
   113   55   57 1    
   114   57   58 1    
   115   57   59 1    
   116   57  180 1    
   117   58  181 1    
   118   58  182 1    
   119   58  183 1    
   120   59   60 am   BACKBONE|DICT|INTERRES
   121   59  184 1    
   122   60   61 2    
   123   60   62 1    
   124   62   63 1    
   125   62   64 1    
   126   62  185 1    
   127   63  186 1    
   128   63  187 1    
   129   63  188 1    
   130   64   65 am   BACKBONE|DICT|INTERRES
   131   64  189 1    
   132   65   66 2    
   133   67   68 2    
   134   67   69 am   BACKBONE|DICT|INTERRES
   135   69   70 1    
   136   69  190 1    
   137   70   71 1    
   138   70   72 1    
   139   70  191 1    
   140   71  192 1    
   141   71  193 1    
   142   71  194 1    
   143   72   73 2    
   144   72   74 am   BACKBONE|DICT|INTERRES
   145   74   75 1    
   146   74  195 1    
   147   75   76 1    
   148   75   77 1    
   149   75  196 1    
   150   76  197 1    
   151   76  198 1    
   152   76  199 1    
   153   77   78 2    
   154   77   79 am   BACKBONE|DICT|INTERRES
   155   79   80 1    
   156   79  200 1    
   157   80   81 1    
   158   80   82 1    
   159   80  201 1    
   160   81  202 1    
   161   81  203 1    
   162   81  204 1    
   163   82   83 2    
   164   82   84 am   BACKBONE|DICT|INTERRES
   165   84   85 1    
   166   84  205 1    
   167   85   86 1    
   168   85   87 1    
   169   85  206 1    
   170   86  207 1    
   171   86  208 1    
   172   86  209 1    
   173   87   88 2    
   174   87   89 am   BACKBONE|DICT|INTERRES
   175   89   90 1    
   176   89  210 1    
   177   90   91 1    
   178   90   92 1    
   179   90  211 1    
   180   91  212 1    
   181   91  213 1    
   182   91  214 1    
   183   92   93 2    
   184   92   94 am   BACKBONE|DICT|INTERRES
   185   94   95 1    
   186   94  215 1    
   187   95   96 1    
   188   95   97 1    
   189   95  216 1    
   190   96  217 1    
   191   96  218 1    
   192   96  219 1    
   193   97   98 2    
   194   97   99 am   BACKBONE|DICT|INTERRES
   195   99  100 1    
   196   99  220 1    
   197  100  101 1    
   198  100  102 1    
   199  100  221 1    
   200  101  222 1    
   201  101  223 1    
   202  101  224 1    
   203  102  103 2    
   204  102  104 am   BACKBONE|DICT|INTERRES
   205  104  105 1    
   206  104  225 1    
   207  105  106 1    
   208  105  107 1    
   209  105  226 1    
   210  106  227 1    
   211  106  228 1    
   212  106  229 1    
   213  107  108 2    
   214  107  109 am   BACKBONE|DICT|INTERRES
   215  109  110 1    
   216  109  230 1    
   217  110  111 1    
   218  110  112 1    
   219  110  231 1    
   220  111  232 1    
   221  111  233 1    
   222  111  234 1    
   223  112  113 2    
   224  112  114 am   BACKBONE|DICT|INTERRES
   225  114  115 1    
   226  114  235 1    
   227  115  116 1    
   228  115  117 1    
   229  115  236 1    
   230  116  237 1    
   231  116  238 1    
   232  116  239 1    
   233  117  118 2    
   234  117  119 am   BACKBONE|DICT|INTERRES
   235  119  120 1    
   236  119  240 1    
   237  120  121 1    
   238  120  124 1    
   239  120  241 1    
   240  121  122 am   BACKBONE|DICT|INTERRES
   241  121  123 2    
   242  122  242 1    
   243  122  243 1    
   244  124  125 1    
   245  124  244 1    
   246  124  245 1    
   247  125  126 1    
   248  126  246 1    
   249  126  247 1    
@<TRIPOS>SUBSTRUCTURE
     1 UNK         1 GROUP             0       ****    0 ROOT    
