@<TRIPOS>MOLECULE
3R540
247   249    1
SMALL
USER_CHARGES


@<TRIPOS>ATOM
      1 CA          0.1838  -10.0799  -52.2219 C.3       0 UNK        -0.1800 
      2 C           1.3366  -10.4666  -51.3062 C.2       0 UNK         0.5000 
      3 O           2.4634  -10.0176  -51.5166 O.2       0 UNK        -0.5000 
      4 N           1.0590  -11.2969  -50.2927 N.am      1 UNK        -0.5000 
      5 CA          2.0402  -11.7884  -49.3154 C.3       1 UNK         0.1400 
      6 C6          1.5023  -12.9960  -48.5130 C.3       23 UNK        -0.0398 
      7 S7          1.0116  -14.4140  -49.5459 S.3       23 UNK        -0.2404 
      8 C8          1.1760  -15.7613  -48.3311 C.3       23 UNK        -0.0205 
      9 C9          0.4191  -17.0069  -48.7619 C.ar      23 UNK        -0.0193 
     10 C10        -0.9774  -16.9892  -48.8051 C.ar      23 UNK        -0.1150 
     11 C11        -1.6907  -18.1272  -49.1870 C.ar      23 UNK        -0.0193 
     12 C12        -1.0005  -19.2944  -49.5181 C.ar      23 UNK        -0.1150 
     13 C13         0.3947  -19.3306  -49.4613 C.ar      23 UNK        -0.0193 
     14 C14         1.1013  -18.1826  -49.0882 C.ar      23 UNK        -0.1150 
     15 C15         1.1364  -20.6135  -49.7952 C.3       23 UNK        -0.0205 
     16 S16         1.4442  -21.6102  -48.3047 S.3       23 UNK        -0.2404 
     17 C17        -0.2272  -22.2355  -47.9202 C.3       23 UNK        -0.0398 
     18 CA         -0.1585  -23.4834  -47.0101 C.3       11 UNK         0.1400 
     19 N           0.2486  -23.1388  -45.6450 N.am      11 UNK        -0.5000 
     20 C           0.5373  -24.0080  -44.6659 C.2       10 UNK         0.5000 
     21 O           0.5075  -25.2317  -44.8023 O.2       10 UNK        -0.5000 
     22 CA          0.8640  -23.3983  -43.2931 C.3       10 UNK         0.1400 
     23 CB          2.3111  -22.8828  -43.2471 C.3       10 UNK        -0.1800 
     24 N          -0.0591  -22.3065  -42.9810 N.am      10 UNK        -0.5000 
     25 C          -1.2760  -22.4792  -42.4464 C.2       9 UNK         0.5000 
     26 O          -1.7055  -23.5703  -42.0724 O.2       9 UNK        -0.5000 
     27 CA         -2.1739  -21.2338  -42.3100 C.3       9 UNK         0.1400 
     28 CB         -2.0456  -20.6297  -40.9038 C.3       9 UNK        -0.1800 
     29 N          -1.8838  -20.1982  -43.3019 N.am      9 UNK        -0.5000 
     30 C          -2.1809  -20.2885  -44.6068 C.2       8 UNK         0.5000 
     31 O          -2.7442  -21.2574  -45.1135 O.2       8 UNK        -0.5000 
     32 CA         -1.7255  -19.1203  -45.5045 C.3       8 UNK         0.1400 
     33 CB         -2.8045  -18.0291  -45.5395 C.3       8 UNK        -0.1800 
     34 N          -0.4519  -18.5258  -45.0896 N.am      8 UNK        -0.5000 
     35 C           0.6992  -19.1994  -44.9344 C.2       7 UNK         0.5000 
     36 O           0.8133  -20.4035  -45.1564 O.2       7 UNK        -0.5000 
     37 CA          1.9124  -18.4346  -44.3737 C.3       7 UNK         0.1400 
     38 CB          2.8861  -18.0838  -45.5070 C.3       7 UNK        -0.1800 
     39 N           1.5580  -17.2222  -43.6306 N.am      7 UNK        -0.5000 
     40 C           0.8272  -17.1981  -42.5031 C.2       6 UNK         0.5000 
     41 O           0.4043  -18.2147  -41.9506 O.2       6 UNK        -0.5000 
     42 CA          0.4674  -15.8194  -41.9078 C.3       6 UNK         0.1400 
     43 CB          1.3884  -15.4922  -40.7230 C.3       6 UNK        -0.1800 
     44 N           0.5246  -14.7153  -42.8685 N.am      6 UNK        -0.5000 
     45 C          -0.2099  -14.6135  -43.9855 C.2       5 UNK         0.5000 
     46 O          -1.0827  -15.4217  -44.3025 O.2       5 UNK        -0.5000 
     47 CA          0.1292  -13.4509  -44.9413 C.3       5 UNK         0.1400 
     48 CB         -0.8373  -12.2785  -44.7250 C.3       5 UNK        -0.1800 
     49 N           1.5146  -12.9614  -44.8627 N.am      5 UNK        -0.5000 
     50 C           2.6220  -13.7099  -45.0024 C.2       4 UNK         0.5000 
     51 O           2.5837  -14.9214  -45.2123 O.2       4 UNK        -0.5000 
     52 CA          3.9964  -13.0186  -44.8892 C.3       4 UNK         0.1400 
     53 CB          4.9289  -13.4287  -46.0421 C.3       4 UNK        -0.1800 
     54 N           3.9099  -11.5577  -44.8360 N.am      4 UNK        -0.5000 
     55 C           3.7356  -10.8441  -43.7140 C.2       3 UNK         0.5000 
     56 O           3.6180  -11.3543  -42.5995 O.2       3 UNK        -0.5000 
     57 CA          3.6621   -9.3085  -43.8488 C.3       3 UNK         0.1400 
     58 CB          5.0106   -8.6733  -43.4769 C.3       3 UNK        -0.1800 
     59 N           3.2728   -8.8440  -45.1824 N.am      3 UNK        -0.5000 
     60 C           2.0765   -9.0485  -45.7487 C.2       2 UNK         0.5000 
     61 O           1.1579   -9.6490  -45.1902 O.2       2 UNK        -0.5000 
     62 CA          1.8736   -8.5421  -47.1928 C.3       2 UNK         0.1400 
     63 CB          2.9935   -7.6069  -47.7027 C.3       2 UNK        -0.1800 
     64 N           1.6761   -9.6584  -48.1230 N.am      2 UNK        -0.5000 
     65 C           2.5083  -10.6916  -48.3325 C.2       1 UNK         0.5000 
     66 O           3.5967  -10.8163  -47.7689 O.2       1 UNK        -0.5000 
     67 C          -1.4755  -24.2825  -47.0585 C.2       11 UNK         0.5000 
     68 O          -1.6376  -25.0994  -47.9643 O.2       11 UNK        -0.5000 
     69 N          -2.3560  -24.1025  -46.0623 N.am      12 UNK        -0.5000 
     70 CA         -3.6251  -24.8138  -45.8604 C.3       12 UNK         0.1400 
     71 CB         -4.1908  -24.4257  -44.4862 C.3       12 UNK        -0.1800 
     72 C          -3.5589  -26.3533  -45.9744 C.2       12 UNK         0.5000 
     73 O          -4.5738  -26.9766  -46.2856 O.2       12 UNK        -0.5000 
     74 N          -2.3752  -26.9334  -45.7355 N.am      13 UNK        -0.5000 
     75 CA         -2.0909  -28.3611  -45.8492 C.3       13 UNK         0.1400 
     76 CB         -0.7054  -28.6327  -45.2433 C.3       13 UNK        -0.1800 
     77 C          -2.1645  -28.9259  -47.2844 C.2       13 UNK         0.5000 
     78 O          -2.4263  -30.1219  -47.4241 O.2       13 UNK        -0.5000 
     79 N          -1.9266  -28.1003  -48.3176 N.am      14 UNK        -0.5000 
     80 CA         -1.9070  -28.5533  -49.7160 C.3       14 UNK         0.1400 
     81 CB         -0.6020  -29.3156  -50.0208 C.3       14 UNK        -0.1800 
     82 C          -2.1062  -27.4131  -50.7259 C.2       14 UNK         0.5000 
     83 O          -2.9046  -27.5548  -51.6524 O.2       14 UNK        -0.5000 
     84 N          -1.3737  -26.3084  -50.5399 N.am      15 UNK        -0.5000 
     85 CA         -1.4171  -25.1075  -51.3824 C.3       15 UNK         0.1400 
     86 CB         -0.1541  -24.2741  -51.1055 C.3       15 UNK        -0.1800 
     87 C          -2.7033  -24.2664  -51.2198 C.2       15 UNK         0.5000 
     88 O          -3.0126  -23.4721  -52.1087 O.2       15 UNK        -0.5000 
     89 N          -3.4184  -24.4974  -50.1101 N.am      16 UNK        -0.5000 
     90 CA         -4.6791  -23.9097  -49.6536 C.3       16 UNK         0.1400 
     91 CB         -5.7418  -23.8623  -50.7673 C.3       16 UNK        -0.1800 
     92 C          -4.4973  -22.5374  -48.9819 C.2       16 UNK         0.5000 
     93 O          -3.5355  -21.8185  -49.2551 O.2       16 UNK        -0.5000 
     94 N          -5.4484  -22.2087  -48.0972 N.am      17 UNK        -0.5000 
     95 CA         -5.5208  -20.9312  -47.3813 C.3       17 UNK         0.1400 
     96 CB         -6.2524  -21.1486  -46.0482 C.3       17 UNK        -0.1800 
     97 C          -6.2177  -19.8275  -48.2025 C.2       17 UNK         0.5000 
     98 O          -6.1256  -18.6555  -47.8388 O.2       17 UNK        -0.5000 
     99 N          -6.8890  -20.2150  -49.2910 N.am      18 UNK        -0.5000 
    100 CA        -7.5093  -19.3546  -50.2879 C.3       18 UNK         0.1400 
    101 CB        -8.8643  -18.8300  -49.7820 C.3       18 UNK        -0.1800 
    102 C         -7.6753  -20.1967  -51.5589 C.2       18 UNK         0.5000 
    103 O         -7.9347  -21.3984  -51.4502 O.2       18 UNK        -0.5000 
    104 N         -7.5204  -19.5571  -52.7262 N.am      19 UNK        -0.5000 
    105 CA        -7.4878  -20.1686  -54.0625 C.3       19 UNK         0.1400 
    106 CB        -8.8611  -20.7812  -54.4179 C.3       19 UNK        -0.1800 
    107 C         -6.3137  -21.1620  -54.2381 C.2       19 UNK         0.5000 
    108 O         -5.3622  -21.1328  -53.4557 O.2       19 UNK        -0.5000 
    109 N         -6.3766  -21.9985  -55.2840 N.am      20 UNK        -0.5000 
    110 CA        -5.3615  -22.9806  -55.6807 C.3       20 UNK         0.1400 
    111 CB        -5.3160  -24.1582  -54.6834 C.3       20 UNK        -0.1800 
    112 C         -3.9925  -22.3157  -55.9413 C.2       20 UNK         0.5000 
    113 O         -3.8495  -21.6475  -56.9668 O.2       20 UNK        -0.5000 
    114 N         -3.0259  -22.4936  -55.0305 N.am      21 UNK        -0.5000 
    115 CA        -1.6853  -21.9130  -55.1252 C.3       21 UNK         0.1400 
    116 CB        -0.6548  -22.9717  -54.7049 C.3       21 UNK        -0.1800 
    117 C         -1.5288  -20.6142  -54.3070 C.2       21 UNK         0.5000 
    118 O         -0.4701  -19.9894  -54.3895 O.2       21 UNK        -0.5000 
    119 N         -2.5588  -20.2114  -53.5491 N.am      22 UNK        -0.5000 
    120 CA        -2.6302  -18.9120  -52.8638 C.3       22 UNK         0.1400 
    121 C         -2.7168  -17.7390  -53.8832 C.2       22 UNK         0.5000 
    122 N         -1.8976  -16.7072  -53.7310 N.am      22 UNK        -0.7600 
    123 O         -3.5427  -17.7464  -54.7938 O.2       22 UNK        -0.5000 
    124 C124       -3.8127  -18.8915  -51.8628 C.3       23 UNK        -0.0398 
    125 S125       -3.8536  -17.4303  -50.7690 S.3       23 UNK        -0.2404 
    126 C126       -3.2069  -18.1001  -49.2097 C.3       23 UNK        -0.0205 
    127 H127       -0.7506  -10.5538  -51.9202 H         1 UNK         0.0600 
    128 H128        0.4017  -10.3809  -53.2467 H         1 UNK         0.0600 
    129 H129        0.0381   -8.9998  -52.2062 H         1 UNK         0.0600 
    130 H130        0.1207  -11.6569  -50.1895 H         1 UNK         0.3000 
    131 H131        2.9234  -12.1188  -49.8666 H         1 UNK         0.0600 
    132 H132        2.2657  -13.3447  -47.8181 H         1 UNK         0.0800 
    133 H133        0.6421  -12.7004  -47.9107 H         1 UNK         0.0800 
    134 H134        2.2352  -15.9770  -48.1826 H         1 UNK         0.0800 
    135 H135        0.7887  -15.4430  -47.3638 H         1 UNK         0.0800 
    136 H136       -1.5095  -16.0852  -48.5439 H         1 UNK         0.1150 
    137 H137       -1.5504  -20.1788  -49.8079 H         1 UNK         0.1150 
    138 H138        2.1809  -18.2105  -49.0413 H         1 UNK         0.1150 
    139 H139        0.5799  -21.1977  -50.5288 H         1 UNK         0.0800 
    140 H140        2.0930  -20.3737  -50.2616 H         1 UNK         0.0800 
    141 H141       -0.8066  -21.4454  -47.4437 H         1 UNK         0.0800 
    142 H142       -0.7399  -22.4535  -48.8580 H         1 UNK         0.0800 
    143 H143        0.6067  -24.1527  -47.4093 H         1 UNK         0.0600 
    144 H144        0.3623  -22.1446  -45.4570 H         1 UNK         0.3000 
    145 H145        0.7647  -24.1839  -42.5408 H         1 UNK         0.0600 
    146 H146        2.5499  -22.4684  -42.2675 H         1 UNK         0.0600 
    147 H147        3.0167  -23.6920  -43.4386 H         1 UNK         0.0600 
    148 H148        2.4943  -22.1078  -43.9916 H         1 UNK         0.0600 
    149 H149        0.1988  -21.3878  -43.3166 H         1 UNK         0.3000 
    150 H150       -3.2078  -21.5574  -42.4487 H         1 UNK         0.0600 
    151 H151       -2.2957  -21.3652  -40.1382 H         1 UNK         0.0600 
    152 H152       -2.7206  -19.7836  -40.7742 H         1 UNK         0.0600 
    153 H153       -1.0305  -20.2826  -40.7065 H         1 UNK         0.0600 
    154 H154       -1.3777  -19.3859  -42.9727 H         1 UNK         0.3000 
    155 H155       -1.5953  -19.5031  -46.5171 H         1 UNK         0.0600 
    156 H156       -2.5128  -17.2061  -46.1915 H         1 UNK         0.0600 
    157 H157       -2.9888  -17.6147  -44.5475 H         1 UNK         0.0600 
    158 H158       -3.7501  -18.4240  -45.9131 H         1 UNK         0.0600 
    159 H159       -0.4694  -17.5387  -44.8644 H         1 UNK         0.3000 
    160 H160        2.4255  -19.1057  -43.6820 H         1 UNK         0.0600 
    161 H161        2.4219  -17.4242  -46.2392 H         1 UNK         0.0600 
    162 H162        3.2101  -18.9811  -46.0361 H         1 UNK         0.0600 
    163 H163        3.7788  -17.5883  -45.1253 H         1 UNK         0.0600 
    164 H164        1.8595  -16.3446  -44.0438 H         1 UNK         0.3000 
    165 H165       -0.5582  -15.8842  -41.5391 H         1 UNK         0.0600 
    166 H166        2.4272  -15.3878  -41.0388 H         1 UNK         0.0600 
    167 H167        1.0901  -14.5641  -40.2349 H         1 UNK         0.0600 
    168 H168        1.3516  -16.2801  -39.9693 H         1 UNK         0.0600 
    169 H169        1.2230  -14.0067  -42.6981 H         1 UNK         0.3000 
    170 H170       -0.0291  -13.8274  -45.9514 H         1 UNK         0.0600 
    171 H171       -1.8750  -12.6148  -44.7378 H         1 UNK         0.0600 
    172 H172       -0.6622  -11.7839  -43.7688 H         1 UNK         0.0600 
    173 H173       -0.7330  -11.5337  -45.5139 H         1 UNK         0.0600 
    174 H174        1.6269  -11.9687  -44.7041 H         1 UNK         0.3000 
    175 H175        4.4495  -13.3809  -43.9642 H         1 UNK         0.0600 
    176 H176        4.5202  -13.1590  -47.0149 H         1 UNK         0.0600 
    177 H177        5.9051  -12.9532  -45.9466 H         1 UNK         0.0600 
    178 H178        5.0960  -14.5066  -46.0475 H         1 UNK         0.0600 
    179 H179        3.9579  -11.0740  -45.7270 H         1 UNK         0.3000 
    180 H180        2.9112   -8.9559  -43.1387 H         1 UNK         0.0600 
    181 H181        4.9506   -7.5848  -43.4861 H         1 UNK         0.0600 
    182 H182        5.3205   -8.9713  -42.4743 H         1 UNK         0.0600 
    183 H183        5.8001   -8.9732  -44.1672 H         1 UNK         0.0600 
    184 H184        3.9830   -8.3698  -45.7210 H         1 UNK         0.3000 
    185 H185        0.9441   -7.9710  -47.1869 H         1 UNK         0.0600 
    186 H186        3.1119   -6.7412  -47.0497 H         1 UNK         0.0600 
    187 H187        3.9585   -8.1103  -47.7702 H         1 UNK         0.0600 
    188 H188        2.7552   -7.2262  -48.6960 H         1 UNK         0.0600 
    189 H189        0.7958   -9.6627  -48.6178 H         1 UNK         0.3000 
    190 H190       -2.1634  -23.3594  -45.4020 H         1 UNK         0.3000 
    191 H191       -4.3163  -24.4598  -46.6240 H         1 UNK         0.0600 
    192 H192       -5.1878  -24.8434  -44.3406 H         1 UNK         0.0600 
    193 H193       -4.2722  -23.3457  -44.3743 H         1 UNK         0.0600 
    194 H194       -3.5593  -24.7951  -43.6776 H         1 UNK         0.0600 
    195 H195       -1.5937  -26.3387  -45.4926 H         1 UNK         0.3000 
    196 H196       -2.8330  -28.8948  -45.2519 H         1 UNK         0.0600 
    197 H197       -0.4627  -29.6956  -45.2777 H         1 UNK         0.0600 
    198 H198       -0.6637  -28.3240  -44.1985 H         1 UNK         0.0600 
    199 H199        0.0788  -28.0980  -45.7812 H         1 UNK         0.0600 
    200 H200       -1.7773  -27.1123  -48.1398 H         1 UNK         0.3000 
    201 H201       -2.7435  -29.2401  -49.8645 H         1 UNK         0.0600 
    202 H202       -0.5223  -30.2266  -49.4279 H         1 UNK         0.0600 
    203 H203        0.2772  -28.7047  -49.8131 H         1 UNK         0.0600 
    204 H204       -0.5565  -29.6120  -51.0696 H         1 UNK         0.0600 
    205 H205       -0.7691  -26.2556  -49.7327 H         1 UNK         0.3000 
    206 H206       -1.3880  -25.4226  -52.4276 H         1 UNK         0.0600 
    207 H207        0.7148  -24.7163  -51.5927 H         1 UNK         0.0600 
    208 H208       -0.2497  -23.2535  -51.4760 H         1 UNK         0.0600 
    209 H209        0.0666  -24.2153  -50.0415 H         1 UNK         0.0600 
    210 H210       -2.9600  -25.0871  -49.4246 H         1 UNK         0.3000 
    211 H211       -5.0429  -24.5999  -48.8916 H         1 UNK         0.0600 
    212 H212       -5.5406  -23.0633  -51.4812 H         1 UNK         0.0600 
    213 H213       -6.7328  -23.6772  -50.3526 H         1 UNK         0.0600 
    214 H214       -5.7908  -24.8033  -51.3153 H         1 UNK         0.0600 
    215 H215       -6.2053  -22.8548  -47.9250 H         1 UNK         0.3000 
    216 H216       -4.5079  -20.5882  -47.1600 H         1 UNK         0.0600 
    217 H217       -6.2900  -20.2251  -45.4689 H         1 UNK         0.0600 
    218 H218       -5.7413  -21.8899  -45.4360 H         1 UNK         0.0600 
    219 H219       -7.2786  -21.4850  -46.1999 H         1 UNK         0.0600 
    220 H220       -6.9103  -21.1961  -49.5379 H         1 UNK         0.3000 
    221 H221       -6.8433  -18.5151  -50.4980 H         1 UNK         0.0600 
    222 H222       -9.5467  -19.6470  -49.5447 H         1 UNK         0.0600 
    223 H223       -8.7453  -18.2218  -48.8853 H         1 UNK         0.0600 
    224 H224       -9.3463  -18.2061  -50.5355 H         1 UNK         0.0600 
    225 H225       -7.3054  -18.5705  -52.7042 H         1 UNK         0.3000 
    226 H226       -7.2982  -19.3512  -54.7595 H         1 UNK         0.0600 
    227 H227       -9.6704  -20.0845  -54.1991 H         1 UNK         0.0600 
    228 H228       -8.9284  -21.0203  -55.4794 H         1 UNK         0.0600 
    229 H229       -9.0532  -21.6993  -53.8615 H         1 UNK         0.0600 
    230 H230       -7.1755  -21.9318  -55.8981 H         1 UNK         0.3000 
    231 H231       -5.6847  -23.3865  -56.6404 H         1 UNK         0.0600 
    232 H232       -4.5638  -24.8928  -54.9733 H         1 UNK         0.0600 
    233 H233       -6.2750  -24.6749  -54.6489 H         1 UNK         0.0600 
    234 H234       -5.0866  -23.8316  -53.6712 H         1 UNK         0.0600 
    235 H235       -3.2403  -22.9803  -54.1653 H         1 UNK         0.3000 
    236 H236       -1.4679  -21.6500  -56.1623 H         1 UNK         0.0600 
    237 H237       -0.7076  -23.8494  -55.3491 H         1 UNK         0.0600 
    238 H238        0.3622  -22.5830  -54.7679 H         1 UNK         0.0600 
    239 H239       -0.8191  -23.2994  -53.6823 H         1 UNK         0.0600 
    240 H240       -3.4156  -20.7576  -53.5517 H         1 UNK         0.3000 
    241 H241       -1.7076  -18.8039  -52.2906 H         1 UNK         0.0600 
    242 H242       -1.2270  -16.6759  -52.9789 H         1 UNK         0.3800 
    243 H243       -1.9530  -15.9369  -54.3784 H         1 UNK         0.3800 
    244 H244       -3.8042  -19.7975  -51.2547 H         1 UNK         0.0800 
    245 H245       -4.7574  -18.9071  -52.4041 H         1 UNK         0.0800 
    246 H246       -3.6001  -19.1004  -49.0365 H         1 UNK         0.0800 
    247 H247       -3.5761  -17.4823  -48.3906 H         1 UNK         0.0800 
@<TRIPOS>BOND
     1    1    2 1    
     2    1  127 1    
     3    1  128 1    
     4    1  129 1    
     5    2    3 2    
     6    2    4 am   BACKBONE|DICT|INTERRES
     7    4    5 1    
     8    4  130 1    
     9    5    6 1    
    10    5   65 1    
    11    5  131 1    
    12    6    7 1    
    13    6  132 1    
    14    6  133 1    
    15    7    8 1    
    16    8    9 1    
    17    8  134 1    
    18    8  135 1    
    19    9   10 ar   
    20    9   14 ar   
    21   10   11 ar   
    22   10  136 1    
    23   11   12 ar   
    24   11  126 1    
    25   12   13 ar   
    26   12  137 1    
    27   13   14 ar   
    28   13   15 1    
    29   14  138 1    
    30   15   16 1    
    31   15  139 1    
    32   15  140 1    
    33   16   17 1    
    34   17   18 1    
    35   17  141 1    
    36   17  142 1    
    37   18   19 1    
    38   18   67 1    
    39   18  143 1    
    40   19   20 am   BACKBONE|DICT|INTERRES
    41   19  144 1    
    42   20   21 2    
    43   20   22 1    
    44   22   23 1    
    45   22   24 1    
    46   22  145 1    
    47   23  146 1    
    48   23  147 1    
    49   23  148 1    
    50   24   25 am   BACKBONE|DICT|INTERRES
    51   24  149 1    
    52   25   26 2    
    53   25   27 1    
    54   27   28 1    
    55   27   29 1    
    56   27  150 1    
    57   28  151 1    
    58   28  152 1    
    59   28  153 1    
    60   29   30 am   BACKBONE|DICT|INTERRES
    61   29  154 1    
    62   30   31 2    
    63   30   32 1    
    64   32   33 1    
    65   32   34 1    
    66   32  155 1    
    67   33  156 1    
    68   33  157 1    
    69   33  158 1    
    70   34   35 am   BACKBONE|DICT|INTERRES
    71   34  159 1    
    72   35   36 2    
    73   35   37 1    
    74   37   38 1    
    75   37   39 1    
    76   37  160 1    
    77   38  161 1    
    78   38  162 1    
    79   38  163 1    
    80   39   40 am   BACKBONE|DICT|INTERRES
    81   39  164 1    
    82   40   41 2    
    83   40   42 1    
    84   42   43 1    
    85   42   44 1    
    86   42  165 1    
    87   43  166 1    
    88   43  167 1    
    89   43  168 1    
    90   44   45 am   BACKBONE|DICT|INTERRES
    91   44  169 1    
    92   45   46 2    
    93   45   47 1    
    94   47   48 1    
    95   47   49 1    
    96   47  170 1    
    97   48  171 1    
    98   48  172 1    
    99   48  173 1    
   100   49   50 am   BACKBONE|DICT|INTERRES
   101   49  174 1    
   102   50   51 2    
   103   50   52 1    
   104   52   53 1    
   105   52   54 1    
   106   52  175 1    
   107   53  176 1    
   108   53  177 1    
   109   53  178 1    
   110   54   55 am   BACKBONE|DICT|INTERRES
   111   54  179 1    
   112   55   56 2    
   113   55   57 1    
   114   57   58 1    
   115   57   59 1    
   116   57  180 1    
   117   58  181 1    
   118   58  182 1    
   119   58  183 1    
   120   59   60 am   BACKBONE|DICT|INTERRES
   121   59  184 1    
   122   60   61 2    
   123   60   62 1    
   124   62   63 1    
   125   62   64 1    
   126   62  185 1    
   127   63  186 1    
   128   63  187 1    
   129   63  188 1    
   130   64   65 am   BACKBONE|DICT|INTERRES
   131   64  189 1    
   132   65   66 2    
   133   67   68 2    
   134   67   69 am   BACKBONE|DICT|INTERRES
   135   69   70 1    
   136   69  190 1    
   137   70   71 1    
   138   70   72 1    
   139   70  191 1    
   140   71  192 1    
   141   71  193 1    
   142   71  194 1    
   143   72   73 2    
   144   72   74 am   BACKBONE|DICT|INTERRES
   145   74   75 1    
   146   74  195 1    
   147   75   76 1    
   148   75   77 1    
   149   75  196 1    
   150   76  197 1    
   151   76  198 1    
   152   76  199 1    
   153   77   78 2    
   154   77   79 am   BACKBONE|DICT|INTERRES
   155   79   80 1    
   156   79  200 1    
   157   80   81 1    
   158   80   82 1    
   159   80  201 1    
   160   81  202 1    
   161   81  203 1    
   162   81  204 1    
   163   82   83 2    
   164   82   84 am   BACKBONE|DICT|INTERRES
   165   84   85 1    
   166   84  205 1    
   167   85   86 1    
   168   85   87 1    
   169   85  206 1    
   170   86  207 1    
   171   86  208 1    
   172   86  209 1    
   173   87   88 2    
   174   87   89 am   BACKBONE|DICT|INTERRES
   175   89   90 1    
   176   89  210 1    
   177   90   91 1    
   178   90   92 1    
   179   90  211 1    
   180   91  212 1    
   181   91  213 1    
   182   91  214 1    
   183   92   93 2    
   184   92   94 am   BACKBONE|DICT|INTERRES
   185   94   95 1    
   186   94  215 1    
   187   95   96 1    
   188   95   97 1    
   189   95  216 1    
   190   96  217 1    
   191   96  218 1    
   192   96  219 1    
   193   97   98 2    
   194   97   99 am   BACKBONE|DICT|INTERRES
   195   99  100 1    
   196   99  220 1    
   197  100  101 1    
   198  100  102 1    
   199  100  221 1    
   200  101  222 1    
   201  101  223 1    
   202  101  224 1    
   203  102  103 2    
   204  102  104 am   BACKBONE|DICT|INTERRES
   205  104  105 1    
   206  104  225 1    
   207  105  106 1    
   208  105  107 1    
   209  105  226 1    
   210  106  227 1    
   211  106  228 1    
   212  106  229 1    
   213  107  108 2    
   214  107  109 am   BACKBONE|DICT|INTERRES
   215  109  110 1    
   216  109  230 1    
   217  110  111 1    
   218  110  112 1    
   219  110  231 1    
   220  111  232 1    
   221  111  233 1    
   222  111  234 1    
   223  112  113 2    
   224  112  114 am   BACKBONE|DICT|INTERRES
   225  114  115 1    
   226  114  235 1    
   227  115  116 1    
   228  115  117 1    
   229  115  236 1    
   230  116  237 1    
   231  116  238 1    
   232  116  239 1    
   233  117  118 2    
   234  117  119 am   BACKBONE|DICT|INTERRES
   235  119  120 1    
   236  119  240 1    
   237  120  121 1    
   238  120  124 1    
   239  120  241 1    
   240  121  122 am   BACKBONE|DICT|INTERRES
   241  121  123 2    
   242  122  242 1    
   243  122  243 1    
   244  124  125 1    
   245  124  244 1    
   246  124  245 1    
   247  125  126 1    
   248  126  246 1    
   249  126  247 1    
@<TRIPOS>SUBSTRUCTURE
     1 UNK         1 GROUP             0       ****    0 ROOT    
