@<TRIPOS>MOLECULE
3R540
247   249    1
SMALL
USER_CHARGES


@<TRIPOS>ATOM
      1 CA          3.0986   -9.2659  -48.3516 C.3       0 UNK        -0.1800 
      2 C           2.0709  -10.2989  -48.8108 C.2       0 UNK         0.5000 
      3 O           0.8827   -9.9864  -48.8582 O.2       0 UNK        -0.5000 
      4 N           2.4672  -11.5264  -49.1741 N.am      1 UNK        -0.5000 
      5 CA          3.8210  -12.0889  -49.1006 C.3       1 UNK         0.1400 
      6 C6          3.9473  -13.3415  -50.0098 C.3       23 UNK        -0.0398 
      7 S7          2.9749  -14.7793  -49.4389 S.3       23 UNK        -0.2404 
      8 C8          1.7845  -15.0201  -50.7913 C.3       23 UNK        -0.0205 
      9 C9          0.7557  -16.0743  -50.4112 C.ar      23 UNK        -0.0193 
     10 C10        -0.5697  -15.7142  -50.1538 C.ar      23 UNK        -0.1150 
     11 C11        -1.5121  -16.6685  -49.7563 C.ar      23 UNK        -0.0193 
     12 C12        -1.1105  -18.0072  -49.6360 C.ar      23 UNK        -0.1150 
     13 C13         0.2114  -18.3807  -49.8965 C.ar      23 UNK        -0.0193 
     14 C14         1.1361  -17.4123  -50.2922 C.ar      23 UNK        -0.1150 
     15 C15         0.6499  -19.8291  -49.7550 C.3       23 UNK        -0.0205 
     16 S16         1.6848  -20.0863  -48.2764 S.3       23 UNK        -0.2404 
     17 C17         0.4702  -19.9900  -46.9159 C.3       23 UNK        -0.0398 
     18 CA          0.0048  -21.3962  -46.4650 C.3       11 UNK         0.1400 
     19 N          -0.4482  -21.4285  -45.0733 N.am      11 UNK        -0.5000 
     20 C          -0.7646  -22.5492  -44.4062 C.2       10 UNK         0.5000 
     21 O          -0.6411  -23.6831  -44.8694 O.2       10 UNK        -0.5000 
     22 CA         -1.3749  -22.3710  -43.0072 C.3       10 UNK         0.1400 
     23 CB         -0.2773  -22.1762  -41.9520 C.3       10 UNK        -0.1800 
     24 N          -2.3145  -21.2499  -42.9696 N.am      10 UNK        -0.5000 
     25 C          -3.5127  -21.2585  -43.5718 C.2       9 UNK         0.5000 
     26 O          -3.9652  -22.2297  -44.1783 O.2       9 UNK        -0.5000 
     27 CA         -4.3221  -19.9491  -43.5232 C.3       9 UNK         0.1400 
     28 CB         -5.0985  -19.8407  -42.2026 C.3       9 UNK        -0.1800 
     29 N          -3.4910  -18.7560  -43.6974 N.am      9 UNK        -0.5000 
     30 C          -2.8102  -18.4654  -44.8152 C.2       8 UNK         0.5000 
     31 O          -2.8144  -19.1733  -45.8198 O.2       8 UNK        -0.5000 
     32 CA         -1.9309  -17.2026  -44.7865 C.3       8 UNK         0.1400 
     33 CB         -2.7735  -15.9592  -45.1121 C.3       8 UNK        -0.1800 
     34 N          -1.2314  -16.9986  -43.5121 N.am      8 UNK        -0.5000 
     35 C          -0.4002  -17.8831  -42.9444 C.2       7 UNK         0.5000 
     36 O          -0.1056  -18.9650  -43.4580 O.2       7 UNK        -0.5000 
     37 CA          0.1730  -17.5033  -41.5708 C.3       7 UNK         0.1400 
     38 CB          0.4310  -18.7541  -40.7023 C.3       7 UNK        -0.1800 
     39 N           1.3978  -16.7263  -41.7461 N.am      7 UNK        -0.5000 
     40 C           2.0384  -16.0761  -40.7642 C.2       6 UNK         0.5000 
     41 O           1.6401  -16.0306  -39.5991 O.2       6 UNK        -0.5000 
     42 CA          3.3368  -15.3389  -41.1393 C.3       6 UNK         0.1400 
     43 CB          4.4232  -16.3134  -41.6232 C.3       6 UNK        -0.1800 
     44 N           3.1063  -14.3063  -42.1457 N.am      6 UNK        -0.5000 
     45 C           2.4392  -13.1638  -41.9266 C.2       5 UNK         0.5000 
     46 O           2.0231  -12.8124  -40.8219 O.2       5 UNK        -0.5000 
     47 CA          2.1702  -12.2693  -43.1520 C.3       5 UNK         0.1400 
     48 CB          3.3491  -11.3182  -43.4076 C.3       5 UNK        -0.1800 
     49 N           1.8990  -13.0407  -44.3639 N.am      5 UNK        -0.5000 
     50 C           0.8459  -13.8520  -44.5339 C.2       4 UNK         0.5000 
     51 O          -0.0596  -13.9914  -43.7110 O.2       4 UNK        -0.5000 
     52 CA          0.8267  -14.6759  -45.8302 C.3       4 UNK         0.1400 
     53 CB          0.2756  -13.8451  -46.9964 C.3       4 UNK        -0.1800 
     54 N           2.1473  -15.2049  -46.1671 N.am      4 UNK        -0.5000 
     55 C           2.7788  -16.1603  -45.4702 C.2       3 UNK         0.5000 
     56 O           2.2952  -16.7224  -44.4883 O.2       3 UNK        -0.5000 
     57 CA          4.2109  -16.5125  -45.9110 C.3       3 UNK         0.1400 
     58 CB          4.1977  -17.5661  -47.0274 C.3       3 UNK        -0.1800 
     59 N           4.9668  -15.3355  -46.3444 N.am      3 UNK        -0.5000 
     60 C           5.3799  -14.3665  -45.5139 C.2       2 UNK         0.5000 
     61 O           5.1932  -14.3886  -44.2979 O.2       2 UNK        -0.5000 
     62 CA          6.0783  -13.1476  -46.1497 C.3       2 UNK         0.1400 
     63 CB          7.5843  -13.4078  -46.3017 C.3       2 UNK        -0.1800 
     64 N           5.5179  -12.7616  -47.4489 N.am      2 UNK        -0.5000 
     65 C           4.2468  -12.3831  -47.6408 C.2       1 UNK         0.5000 
     66 O           3.4246  -12.3057  -46.7244 O.2       1 UNK        -0.5000 
     67 C          -1.0607  -21.9747  -47.4161 C.2       11 UNK         0.5000 
     68 O          -0.7368  -22.8459  -48.2204 O.2       11 UNK        -0.5000 
     69 N          -2.3151  -21.5228  -47.2749 N.am      12 UNK        -0.5000 
     70 CA         -3.4671  -22.0087  -48.0337 C.3       12 UNK         0.1400 
     71 CB         -4.7161  -21.1955  -47.6664 C.3       12 UNK        -0.1800 
     72 C          -3.7281  -23.5112  -47.8400 C.2       12 UNK         0.5000 
     73 O          -3.9932  -24.2035  -48.8209 O.2       12 UNK        -0.5000 
     74 N          -3.6147  -23.9953  -46.5954 N.am      13 UNK        -0.5000 
     75 CA         -3.7423  -25.4118  -46.2510 C.3       13 UNK         0.1400 
     76 CB         -3.7752  -25.5690  -44.7232 C.3       13 UNK        -0.1800 
     77 C          -2.6318  -26.2842  -46.8676 C.2       13 UNK         0.5000 
     78 O          -2.9196  -27.3868  -47.3346 O.2       13 UNK        -0.5000 
     79 N          -1.3923  -25.7751  -46.8679 N.am      14 UNK        -0.5000 
     80 CA         -0.2258  -26.4400  -47.4470 C.3       14 UNK         0.1400 
     81 CB          1.0545  -25.7713  -46.9219 C.3       14 UNK        -0.1800 
     82 C          -0.2477  -26.4460  -48.9866 C.2       14 UNK         0.5000 
     83 O           0.0099  -27.4858  -49.5945 O.2       14 UNK        -0.5000 
     84 N          -0.5412  -25.2854  -49.5864 N.am      15 UNK        -0.5000 
     85 CA         -0.5646  -25.0744  -51.0337 C.3       15 UNK         0.1400 
     86 CB         -0.5093  -23.5659  -51.3128 C.3       15 UNK        -0.1800 
     87 C          -1.7914  -25.6989  -51.7197 C.2       15 UNK         0.5000 
     88 O          -1.6853  -26.1258  -52.8707 O.2       15 UNK        -0.5000 
     89 N          -2.9319  -25.7276  -51.0147 N.am      16 UNK        -0.5000 
     90 CA         -4.2343  -26.2180  -51.4663 C.3       16 UNK         0.1400 
     91 CB         -4.2168  -27.7589  -51.5811 C.3       16 UNK        -0.1800 
     92 C          -4.6896  -25.4833  -52.7438 C.2       16 UNK         0.5000 
     93 O          -4.8048  -24.2554  -52.7248 O.2       16 UNK        -0.5000 
     94 N          -4.8963  -26.2256  -53.8388 N.am      17 UNK        -0.5000 
     95 CA         -5.3141  -25.7229  -55.1491 C.3       17 UNK         0.1400 
     96 CB         -5.5799  -26.9196  -56.0750 C.3       17 UNK        -0.1800 
     97 C          -4.3270  -24.7389  -55.8106 C.2       17 UNK         0.5000 
     98 O          -4.7463  -23.9796  -56.6844 O.2       17 UNK        -0.5000 
     99 N          -3.0520  -24.7456  -55.3899 N.am      18 UNK        -0.5000 
    100 CA        -2.0422  -23.7913  -55.8553 C.3       18 UNK         0.1400 
    101 CB        -0.6366  -24.3154  -55.5264 C.3       18 UNK        -0.1800 
    102 C         -2.2542  -22.3740  -55.2856 C.2       18 UNK         0.5000 
    103 O         -1.8967  -21.4029  -55.9534 O.2       18 UNK        -0.5000 
    104 N         -2.8475  -22.2757  -54.0866 N.am      19 UNK        -0.5000 
    105 CA        -3.2977  -21.0125  -53.4985 C.3       19 UNK         0.1400 
    106 CB        -3.1140  -21.0466  -51.9724 C.3       19 UNK        -0.1800 
    107 C         -4.7659  -20.7340  -53.8580 C.2       19 UNK         0.5000 
    108 O         -5.1055  -19.5905  -54.1600 O.2       19 UNK        -0.5000 
    109 N         -5.5991  -21.7869  -53.8146 N.am      20 UNK        -0.5000 
    110 CA        -7.0484  -21.7906  -54.0498 C.3       20 UNK         0.1400 
    111 CB        -7.3750  -21.4112  -55.5093 C.3       20 UNK        -0.1800 
    112 C         -7.8280  -20.9554  -53.0092 C.2       20 UNK         0.5000 
    113 O         -8.8695  -20.3832  -53.3356 O.2       20 UNK        -0.5000 
    114 N         -7.2985  -20.9345  -51.7753 N.am      21 UNK        -0.5000 
    115 CA        -7.7033  -20.1580  -50.5980 C.3       21 UNK         0.1400 
    116 CB        -9.1792  -20.3971  -50.2247 C.3       21 UNK        -0.1800 
    117 C         -7.3873  -18.6541  -50.7272 C.2       21 UNK         0.5000 
    118 O         -7.5363  -18.0635  -51.7984 O.2       21 UNK        -0.5000 
    119 N         -6.9613  -18.0552  -49.6097 N.am      22 UNK        -0.5000 
    120 CA        -6.5818  -16.6335  -49.5166 C.3       22 UNK         0.1400 
    121 C         -7.7828  -15.6512  -49.3747 C.2       22 UNK         0.5000 
    122 N         -9.0145  -16.1180  -49.2090 N.am      22 UNK        -0.7600 
    123 O         -7.5943  -14.4389  -49.4247 O.2       22 UNK        -0.5000 
    124 C124       -5.5341  -16.3912  -48.3996 C.3       23 UNK        -0.0398 
    125 S125       -4.0210  -17.3864  -48.6226 S.3       23 UNK        -0.2404 
    126 C126       -2.9398  -16.1924  -49.4790 C.3       23 UNK        -0.0205 
    127 H127        3.5181   -9.5400  -47.3839 H         1 UNK         0.0600 
    128 H128        2.6308   -8.2871  -48.2436 H         1 UNK         0.0600 
    129 H129        3.9080   -9.1634  -49.0736 H         1 UNK         0.0600 
    130 H130        1.7565  -12.1901  -49.4423 H         1 UNK         0.3000 
    131 H131        4.5160  -11.3432  -49.4893 H         1 UNK         0.0600 
    132 H132        3.6546  -13.0857  -51.0292 H         1 UNK         0.0800 
    133 H133        4.9901  -13.6528  -50.0851 H         1 UNK         0.0800 
    134 H134        1.2968  -14.0721  -51.0228 H         1 UNK         0.0800 
    135 H135        2.3135  -15.3316  -51.6931 H         1 UNK         0.0800 
    136 H136       -0.8673  -14.6789  -50.2457 H         1 UNK         0.1150 
    137 H137       -1.8160  -18.7682  -49.3362 H         1 UNK         0.1150 
    138 H138        2.1616  -17.6964  -50.4834 H         1 UNK         0.1150 
    139 H139       -0.2111  -20.4976  -49.7351 H         1 UNK         0.0800 
    140 H140        1.2269  -20.1123  -50.6363 H         1 UNK         0.0800 
    141 H141        0.9715  -19.4841  -46.0890 H         1 UNK         0.0800 
    142 H142       -0.3682  -19.3465  -47.1864 H         1 UNK         0.0800 
    143 H143        0.8678  -22.0649  -46.5067 H         1 UNK         0.0600 
    144 H144       -0.5376  -20.5363  -44.5966 H         1 UNK         0.3000 
    145 H145       -1.9226  -23.2828  -42.7594 H         1 UNK         0.0600 
    146 H146       -0.7015  -22.0307  -40.9585 H         1 UNK         0.0600 
    147 H147        0.3713  -23.0517  -41.9040 H         1 UNK         0.0600 
    148 H148        0.3542  -21.3183  -42.1810 H         1 UNK         0.0600 
    149 H149       -1.9887  -20.3953  -42.5437 H         1 UNK         0.3000 
    150 H150       -5.0442  -19.9765  -44.3420 H         1 UNK         0.0600 
    151 H151       -5.7402  -20.7105  -42.0553 H         1 UNK         0.0600 
    152 H152       -5.7406  -18.9598  -42.1939 H         1 UNK         0.0600 
    153 H153       -4.4290  -19.7775  -41.3438 H         1 UNK         0.0600 
    154 H154       -3.4278  -18.1226  -42.9142 H         1 UNK         0.3000 
    155 H155       -1.1770  -17.3272  -45.5657 H         1 UNK         0.0600 
    156 H156       -2.1595  -15.0621  -45.1755 H         1 UNK         0.0600 
    157 H157       -3.5404  -15.7838  -44.3569 H         1 UNK         0.0600 
    158 H158       -3.2789  -16.0693  -46.0713 H         1 UNK         0.0600 
    159 H159       -1.3763  -16.1067  -43.0585 H         1 UNK         0.3000 
    160 H160       -0.5649  -16.8799  -41.0618 H         1 UNK         0.0600 
    161 H161        1.2551  -19.3505  -41.0951 H         1 UNK         0.0600 
    162 H162       -0.4526  -19.3919  -40.6624 H         1 UNK         0.0600 
    163 H163        0.6740  -18.4900  -39.6737 H         1 UNK         0.0600 
    164 H164        1.7689  -16.7025  -42.6955 H         1 UNK         0.3000 
    165 H165        3.7131  -14.8511  -40.2375 H         1 UNK         0.0600 
    166 H166        4.1438  -16.8118  -42.5507 H         1 UNK         0.0600 
    167 H167        5.3659  -15.7942  -41.7968 H         1 UNK         0.0600 
    168 H168        4.6110  -17.0879  -40.8787 H         1 UNK         0.0600 
    169 H169        3.4755  -14.4829  -43.0725 H         1 UNK         0.3000 
    170 H170        1.2857  -11.6664  -42.9366 H         1 UNK         0.0600 
    171 H171        3.5423  -10.6933  -42.5349 H         1 UNK         0.0600 
    172 H172        4.2657  -11.8645  -43.6297 H         1 UNK         0.0600 
    173 H173        3.1449  -10.6530  -44.2470 H         1 UNK         0.0600 
    174 H174        2.5610  -12.9391  -45.1286 H         1 UNK         0.3000 
    175 H175        0.1644  -15.5256  -45.6794 H         1 UNK         0.0600 
    176 H176       -0.7424  -13.5123  -46.7915 H         1 UNK         0.0600 
    177 H177        0.8785  -12.9572  -47.1846 H         1 UNK         0.0600 
    178 H178        0.2479  -14.4308  -47.9119 H         1 UNK         0.0600 
    179 H179        2.6196  -14.7800  -46.9526 H         1 UNK         0.3000 
    180 H180        4.7260  -16.9452  -45.0507 H         1 UNK         0.0600 
    181 H181        3.6486  -17.2265  -47.9056 H         1 UNK         0.0600 
    182 H182        3.7211  -18.4836  -46.6810 H         1 UNK         0.0600 
    183 H183        5.2088  -17.8256  -47.3409 H         1 UNK         0.0600 
    184 H184        5.1440  -15.2409  -47.3334 H         1 UNK         0.3000 
    185 H185        5.9471  -12.3037  -45.4693 H         1 UNK         0.0600 
    186 H186        8.1039  -12.5199  -46.6625 H         1 UNK         0.0600 
    187 H187        8.0320  -13.6777  -45.3443 H         1 UNK         0.0600 
    188 H188        7.7847  -14.2221  -46.9991 H         1 UNK         0.0600 
    189 H189        6.1488  -12.8023  -48.2363 H         1 UNK         0.3000 
    190 H190       -2.4961  -20.7663  -46.6170 H         1 UNK         0.3000 
    191 H191       -3.2529  -21.8452  -49.0910 H         1 UNK         0.0600 
    192 H192       -5.5912  -21.5590  -48.2051 H         1 UNK         0.0600 
    193 H193       -4.5886  -20.1447  -47.9196 H         1 UNK         0.0600 
    194 H194       -4.9376  -21.2570  -46.6009 H         1 UNK         0.0600 
    195 H195       -3.4435  -23.3514  -45.8304 H         1 UNK         0.3000 
    196 H196       -4.6969  -25.7650  -46.6466 H         1 UNK         0.0600 
    197 H197       -3.8933  -26.6158  -44.4405 H         1 UNK         0.0600 
    198 H198       -4.6096  -25.0184  -44.2885 H         1 UNK         0.0600 
    199 H199       -2.8576  -25.2051  -44.2605 H         1 UNK         0.0600 
    200 H200       -1.2309  -24.8775  -46.4226 H         1 UNK         0.3000 
    201 H201       -0.2232  -27.4788  -47.1099 H         1 UNK         0.0600 
    202 H202        1.1159  -25.8392  -45.8356 H         1 UNK         0.0600 
    203 H203        1.0989  -24.7155  -47.1918 H         1 UNK         0.0600 
    204 H204        1.9436  -26.2536  -47.3297 H         1 UNK         0.0600 
    205 H205       -0.7044  -24.4612  -49.0094 H         1 UNK         0.3000 
    206 H206        0.3267  -25.5342  -51.4654 H         1 UNK         0.0600 
    207 H207        0.4041  -23.1237  -50.9146 H         1 UNK         0.0600 
    208 H208       -0.5371  -23.3512  -52.3805 H         1 UNK         0.0600 
    209 H209       -1.3537  -23.0556  -50.8510 H         1 UNK         0.0600 
    210 H210       -2.9489  -25.2780  -50.1046 H         1 UNK         0.3000 
    211 H211       -4.9539  -25.9522  -50.6912 H         1 UNK         0.0600 
    212 H212       -3.5087  -28.1116  -52.3317 H         1 UNK         0.0600 
    213 H213       -5.2028  -28.1478  -51.8383 H         1 UNK         0.0600 
    214 H214       -3.9352  -28.2112  -50.6298 H         1 UNK         0.0600 
    215 H215       -4.7406  -27.2209  -53.7721 H         1 UNK         0.3000 
    216 H216       -6.2540  -25.1850  -55.0087 H         1 UNK         0.0600 
    217 H217       -4.6790  -27.5144  -56.2307 H         1 UNK         0.0600 
    218 H218       -6.3491  -27.5741  -55.6645 H         1 UNK         0.0600 
    219 H219       -5.9277  -26.5881  -57.0544 H         1 UNK         0.0600 
    220 H220       -2.7703  -25.3947  -54.6641 H         1 UNK         0.3000 
    221 H221       -2.1191  -23.7197  -56.9425 H         1 UNK         0.0600 
    222 H222       -0.4704  -25.3000  -55.9636 H         1 UNK         0.0600 
    223 H223        0.1295  -23.6492  -55.9248 H         1 UNK         0.0600 
    224 H224       -0.4722  -24.3945  -54.4534 H         1 UNK         0.0600 
    225 H225       -3.1506  -23.1241  -53.6263 H         1 UNK         0.3000 
    226 H226       -2.6999  -20.1831  -53.8829 H         1 UNK         0.0600 
    227 H227       -3.5692  -21.9329  -51.5289 H         1 UNK         0.0600 
    228 H228       -2.0567  -21.0365  -51.7107 H         1 UNK         0.0600 
    229 H229       -3.5643  -20.1717  -51.5006 H         1 UNK         0.0600 
    230 H230       -5.2211  -22.6797  -53.5037 H         1 UNK         0.3000 
    231 H231       -7.3697  -22.8229  -53.9043 H         1 UNK         0.0600 
    232 H232       -8.4317  -21.5699  -55.7270 H         1 UNK         0.0600 
    233 H233       -6.8052  -22.0203  -56.2111 H         1 UNK         0.0600 
    234 H234       -7.1533  -20.3641  -55.7162 H         1 UNK         0.0600 
    235 H235       -6.4387  -21.4510  -51.6598 H         1 UNK         0.3000 
    236 H236       -7.0958  -20.5497  -49.7816 H         1 UNK         0.0600 
    237 H237       -9.4020  -21.4618  -50.1540 H         1 UNK         0.0600 
    238 H238       -9.4106  -19.9524  -49.2563 H         1 UNK         0.0600 
    239 H239       -9.8623  -19.9573  -50.9517 H         1 UNK         0.0600 
    240 H240       -6.8665  -18.5915  -48.7601 H         1 UNK         0.3000 
    241 H241       -6.1020  -16.3596  -50.4584 H         1 UNK         0.0600 
    242 H242       -9.1877  -17.1093  -49.1752 H         1 UNK         0.3800 
    243 H243       -9.7831  -15.4711  -49.1240 H         1 UNK         0.3800 
    244 H244       -5.2570  -15.3368  -48.3471 H         1 UNK         0.0800 
    245 H245       -5.9585  -16.6375  -47.4250 H         1 UNK         0.0800 
    246 H246       -2.8918  -15.2838  -48.8767 H         1 UNK         0.0800 
    247 H247       -3.4043  -15.9182  -50.4270 H         1 UNK         0.0800 
@<TRIPOS>BOND
     1    1    2 1    
     2    1  127 1    
     3    1  128 1    
     4    1  129 1    
     5    2    3 2    
     6    2    4 am   BACKBONE|DICT|INTERRES
     7    4    5 1    
     8    4  130 1    
     9    5    6 1    
    10    5   65 1    
    11    5  131 1    
    12    6    7 1    
    13    6  132 1    
    14    6  133 1    
    15    7    8 1    
    16    8    9 1    
    17    8  134 1    
    18    8  135 1    
    19    9   10 ar   
    20    9   14 ar   
    21   10   11 ar   
    22   10  136 1    
    23   11   12 ar   
    24   11  126 1    
    25   12   13 ar   
    26   12  137 1    
    27   13   14 ar   
    28   13   15 1    
    29   14  138 1    
    30   15   16 1    
    31   15  139 1    
    32   15  140 1    
    33   16   17 1    
    34   17   18 1    
    35   17  141 1    
    36   17  142 1    
    37   18   19 1    
    38   18   67 1    
    39   18  143 1    
    40   19   20 am   BACKBONE|DICT|INTERRES
    41   19  144 1    
    42   20   21 2    
    43   20   22 1    
    44   22   23 1    
    45   22   24 1    
    46   22  145 1    
    47   23  146 1    
    48   23  147 1    
    49   23  148 1    
    50   24   25 am   BACKBONE|DICT|INTERRES
    51   24  149 1    
    52   25   26 2    
    53   25   27 1    
    54   27   28 1    
    55   27   29 1    
    56   27  150 1    
    57   28  151 1    
    58   28  152 1    
    59   28  153 1    
    60   29   30 am   BACKBONE|DICT|INTERRES
    61   29  154 1    
    62   30   31 2    
    63   30   32 1    
    64   32   33 1    
    65   32   34 1    
    66   32  155 1    
    67   33  156 1    
    68   33  157 1    
    69   33  158 1    
    70   34   35 am   BACKBONE|DICT|INTERRES
    71   34  159 1    
    72   35   36 2    
    73   35   37 1    
    74   37   38 1    
    75   37   39 1    
    76   37  160 1    
    77   38  161 1    
    78   38  162 1    
    79   38  163 1    
    80   39   40 am   BACKBONE|DICT|INTERRES
    81   39  164 1    
    82   40   41 2    
    83   40   42 1    
    84   42   43 1    
    85   42   44 1    
    86   42  165 1    
    87   43  166 1    
    88   43  167 1    
    89   43  168 1    
    90   44   45 am   BACKBONE|DICT|INTERRES
    91   44  169 1    
    92   45   46 2    
    93   45   47 1    
    94   47   48 1    
    95   47   49 1    
    96   47  170 1    
    97   48  171 1    
    98   48  172 1    
    99   48  173 1    
   100   49   50 am   BACKBONE|DICT|INTERRES
   101   49  174 1    
   102   50   51 2    
   103   50   52 1    
   104   52   53 1    
   105   52   54 1    
   106   52  175 1    
   107   53  176 1    
   108   53  177 1    
   109   53  178 1    
   110   54   55 am   BACKBONE|DICT|INTERRES
   111   54  179 1    
   112   55   56 2    
   113   55   57 1    
   114   57   58 1    
   115   57   59 1    
   116   57  180 1    
   117   58  181 1    
   118   58  182 1    
   119   58  183 1    
   120   59   60 am   BACKBONE|DICT|INTERRES
   121   59  184 1    
   122   60   61 2    
   123   60   62 1    
   124   62   63 1    
   125   62   64 1    
   126   62  185 1    
   127   63  186 1    
   128   63  187 1    
   129   63  188 1    
   130   64   65 am   BACKBONE|DICT|INTERRES
   131   64  189 1    
   132   65   66 2    
   133   67   68 2    
   134   67   69 am   BACKBONE|DICT|INTERRES
   135   69   70 1    
   136   69  190 1    
   137   70   71 1    
   138   70   72 1    
   139   70  191 1    
   140   71  192 1    
   141   71  193 1    
   142   71  194 1    
   143   72   73 2    
   144   72   74 am   BACKBONE|DICT|INTERRES
   145   74   75 1    
   146   74  195 1    
   147   75   76 1    
   148   75   77 1    
   149   75  196 1    
   150   76  197 1    
   151   76  198 1    
   152   76  199 1    
   153   77   78 2    
   154   77   79 am   BACKBONE|DICT|INTERRES
   155   79   80 1    
   156   79  200 1    
   157   80   81 1    
   158   80   82 1    
   159   80  201 1    
   160   81  202 1    
   161   81  203 1    
   162   81  204 1    
   163   82   83 2    
   164   82   84 am   BACKBONE|DICT|INTERRES
   165   84   85 1    
   166   84  205 1    
   167   85   86 1    
   168   85   87 1    
   169   85  206 1    
   170   86  207 1    
   171   86  208 1    
   172   86  209 1    
   173   87   88 2    
   174   87   89 am   BACKBONE|DICT|INTERRES
   175   89   90 1    
   176   89  210 1    
   177   90   91 1    
   178   90   92 1    
   179   90  211 1    
   180   91  212 1    
   181   91  213 1    
   182   91  214 1    
   183   92   93 2    
   184   92   94 am   BACKBONE|DICT|INTERRES
   185   94   95 1    
   186   94  215 1    
   187   95   96 1    
   188   95   97 1    
   189   95  216 1    
   190   96  217 1    
   191   96  218 1    
   192   96  219 1    
   193   97   98 2    
   194   97   99 am   BACKBONE|DICT|INTERRES
   195   99  100 1    
   196   99  220 1    
   197  100  101 1    
   198  100  102 1    
   199  100  221 1    
   200  101  222 1    
   201  101  223 1    
   202  101  224 1    
   203  102  103 2    
   204  102  104 am   BACKBONE|DICT|INTERRES
   205  104  105 1    
   206  104  225 1    
   207  105  106 1    
   208  105  107 1    
   209  105  226 1    
   210  106  227 1    
   211  106  228 1    
   212  106  229 1    
   213  107  108 2    
   214  107  109 am   BACKBONE|DICT|INTERRES
   215  109  110 1    
   216  109  230 1    
   217  110  111 1    
   218  110  112 1    
   219  110  231 1    
   220  111  232 1    
   221  111  233 1    
   222  111  234 1    
   223  112  113 2    
   224  112  114 am   BACKBONE|DICT|INTERRES
   225  114  115 1    
   226  114  235 1    
   227  115  116 1    
   228  115  117 1    
   229  115  236 1    
   230  116  237 1    
   231  116  238 1    
   232  116  239 1    
   233  117  118 2    
   234  117  119 am   BACKBONE|DICT|INTERRES
   235  119  120 1    
   236  119  240 1    
   237  120  121 1    
   238  120  124 1    
   239  120  241 1    
   240  121  122 am   BACKBONE|DICT|INTERRES
   241  121  123 2    
   242  122  242 1    
   243  122  243 1    
   244  124  125 1    
   245  124  244 1    
   246  124  245 1    
   247  125  126 1    
   248  126  246 1    
   249  126  247 1    
@<TRIPOS>SUBSTRUCTURE
     1 UNK         1 GROUP             0       ****    0 ROOT    
