@<TRIPOS>MOLECULE
3R540
247   249    1
SMALL
USER_CHARGES


@<TRIPOS>ATOM
      1 CA          8.0583  -15.3419  -45.0888 C.3       0 UNK        -0.1800 
      2 C           6.5376  -15.3145  -45.1363 C.2       0 UNK         0.5000 
      3 O           5.8893  -15.4577  -44.1020 O.2       0 UNK        -0.5000 
      4 N           5.9672  -15.1142  -46.3296 N.am      1 UNK        -0.5000 
      5 CA          4.5235  -15.0762  -46.5966 C.3       1 UNK         0.1400 
      6 C6          4.1933  -15.6969  -47.9769 C.3       23 UNK        -0.0398 
      7 S7          5.0000  -14.8956  -49.4098 S.3       23 UNK        -0.2404 
      8 C8          3.5594  -14.2981  -50.3670 C.3       23 UNK        -0.0205 
      9 C9          2.5698  -15.3632  -50.8535 C.ar      23 UNK        -0.0193 
     10 C10         1.3300  -14.9366  -51.3437 C.ar      23 UNK        -0.1150 
     11 C11         0.3680  -15.8599  -51.7637 C.ar      23 UNK        -0.0193 
     12 C12         0.6537  -17.2237  -51.7042 C.ar      23 UNK        -0.1150 
     13 C13         1.8738  -17.6711  -51.1962 C.ar      23 UNK        -0.0193 
     14 C14         2.8374  -16.7395  -50.8015 C.ar      23 UNK        -0.1150 
     15 C15         2.1302  -19.1603  -51.0247 C.3       23 UNK        -0.0205 
     16 S16         1.7306  -19.7046  -49.3301 S.3       23 UNK        -0.2404 
     17 C17        -0.0801  -19.4750  -49.2794 C.3       23 UNK        -0.0398 
     18 CA         -0.8126  -20.6186  -48.5383 C.3       11 UNK         0.1400 
     19 N          -0.4089  -20.7135  -47.1249 N.am      11 UNK        -0.5000 
     20 C          -0.5147  -21.7932  -46.3338 C.2       10 UNK         0.5000 
     21 O          -1.0686  -22.8361  -46.6918 O.2       10 UNK        -0.5000 
     22 CA          0.0441  -21.6868  -44.8982 C.3       10 UNK         0.1400 
     23 CB          0.4561  -23.0537  -44.3145 C.3       10 UNK        -0.1800 
     24 N           1.1241  -20.7072  -44.7568 N.am      10 UNK        -0.5000 
     25 C           2.3330  -20.7307  -45.3386 C.2       9 UNK         0.5000 
     26 O           2.7251  -21.6405  -46.0696 O.2       9 UNK        -0.5000 
     27 CA          3.2660  -19.5402  -45.0482 C.3       9 UNK         0.1400 
     28 CB          3.7752  -18.8871  -46.3410 C.3       9 UNK        -0.1800 
     29 N           2.6097  -18.5126  -44.2357 N.am      9 UNK        -0.5000 
     30 C           3.0532  -18.0789  -43.0494 C.2       8 UNK         0.5000 
     31 O           4.0786  -18.4895  -42.5048 O.2       8 UNK        -0.5000 
     32 CA          2.1950  -17.0200  -42.3360 C.3       8 UNK         0.1400 
     33 CB          2.5464  -15.6103  -42.8360 C.3       8 UNK        -0.1800 
     34 N           0.7544  -17.2333  -42.4826 N.am      8 UNK        -0.5000 
     35 C           0.0638  -18.2487  -41.9445 C.2       7 UNK         0.5000 
     36 O           0.5854  -19.1882  -41.3450 O.2       7 UNK        -0.5000 
     37 CA         -1.4645  -18.2129  -42.1045 C.3       7 UNK         0.1400 
     38 CB         -2.0865  -17.2288  -41.1010 C.3       7 UNK        -0.1800 
     39 N          -1.8402  -17.8127  -43.4582 N.am      7 UNK        -0.5000 
     40 C          -2.4336  -18.6068  -44.3584 C.2       6 UNK         0.5000 
     41 O          -2.7808  -19.7660  -44.1330 O.2       6 UNK        -0.5000 
     42 CA         -2.6809  -18.0205  -45.7611 C.3       6 UNK         0.1400 
     43 CB         -4.1279  -17.5232  -45.8818 C.3       6 UNK        -0.1800 
     44 N          -1.7822  -16.9287  -46.1341 N.am      6 UNK        -0.5000 
     45 C          -0.4473  -16.9930  -46.2229 C.2       5 UNK         0.5000 
     46 O           0.2122  -18.0142  -46.0216 O.2       5 UNK        -0.5000 
     47 CA          0.2719  -15.6697  -46.5434 C.3       5 UNK         0.1400 
     48 CB          0.3317  -15.4858  -48.0645 C.3       5 UNK        -0.1800 
     49 N          -0.3387  -14.4723  -45.9472 N.am      5 UNK        -0.5000 
     50 C          -0.6882  -14.3097  -44.6636 C.2       4 UNK         0.5000 
     51 O          -0.5596  -15.1823  -43.8036 O.2       4 UNK        -0.5000 
     52 CA         -1.2730  -12.9456  -44.2833 C.3       4 UNK         0.1400 
     53 CB         -2.1017  -13.0034  -42.9836 C.3       4 UNK        -0.1800 
     54 N          -0.1812  -11.9901  -44.1389 N.am      4 UNK        -0.5000 
     55 C          -0.3014  -10.6635  -44.2378 C.2       3 UNK         0.5000 
     56 O          -1.3564  -10.0979  -44.5287 O.2       3 UNK        -0.5000 
     57 CA          0.9532   -9.8105  -43.9643 C.3       3 UNK         0.1400 
     58 CB          1.2069   -9.6675  -42.4509 C.3       3 UNK        -0.1800 
     59 N           2.1679  -10.2335  -44.6746 N.am      3 UNK        -0.5000 
     60 C           2.8958  -11.3476  -44.5203 C.2       2 UNK         0.5000 
     61 O           2.6150  -12.2583  -43.7370 O.2       2 UNK        -0.5000 
     62 CA          4.1794  -11.4211  -45.3712 C.3       2 UNK         0.1400 
     63 CB          5.3356  -10.7044  -44.6563 C.3       2 UNK        -0.1800 
     64 N           4.5969  -12.7896  -45.6698 N.am      2 UNK        -0.5000 
     65 C           3.9030  -13.6714  -46.4004 C.2       1 UNK         0.5000 
     66 O           2.8199  -13.4039  -46.9209 O.2       1 UNK        -0.5000 
     67 C          -2.3493  -20.5400  -48.7210 C.2       11 UNK         0.5000 
     68 O          -2.8606  -19.6795  -49.4389 O.2       11 UNK        -0.5000 
     69 N          -3.0495  -21.4563  -48.0542 N.am      12 UNK        -0.5000 
     70 CA         -4.4765  -21.7227  -48.1335 C.3       12 UNK         0.1400 
     71 CB         -5.2981  -20.6235  -47.4377 C.3       12 UNK        -0.1800 
     72 C          -4.7120  -23.0989  -47.5036 C.2       12 UNK         0.5000 
     73 O          -5.2395  -23.9879  -48.1681 O.2       12 UNK        -0.5000 
     74 N          -4.2573  -23.2626  -46.2522 N.am      13 UNK        -0.5000 
     75 CA         -4.3747  -24.4912  -45.4665 C.3       13 UNK         0.1400 
     76 CB         -3.9826  -24.1984  -44.0092 C.3       13 UNK        -0.1800 
     77 C          -3.5465  -25.6564  -46.0371 C.2       13 UNK         0.5000 
     78 O          -4.1036  -26.7168  -46.3224 O.2       13 UNK        -0.5000 
     79 N          -2.2380  -25.4326  -46.2242 N.am      14 UNK        -0.5000 
     80 CA         -1.3090  -26.4161  -46.7925 C.3       14 UNK         0.1400 
     81 CB          0.1296  -26.0487  -46.3993 C.3       14 UNK        -0.1800 
     82 C          -1.4421  -26.5180  -48.3221 C.2       14 UNK         0.5000 
     83 O          -1.1360  -27.5615  -48.8987 O.2       14 UNK        -0.5000 
     84 N          -1.9282  -25.4355  -48.9413 N.am      15 UNK        -0.5000 
     85 CA         -2.2447  -25.3329  -50.3642 C.3       15 UNK         0.1400 
     86 CB         -2.2813  -23.8440  -50.7306 C.3       15 UNK        -0.1800 
     87 C          -3.5719  -26.0187  -50.7539 C.2       15 UNK         0.5000 
     88 O          -3.8959  -26.0570  -51.9439 O.2       15 UNK        -0.5000 
     89 N          -4.3299  -26.5024  -49.7547 N.am      16 UNK        -0.5000 
     90 CA         -5.6254  -27.1901  -49.8445 C.3       16 UNK         0.1400 
     91 CB         -5.4423  -28.5769  -50.4944 C.3       16 UNK        -0.1800 
     92 C          -6.7244  -26.3556  -50.5383 C.2       16 UNK         0.5000 
     93 O          -7.6362  -26.9198  -51.1451 O.2       16 UNK        -0.5000 
     94 N          -6.5827  -25.0233  -50.4721 N.am      17 UNK        -0.5000 
     95 CA         -7.3335  -23.9914  -51.1946 C.3       17 UNK         0.1400 
     96 CB         -8.7817  -23.9140  -50.6715 C.3       17 UNK        -0.1800 
     97 C          -7.2675  -24.1228  -52.7369 C.2       17 UNK         0.5000 
     98 O          -8.1076  -23.5445  -53.4285 O.2       17 UNK        -0.5000 
     99 N          -6.2940  -24.8881  -53.2505 N.am      18 UNK        -0.5000 
    100 CA        -6.1737  -25.2665  -54.6556 C.3       18 UNK         0.1400 
    101 CB        -6.1231  -26.8000  -54.7581 C.3       18 UNK        -0.1800 
    102 C         -4.9281  -24.6373  -55.2896 C.2       18 UNK         0.5000 
    103 O         -5.0377  -24.0193  -56.3494 O.2       18 UNK        -0.5000 
    104 N         -3.7680  -24.7904  -54.6342 N.am      19 UNK        -0.5000 
    105 CA        -2.4936  -24.2354  -55.1037 C.3       19 UNK         0.1400 
    106 CB        -1.3333  -25.0097  -54.4590 C.3       19 UNK        -0.1800 
    107 C         -2.3679  -22.7212  -54.8400 C.2       19 UNK         0.5000 
    108 O         -1.6124  -22.0415  -55.5353 O.2       19 UNK        -0.5000 
    109 N         -3.1209  -22.2272  -53.8532 N.am      20 UNK        -0.5000 
    110 CA        -3.2253  -20.8428  -53.4171 C.3       20 UNK         0.1400 
    111 CB        -1.9352  -20.3931  -52.7058 C.3       20 UNK        -0.1800 
    112 C         -4.4258  -20.7594  -52.4657 C.2       20 UNK         0.5000 
    113 O         -4.7670  -21.7611  -51.8306 O.2       20 UNK        -0.5000 
    114 N         -5.0372  -19.5751  -52.3839 N.am      21 UNK        -0.5000 
    115 CA        -6.1637  -19.2656  -51.5028 C.3       21 UNK         0.1400 
    116 CB        -7.4581  -19.9307  -52.0196 C.3       21 UNK        -0.1800 
    117 C         -6.3008  -17.7383  -51.3571 C.2       21 UNK         0.5000 
    118 O         -7.4154  -17.2136  -51.3697 O.2       21 UNK        -0.5000 
    119 N         -5.1611  -17.0401  -51.2651 N.am      22 UNK        -0.5000 
    120 CA        -5.0797  -15.5685  -51.2148 C.3       22 UNK         0.1400 
    121 C         -5.4114  -14.9240  -49.8348 C.2       22 UNK         0.5000 
    122 N         -5.6777  -15.6922  -48.7864 N.am      22 UNK        -0.7600 
    123 O         -5.4509  -13.7019  -49.7188 O.2       22 UNK        -0.5000 
    124 C124       -3.7447  -15.0486  -51.8091 C.3       23 UNK        -0.0398 
    125 S125       -2.2614  -15.6984  -50.9699 S.3       23 UNK        -0.2404 
    126 C126       -0.9976  -15.3995  -52.2446 C.3       23 UNK        -0.0205 
    127 H127        8.4979  -15.1873  -46.0746 H         1 UNK         0.0600 
    128 H128        8.4036  -16.3039  -44.7095 H         1 UNK         0.0600 
    129 H129        8.4274  -14.5600  -44.4249 H         1 UNK         0.0600 
    130 H130        6.5524  -14.9751  -47.1421 H         1 UNK         0.3000 
    131 H131        4.0276  -15.7059  -45.8549 H         1 UNK         0.0600 
    132 H132        3.1155  -15.7347  -48.1244 H         1 UNK         0.0800 
    133 H133        4.5163  -16.7369  -47.9889 H         1 UNK         0.0800 
    134 H134        3.9309  -13.7538  -51.2360 H         1 UNK         0.0800 
    135 H135        3.0261  -13.5704  -49.7530 H         1 UNK         0.0800 
    136 H136        1.1039  -13.8800  -51.3765 H         1 UNK         0.1150 
    137 H137       -0.0958  -17.9354  -52.0176 H         1 UNK         0.1150 
    138 H138        3.7794  -17.1045  -50.4213 H         1 UNK         0.1150 
    139 H139        1.5507  -19.7390  -51.7459 H         1 UNK         0.0800 
    140 H140        3.1792  -19.3791  -51.2291 H         1 UNK         0.0800 
    141 H141       -0.4392  -19.4205  -50.3062 H         1 UNK         0.0800 
    142 H142       -0.3053  -18.5093  -48.8267 H         1 UNK         0.0800 
    143 H143       -0.5099  -21.5500  -49.0210 H         1 UNK         0.0600 
    144 H144        0.0232  -19.8803  -46.7381 H         1 UNK         0.3000 
    145 H145       -0.7745  -21.3188  -44.2827 H         1 UNK         0.0600 
    146 H146        0.8401  -22.9485  -43.2999 H         1 UNK         0.0600 
    147 H147       -0.3952  -23.7330  -44.2661 H         1 UNK         0.0600 
    148 H148        1.2263  -23.5367  -44.9158 H         1 UNK         0.0600 
    149 H149        0.9173  -19.9152  -44.1669 H         1 UNK         0.3000 
    150 H150        4.1262  -19.9589  -44.5226 H         1 UNK         0.0600 
    151 H151        4.2135  -19.6220  -47.0172 H         1 UNK         0.0600 
    152 H152        4.5500  -18.1549  -46.1162 H         1 UNK         0.0600 
    153 H153        2.9709  -18.3821  -46.8770 H         1 UNK         0.0600 
    154 H154        1.7540  -18.1274  -44.6197 H         1 UNK         0.3000 
    155 H155        2.4297  -17.0678  -41.2706 H         1 UNK         0.0600 
    156 H156        3.6034  -15.3926  -42.6816 H         1 UNK         0.0600 
    157 H157        1.9799  -14.8472  -42.3017 H         1 UNK         0.0600 
    158 H158        2.3391  -15.4927  -43.8997 H         1 UNK         0.0600 
    159 H159        0.2443  -16.4842  -42.9476 H         1 UNK         0.3000 
    160 H160       -1.8436  -19.2115  -41.8773 H         1 UNK         0.0600 
    161 H161       -1.7551  -16.2047  -41.2794 H         1 UNK         0.0600 
    162 H162       -1.8156  -17.4899  -40.0772 H         1 UNK         0.0600 
    163 H163       -3.1747  -17.2420  -41.1630 H         1 UNK         0.0600 
    164 H164       -1.5679  -16.8765  -43.7389 H         1 UNK         0.3000 
    165 H165       -2.5363  -18.8298  -46.4752 H         1 UNK         0.0600 
    166 H166       -4.3668  -17.2781  -46.9155 H         1 UNK         0.0600 
    167 H167       -4.8392  -18.2826  -45.5562 H         1 UNK         0.0600 
    168 H168       -4.3006  -16.6348  -45.2731 H         1 UNK         0.0600 
    169 H169       -2.2190  -16.0374  -46.3167 H         1 UNK         0.3000 
    170 H170        1.2903  -15.7464  -46.1598 H         1 UNK         0.0600 
    171 H171        0.8040  -16.3424  -48.5467 H         1 UNK         0.0600 
    172 H172       -0.6641  -15.3788  -48.4939 H         1 UNK         0.0600 
    173 H173        0.9053  -14.6013  -48.3391 H         1 UNK         0.0600 
    174 H174       -0.4489  -13.6853  -46.5704 H         1 UNK         0.3000 
    175 H175       -1.9293  -12.6310  -45.0975 H         1 UNK         0.0600 
    176 H176       -2.8874  -13.7568  -43.0539 H         1 UNK         0.0600 
    177 H177       -1.4814  -13.2542  -42.1221 H         1 UNK         0.0600 
    178 H178       -2.5865  -12.0490  -42.7787 H         1 UNK         0.0600 
    179 H179        0.7383  -12.3719  -43.9249 H         1 UNK         0.3000 
    180 H180        0.7326   -8.8120  -44.3453 H         1 UNK         0.0600 
    181 H181        1.4245  -10.6260  -41.9791 H         1 UNK         0.0600 
    182 H182        0.3327   -9.2510  -41.9488 H         1 UNK         0.0600 
    183 H183        2.0444   -8.9985  -42.2531 H         1 UNK         0.0600 
    184 H184        2.4876   -9.5702  -45.3670 H         1 UNK         0.3000 
    185 H185        3.9922  -10.9189  -46.3227 H         1 UNK         0.0600 
    186 H186        5.0826   -9.6652  -44.4423 H         1 UNK         0.0600 
    187 H187        5.5788  -11.1843  -43.7073 H         1 UNK         0.0600 
    188 H188        6.2367  -10.6974  -45.2701 H         1 UNK         0.0600 
    189 H189        5.4535  -13.1052  -45.2404 H         1 UNK         0.3000 
    190 H190       -2.5078  -22.1181  -47.5023 H         1 UNK         0.3000 
    191 H191       -4.7690  -21.7722  -49.1834 H         1 UNK         0.0600 
    192 H192       -5.0187  -20.5143  -46.3896 H         1 UNK         0.0600 
    193 H193       -6.3634  -20.8542  -47.4732 H         1 UNK         0.0600 
    194 H194       -5.1608  -19.6578  -47.9235 H         1 UNK         0.0600 
    195 H195       -3.8418  -22.4723  -45.7812 H         1 UNK         0.3000 
    196 H196       -5.4234  -24.7962  -45.4780 H         1 UNK         0.0600 
    197 H197       -4.0508  -25.0987  -43.3971 H         1 UNK         0.0600 
    198 H198       -4.6457  -23.4551  -43.5661 H         1 UNK         0.0600 
    199 H199       -2.9617  -23.8230  -43.9301 H         1 UNK         0.0600 
    200 H200       -1.8592  -24.5075  -46.0487 H         1 UNK         0.3000 
    201 H201       -1.5349  -27.3983  -46.3719 H         1 UNK         0.0600 
    202 H202        0.2440  -26.0076  -45.3162 H         1 UNK         0.0600 
    203 H203        0.4268  -25.0825  -46.8081 H         1 UNK         0.0600 
    204 H204        0.8363  -26.7914  -46.7715 H         1 UNK         0.0600 
    205 H205       -2.1271  -24.6264  -48.3724 H         1 UNK         0.3000 
    206 H206       -1.4484  -25.8120  -50.9372 H         1 UNK         0.0600 
    207 H207       -1.3348  -23.3540  -50.5040 H         1 UNK         0.0600 
    208 H208       -2.4664  -23.7113  -51.7924 H         1 UNK         0.0600 
    209 H209       -3.0749  -23.3191  -50.2012 H         1 UNK         0.0600 
    210 H210       -3.9913  -26.3648  -48.8123 H         1 UNK         0.3000 
    211 H211       -5.9615  -27.3422  -48.8179 H         1 UNK         0.0600 
    212 H212       -5.1665  -28.4955  -51.5464 H         1 UNK         0.0600 
    213 H213       -6.3615  -29.1612  -50.4408 H         1 UNK         0.0600 
    214 H214       -4.6659  -29.1499  -49.9874 H         1 UNK         0.0600 
    215 H215       -5.8504  -24.6723  -49.8607 H         1 UNK         0.3000 
    216 H216       -6.8482  -23.0484  -50.9456 H         1 UNK         0.0600 
    217 H217       -9.3035  -23.0513  -51.0874 H         1 UNK         0.0600 
    218 H218       -8.8028  -23.8107  -49.5865 H         1 UNK         0.0600 
    219 H219       -9.3550  -24.8028  -50.9362 H         1 UNK         0.0600 
    220 H220       -5.6201  -25.3042  -52.6164 H         1 UNK         0.3000 
    221 H221       -7.0419  -24.9242  -55.2225 H         1 UNK         0.0600 
    222 H222       -5.2851  -27.2184  -54.1990 H         1 UNK         0.0600 
    223 H223       -7.0371  -27.2474  -54.3669 H         1 UNK         0.0600 
    224 H224       -6.0212  -27.1203  -55.7957 H         1 UNK         0.0600 
    225 H225       -3.7533  -25.3134  -53.7635 H         1 UNK         0.3000 
    226 H226       -2.4273  -24.3816  -56.1841 H         1 UNK         0.0600 
    227 H227       -1.3769  -26.0678  -54.7176 H         1 UNK         0.0600 
    228 H228       -0.3712  -24.6309  -54.8061 H         1 UNK         0.0600 
    229 H229       -1.3420  -24.9328  -53.3732 H         1 UNK         0.0600 
    230 H230       -3.7386  -22.8505  -53.3479 H         1 UNK         0.3000 
    231 H231       -3.4126  -20.2101  -54.2868 H         1 UNK         0.0600 
    232 H232       -1.0818  -20.3908  -53.3835 H         1 UNK         0.0600 
    233 H233       -1.6948  -21.0459  -51.8663 H         1 UNK         0.0600 
    234 H234       -2.0402  -19.3807  -52.3144 H         1 UNK         0.0600 
    235 H235       -4.7068  -18.8057  -52.9500 H         1 UNK         0.3000 
    236 H236       -5.9430  -19.6581  -50.5080 H         1 UNK         0.0600 
    237 H237       -8.2934  -19.7426  -51.3441 H         1 UNK         0.0600 
    238 H238       -7.7359  -19.5505  -53.0031 H         1 UNK         0.0600 
    239 H239       -7.3542  -21.0110  -52.1016 H         1 UNK         0.0600 
    240 H240       -4.2817  -17.5321  -51.1847 H         1 UNK         0.3000 
    241 H241       -5.8612  -15.1898  -51.8764 H         1 UNK         0.0600 
    242 H242       -5.9098  -15.2630  -47.9053 H         1 UNK         0.3800 
    243 H243       -5.6663  -16.6942  -48.8749 H         1 UNK         0.3800 
    244 H244       -3.6949  -15.3284  -52.8622 H         1 UNK         0.0800 
    245 H245       -3.7083  -13.9579  -51.7933 H         1 UNK         0.0800 
    246 H246       -1.2624  -15.9347  -53.1577 H         1 UNK         0.0800 
    247 H247       -0.9791  -14.3381  -52.4965 H         1 UNK         0.0800 
@<TRIPOS>BOND
     1    1    2 1    
     2    1  127 1    
     3    1  128 1    
     4    1  129 1    
     5    2    3 2    
     6    2    4 am   BACKBONE|DICT|INTERRES
     7    4    5 1    
     8    4  130 1    
     9    5    6 1    
    10    5   65 1    
    11    5  131 1    
    12    6    7 1    
    13    6  132 1    
    14    6  133 1    
    15    7    8 1    
    16    8    9 1    
    17    8  134 1    
    18    8  135 1    
    19    9   10 ar   
    20    9   14 ar   
    21   10   11 ar   
    22   10  136 1    
    23   11   12 ar   
    24   11  126 1    
    25   12   13 ar   
    26   12  137 1    
    27   13   14 ar   
    28   13   15 1    
    29   14  138 1    
    30   15   16 1    
    31   15  139 1    
    32   15  140 1    
    33   16   17 1    
    34   17   18 1    
    35   17  141 1    
    36   17  142 1    
    37   18   19 1    
    38   18   67 1    
    39   18  143 1    
    40   19   20 am   BACKBONE|DICT|INTERRES
    41   19  144 1    
    42   20   21 2    
    43   20   22 1    
    44   22   23 1    
    45   22   24 1    
    46   22  145 1    
    47   23  146 1    
    48   23  147 1    
    49   23  148 1    
    50   24   25 am   BACKBONE|DICT|INTERRES
    51   24  149 1    
    52   25   26 2    
    53   25   27 1    
    54   27   28 1    
    55   27   29 1    
    56   27  150 1    
    57   28  151 1    
    58   28  152 1    
    59   28  153 1    
    60   29   30 am   BACKBONE|DICT|INTERRES
    61   29  154 1    
    62   30   31 2    
    63   30   32 1    
    64   32   33 1    
    65   32   34 1    
    66   32  155 1    
    67   33  156 1    
    68   33  157 1    
    69   33  158 1    
    70   34   35 am   BACKBONE|DICT|INTERRES
    71   34  159 1    
    72   35   36 2    
    73   35   37 1    
    74   37   38 1    
    75   37   39 1    
    76   37  160 1    
    77   38  161 1    
    78   38  162 1    
    79   38  163 1    
    80   39   40 am   BACKBONE|DICT|INTERRES
    81   39  164 1    
    82   40   41 2    
    83   40   42 1    
    84   42   43 1    
    85   42   44 1    
    86   42  165 1    
    87   43  166 1    
    88   43  167 1    
    89   43  168 1    
    90   44   45 am   BACKBONE|DICT|INTERRES
    91   44  169 1    
    92   45   46 2    
    93   45   47 1    
    94   47   48 1    
    95   47   49 1    
    96   47  170 1    
    97   48  171 1    
    98   48  172 1    
    99   48  173 1    
   100   49   50 am   BACKBONE|DICT|INTERRES
   101   49  174 1    
   102   50   51 2    
   103   50   52 1    
   104   52   53 1    
   105   52   54 1    
   106   52  175 1    
   107   53  176 1    
   108   53  177 1    
   109   53  178 1    
   110   54   55 am   BACKBONE|DICT|INTERRES
   111   54  179 1    
   112   55   56 2    
   113   55   57 1    
   114   57   58 1    
   115   57   59 1    
   116   57  180 1    
   117   58  181 1    
   118   58  182 1    
   119   58  183 1    
   120   59   60 am   BACKBONE|DICT|INTERRES
   121   59  184 1    
   122   60   61 2    
   123   60   62 1    
   124   62   63 1    
   125   62   64 1    
   126   62  185 1    
   127   63  186 1    
   128   63  187 1    
   129   63  188 1    
   130   64   65 am   BACKBONE|DICT|INTERRES
   131   64  189 1    
   132   65   66 2    
   133   67   68 2    
   134   67   69 am   BACKBONE|DICT|INTERRES
   135   69   70 1    
   136   69  190 1    
   137   70   71 1    
   138   70   72 1    
   139   70  191 1    
   140   71  192 1    
   141   71  193 1    
   142   71  194 1    
   143   72   73 2    
   144   72   74 am   BACKBONE|DICT|INTERRES
   145   74   75 1    
   146   74  195 1    
   147   75   76 1    
   148   75   77 1    
   149   75  196 1    
   150   76  197 1    
   151   76  198 1    
   152   76  199 1    
   153   77   78 2    
   154   77   79 am   BACKBONE|DICT|INTERRES
   155   79   80 1    
   156   79  200 1    
   157   80   81 1    
   158   80   82 1    
   159   80  201 1    
   160   81  202 1    
   161   81  203 1    
   162   81  204 1    
   163   82   83 2    
   164   82   84 am   BACKBONE|DICT|INTERRES
   165   84   85 1    
   166   84  205 1    
   167   85   86 1    
   168   85   87 1    
   169   85  206 1    
   170   86  207 1    
   171   86  208 1    
   172   86  209 1    
   173   87   88 2    
   174   87   89 am   BACKBONE|DICT|INTERRES
   175   89   90 1    
   176   89  210 1    
   177   90   91 1    
   178   90   92 1    
   179   90  211 1    
   180   91  212 1    
   181   91  213 1    
   182   91  214 1    
   183   92   93 2    
   184   92   94 am   BACKBONE|DICT|INTERRES
   185   94   95 1    
   186   94  215 1    
   187   95   96 1    
   188   95   97 1    
   189   95  216 1    
   190   96  217 1    
   191   96  218 1    
   192   96  219 1    
   193   97   98 2    
   194   97   99 am   BACKBONE|DICT|INTERRES
   195   99  100 1    
   196   99  220 1    
   197  100  101 1    
   198  100  102 1    
   199  100  221 1    
   200  101  222 1    
   201  101  223 1    
   202  101  224 1    
   203  102  103 2    
   204  102  104 am   BACKBONE|DICT|INTERRES
   205  104  105 1    
   206  104  225 1    
   207  105  106 1    
   208  105  107 1    
   209  105  226 1    
   210  106  227 1    
   211  106  228 1    
   212  106  229 1    
   213  107  108 2    
   214  107  109 am   BACKBONE|DICT|INTERRES
   215  109  110 1    
   216  109  230 1    
   217  110  111 1    
   218  110  112 1    
   219  110  231 1    
   220  111  232 1    
   221  111  233 1    
   222  111  234 1    
   223  112  113 2    
   224  112  114 am   BACKBONE|DICT|INTERRES
   225  114  115 1    
   226  114  235 1    
   227  115  116 1    
   228  115  117 1    
   229  115  236 1    
   230  116  237 1    
   231  116  238 1    
   232  116  239 1    
   233  117  118 2    
   234  117  119 am   BACKBONE|DICT|INTERRES
   235  119  120 1    
   236  119  240 1    
   237  120  121 1    
   238  120  124 1    
   239  120  241 1    
   240  121  122 am   BACKBONE|DICT|INTERRES
   241  121  123 2    
   242  122  242 1    
   243  122  243 1    
   244  124  125 1    
   245  124  244 1    
   246  124  245 1    
   247  125  126 1    
   248  126  246 1    
   249  126  247 1    
@<TRIPOS>SUBSTRUCTURE
     1 UNK         1 GROUP             0       ****    0 ROOT    
