@<TRIPOS>MOLECULE
3R540
247   249    1
SMALL
USER_CHARGES


@<TRIPOS>ATOM
      1 CA         -1.8956   -9.5220  -47.6998 C.3       0 UNK        -0.1800 
      2 C          -0.9518  -10.5129  -48.3672 C.2       0 UNK         0.5000 
      3 O           0.1510  -10.1357  -48.7640 O.2       0 UNK        -0.5000 
      4 N          -1.3852  -11.7721  -48.5004 N.am      1 UNK        -0.5000 
      5 CA         -0.5843  -12.8814  -49.0263 C.3       1 UNK         0.1400 
      6 C6         -1.4966  -14.0387  -49.5087 C.3       23 UNK        -0.0398 
      7 S7         -0.6680  -15.1232  -50.7200 S.3       23 UNK        -0.2404 
      8 C8         -0.6515  -16.7147  -49.8290 C.3       23 UNK        -0.0205 
      9 C9          0.2855  -17.7432  -50.4552 C.ar      23 UNK        -0.0193 
     10 C10         0.3214  -17.9403  -51.8397 C.ar      23 UNK        -0.1150 
     11 C11         1.1747  -18.8888  -52.4075 C.ar      23 UNK        -0.0193 
     12 C12         1.9921  -19.6600  -51.5785 C.ar      23 UNK        -0.1150 
     13 C13         1.9638  -19.4812  -50.1924 C.ar      23 UNK        -0.0193 
     14 C14         1.1128  -18.5203  -49.6383 C.ar      23 UNK        -0.1150 
     15 C15         2.8609  -20.3220  -49.2985 C.3       23 UNK        -0.0205 
     16 S16         2.0302  -21.8489  -48.7634 S.3       23 UNK        -0.2404 
     17 C17         1.0089  -21.2341  -47.3830 C.3       23 UNK        -0.0398 
     18 CA          0.4217  -22.3912  -46.5409 C.3       11 UNK         0.1400 
     19 N           0.1899  -22.0071  -45.1478 N.am      11 UNK        -0.5000 
     20 C          -0.1035  -22.8693  -44.1643 C.2       10 UNK         0.5000 
     21 O          -0.1598  -24.0894  -44.3203 O.2       10 UNK        -0.5000 
     22 CA         -0.4416  -22.2637  -42.7898 C.3       10 UNK         0.1400 
     23 CB          0.8362  -21.9058  -42.0168 C.3       10 UNK        -0.1800 
     24 N          -1.3039  -21.0855  -42.8974 N.am      10 UNK        -0.5000 
     25 C          -2.5541  -21.1113  -43.3820 C.2       9 UNK         0.5000 
     26 O          -3.1293  -22.1435  -43.7271 O.2       9 UNK        -0.5000 
     27 CA         -3.2662  -19.7572  -43.5525 C.3       9 UNK         0.1400 
     28 CB         -3.8621  -19.2838  -42.2187 C.3       9 UNK        -0.1800 
     29 N          -2.3934  -18.7183  -44.1021 N.am      9 UNK        -0.5000 
     30 C          -1.8230  -18.7606  -45.3152 C.2       8 UNK         0.5000 
     31 O          -1.9943  -19.6717  -46.1223 O.2       8 UNK        -0.5000 
     32 CA         -0.8477  -17.6252  -45.6674 C.3       8 UNK         0.1400 
     33 CB         -1.6070  -16.3561  -46.0762 C.3       8 UNK        -0.1800 
     34 N           0.0751  -17.3284  -44.5722 N.am      8 UNK        -0.5000 
     35 C           0.9692  -18.1990  -44.0816 C.2       7 UNK         0.5000 
     36 O           1.1544  -19.3236  -44.5454 O.2       7 UNK        -0.5000 
     37 CA          1.7432  -17.7628  -42.8271 C.3       7 UNK         0.1400 
     38 CB          2.9595  -16.8984  -43.1959 C.3       7 UNK        -0.1800 
     39 N           0.8816  -17.0447  -41.8873 N.am      7 UNK        -0.5000 
     40 C          -0.0941  -17.6221  -41.1708 C.2       6 UNK         0.5000 
     41 O          -0.3368  -18.8286  -41.1968 O.2       6 UNK        -0.5000 
     42 CA         -0.9699  -16.6900  -40.3123 C.3       6 UNK         0.1400 
     43 CB         -0.2955  -16.4066  -38.9618 C.3       6 UNK        -0.1800 
     44 N          -1.2674  -15.4222  -40.9805 N.am      6 UNK        -0.5000 
     45 C          -2.0252  -15.3038  -42.0802 C.2       5 UNK         0.5000 
     46 O          -2.6005  -16.2500  -42.6154 O.2       5 UNK        -0.5000 
     47 CA         -2.1102  -13.9037  -42.7207 C.3       5 UNK         0.1400 
     48 CB         -3.2837  -13.1103  -42.1279 C.3       5 UNK        -0.1800 
     49 N          -0.8765  -13.1218  -42.5860 N.am      5 UNK        -0.5000 
     50 C           0.3148  -13.4982  -43.0678 C.2       4 UNK         0.5000 
     51 O           0.5034  -14.5590  -43.6714 O.2       4 UNK        -0.5000 
     52 CA          1.5025  -12.5767  -42.7607 C.3       4 UNK         0.1400 
     53 CB          1.9188  -12.7168  -41.2825 C.3       4 UNK        -0.1800 
     54 N           2.6010  -12.9650  -43.6345 N.am      4 UNK        -0.5000 
     55 C           3.7478  -12.3086  -43.8387 C.2       3 UNK         0.5000 
     56 O           4.0326  -11.2379  -43.3009 O.2       3 UNK        -0.5000 
     57 CA          4.7519  -12.9643  -44.8080 C.3       3 UNK         0.1400 
     58 CB          5.7886  -13.7859  -44.0258 C.3       3 UNK        -0.1800 
     59 N           4.1017  -13.8359  -45.7899 N.am      3 UNK        -0.5000 
     60 C           3.4026  -13.3979  -46.8452 C.2       2 UNK         0.5000 
     61 O           3.3346  -12.2079  -47.1627 O.2       2 UNK        -0.5000 
     62 CA          2.6908  -14.4713  -47.7004 C.3       2 UNK         0.1400 
     63 CB          2.2504  -15.7068  -46.8827 C.3       2 UNK        -0.1800 
     64 N           1.5581  -13.9351  -48.4643 N.am      2 UNK        -0.5000 
     65 C           0.4509  -13.3532  -47.9788 C.2       1 UNK         0.5000 
     66 O           0.2158  -13.2055  -46.7767 O.2       1 UNK        -0.5000 
     67 C          -0.8454  -22.9899  -47.1854 C.2       11 UNK         0.5000 
     68 O          -0.7562  -24.0434  -47.8098 O.2       11 UNK        -0.5000 
     69 N          -2.0039  -22.3476  -46.9741 N.am      12 UNK        -0.5000 
     70 CA         -3.3208  -22.7954  -47.4365 C.3       12 UNK         0.1400 
     71 CB         -4.3670  -21.7248  -47.0954 C.3       12 UNK        -0.1800 
     72 C          -3.7415  -24.1652  -46.8730 C.2       12 UNK         0.5000 
     73 O          -4.3897  -24.9384  -47.5783 O.2       12 UNK        -0.5000 
     74 N          -3.3557  -24.4499  -45.6220 N.am      13 UNK        -0.5000 
     75 CA         -3.5440  -25.7504  -44.9817 C.3       13 UNK         0.1400 
     76 CB         -3.3279  -25.6100  -43.4672 C.3       13 UNK        -0.1800 
     77 C          -2.6225  -26.8368  -45.5703 C.2       13 UNK         0.5000 
     78 O          -3.0457  -27.9875  -45.6877 O.2       13 UNK        -0.5000 
     79 N          -1.3874  -26.4588  -45.9278 N.am      14 UNK        -0.5000 
     80 CA         -0.3891  -27.3442  -46.5273 C.3       14 UNK         0.1400 
     81 CB          1.0080  -26.7236  -46.3689 C.3       14 UNK        -0.1800 
     82 C          -0.6845  -27.6647  -48.0048 C.2       14 UNK         0.5000 
     83 O          -0.5671  -28.8239  -48.4053 O.2       14 UNK        -0.5000 
     84 N          -1.0612  -26.6446  -48.7838 N.am      15 UNK        -0.5000 
     85 CA         -1.3787  -26.7345  -50.2035 C.3       15 UNK         0.1400 
     86 CB         -0.1488  -26.3279  -51.0327 C.3       15 UNK        -0.1800 
     87 C          -2.5746  -25.8209  -50.4948 C.2       15 UNK         0.5000 
     88 O          -2.4617  -24.6027  -50.3525 O.2       15 UNK        -0.5000 
     89 N          -3.6954  -26.4209  -50.9172 N.am      16 UNK        -0.5000 
     90 CA         -4.9894  -25.7602  -51.1253 C.3       16 UNK         0.1400 
     91 CB         -6.0283  -26.8159  -51.5323 C.3       16 UNK        -0.1800 
     92 C          -4.9822  -24.5979  -52.1381 C.2       16 UNK         0.5000 
     93 O          -5.8341  -23.7157  -52.0424 O.2       16 UNK        -0.5000 
     94 N          -4.0159  -24.5906  -53.0676 N.am      17 UNK        -0.5000 
     95 CA         -3.8012  -23.5183  -54.0418 C.3       17 UNK         0.1400 
     96 CB         -2.6607  -23.9148  -54.9909 C.3       17 UNK        -0.1800 
     97 C          -3.5055  -22.1538  -53.3910 C.2       17 UNK         0.5000 
     98 O          -3.9757  -21.1304  -53.8894 O.2       17 UNK        -0.5000 
     99 N          -2.7799  -22.1567  -52.2634 N.am      18 UNK        -0.5000 
    100 CA        -2.4172  -20.9505  -51.5168 C.3       18 UNK         0.1400 
    101 CB        -1.3198  -21.2856  -50.5005 C.3       18 UNK        -0.1800 
    102 C         -3.6168  -20.2501  -50.8482 C.2       18 UNK         0.5000 
    103 O         -3.5249  -19.0569  -50.5616 O.2       18 UNK        -0.5000 
    104 N         -4.7451  -20.9598  -50.6808 N.am      19 UNK        -0.5000 
    105 CA        -6.0236  -20.3870  -50.2436 C.3       19 UNK         0.1400 
    106 CB        -7.0173  -21.5182  -49.9359 C.3       19 UNK        -0.1800 
    107 C         -6.6287  -19.4221  -51.2851 C.2       19 UNK         0.5000 
    108 O         -7.3588  -18.5046  -50.9108 O.2       19 UNK        -0.5000 
    109 N         -6.2897  -19.6325  -52.5642 N.am      20 UNK        -0.5000 
    110 CA        -6.6373  -18.7772  -53.6989 C.3       20 UNK         0.1400 
    111 CB        -7.1441  -19.6744  -54.8419 C.3       20 UNK        -0.1800 
    112 C         -5.4296  -17.9245  -54.1435 C.2       20 UNK         0.5000 
    113 O         -5.4060  -17.4477  -55.2800 O.2       20 UNK        -0.5000 
    114 N         -4.4241  -17.7850  -53.2632 N.am      21 UNK        -0.5000 
    115 CA        -3.1460  -17.0914  -53.4631 C.3       21 UNK         0.1400 
    116 CB        -3.3645  -15.5671  -53.5384 C.3       21 UNK        -0.1800 
    117 C         -2.3206  -17.6381  -54.6513 C.2       21 UNK         0.5000 
    118 O         -1.5352  -16.8998  -55.2474 O.2       21 UNK        -0.5000 
    119 N         -2.5265  -18.9211  -54.9765 N.am      22 UNK        -0.5000 
    120 CA        -1.9652  -19.6470  -56.1267 C.3       22 UNK         0.1400 
    121 C         -2.4975  -19.1647  -57.5112 C.2       22 UNK         0.5000 
    122 N         -3.5934  -18.4156  -57.5791 N.am      22 UNK        -0.7600 
    123 O         -1.9298  -19.4987  -58.5479 O.2       22 UNK        -0.5000 
    124 C124       -0.4179  -19.7941  -56.0855 C.3       23 UNK        -0.0398 
    125 S125        0.1914  -20.4363  -54.4836 S.3       23 UNK        -0.2404 
    126 C126        1.2293  -19.0519  -53.9172 C.3       23 UNK        -0.0205 
    127 H127       -2.8381   -9.9890  -47.4128 H         1 UNK         0.0600 
    128 H128       -2.1172   -8.6985  -48.3787 H         1 UNK         0.0600 
    129 H129       -1.4334   -9.1107  -46.8024 H         1 UNK         0.0600 
    130 H130       -2.2856  -12.0238  -48.1194 H         1 UNK         0.3000 
    131 H131       -0.0361  -12.4986  -49.8905 H         1 UNK         0.0600 
    132 H132       -2.3719  -13.6309  -50.0166 H         1 UNK         0.0800 
    133 H133       -1.8866  -14.6163  -48.6690 H         1 UNK         0.0800 
    134 H134       -1.6622  -17.1243  -49.8035 H         1 UNK         0.0800 
    135 H135       -0.3607  -16.5305  -48.7948 H         1 UNK         0.0800 
    136 H136       -0.3004  -17.3385  -52.4838 H         1 UNK         0.1150 
    137 H137        2.6502  -20.3991  -52.0133 H         1 UNK         0.1150 
    138 H138        1.0914  -18.3875  -48.5669 H         1 UNK         0.1150 
    139 H139        3.7692  -20.5912  -49.8395 H         1 UNK         0.0800 
    140 H140        3.1872  -19.7454  -48.4315 H         1 UNK         0.0800 
    141 H141        0.2278  -20.5703  -47.7566 H         1 UNK         0.0800 
    142 H142        1.6578  -20.6175  -46.7609 H         1 UNK         0.0800 
    143 H143        1.1676  -23.1886  -46.5039 H         1 UNK         0.0600 
    144 H144        0.2644  -21.0182  -44.9274 H         1 UNK         0.3000 
    145 H145       -0.9818  -23.0212  -42.2182 H         1 UNK         0.0600 
    146 H146        0.6020  -21.5411  -41.0166 H         1 UNK         0.0600 
    147 H147        1.4147  -21.1351  -42.5260 H         1 UNK         0.0600 
    148 H148        1.4802  -22.7786  -41.9029 H         1 UNK         0.0600 
    149 H149       -0.9163  -20.2031  -42.5799 H         1 UNK         0.3000 
    150 H150       -4.0887  -19.9013  -44.2552 H         1 UNK         0.0600 
    151 H151       -4.5284  -20.0382  -41.7985 H         1 UNK         0.0600 
    152 H152       -4.4452  -18.3721  -42.3497 H         1 UNK         0.0600 
    153 H153       -3.0868  -19.0813  -41.4796 H         1 UNK         0.0600 
    154 H154       -2.2434  -17.8994  -43.5192 H         1 UNK         0.3000 
    155 H155       -0.2517  -17.9525  -46.5213 H         1 UNK         0.0600 
    156 H156       -2.2497  -16.5475  -46.9362 H         1 UNK         0.0600 
    157 H157       -0.9181  -15.5599  -46.3518 H         1 UNK         0.0600 
    158 H158       -2.2402  -15.9848  -45.2716 H         1 UNK         0.0600 
    159 H159        0.0207  -16.4024  -44.1584 H         1 UNK         0.3000 
    160 H160        2.1104  -18.6641  -42.3316 H         1 UNK         0.0600 
    161 H161        2.6715  -15.9878  -43.7184 H         1 UNK         0.0600 
    162 H162        3.6396  -17.4465  -43.8490 H         1 UNK         0.0600 
    163 H163        3.5229  -16.6107  -42.3082 H         1 UNK         0.0600 
    164 H164        0.9703  -16.0396  -41.8689 H         1 UNK         0.3000 
    165 H165       -1.9146  -17.2034  -40.1212 H         1 UNK         0.0600 
    166 H166       -0.9414  -15.8116  -38.3160 H         1 UNK         0.0600 
    167 H167       -0.0760  -17.3353  -38.4333 H         1 UNK         0.0600 
    168 H168        0.6452  -15.8682  -39.0846 H         1 UNK         0.0600 
    169 H169       -0.8352  -14.5924  -40.6028 H         1 UNK         0.3000 
    170 H170       -2.2966  -14.0417  -43.7875 H         1 UNK         0.0600 
    171 H171       -3.1393  -12.9098  -41.0656 H         1 UNK         0.0600 
    172 H172       -3.4110  -12.1546  -42.6367 H         1 UNK         0.0600 
    173 H173       -4.2198  -13.6604  -42.2341 H         1 UNK         0.0600 
    174 H174       -0.9516  -12.2451  -42.0906 H         1 UNK         0.3000 
    175 H175        1.2170  -11.5460  -42.9792 H         1 UNK         0.0600 
    176 H176        2.2293  -13.7360  -41.0486 H         1 UNK         0.0600 
    177 H177        2.7464  -12.0525  -41.0344 H         1 UNK         0.0600 
    178 H178        1.0967  -12.4612  -40.6131 H         1 UNK         0.0600 
    179 H179        2.4103  -13.8090  -44.1592 H         1 UNK         0.3000 
    180 H180        5.2763  -12.1658  -45.3374 H         1 UNK         0.0600 
    181 H181        6.5405  -14.2098  -44.6916 H         1 UNK         0.0600 
    182 H182        5.3230  -14.6062  -43.4777 H         1 UNK         0.0600 
    183 H183        6.3130  -13.1628  -43.3001 H         1 UNK         0.0600 
    184 H184        4.1473  -14.8284  -45.6132 H         1 UNK         0.3000 
    185 H185        3.4204  -14.8053  -48.4393 H         1 UNK         0.0600 
    186 H186        1.6183  -15.4264  -46.0404 H         1 UNK         0.0600 
    187 H187        1.6861  -16.4030  -47.4995 H         1 UNK         0.0600 
    188 H188        3.1050  -16.2579  -46.4896 H         1 UNK         0.0600 
    189 H189        1.6553  -13.9960  -49.4681 H         1 UNK         0.3000 
    190 H190       -1.9839  -21.4548  -46.4849 H         1 UNK         0.3000 
    191 H191       -3.2837  -22.8917  -48.5216 H         1 UNK         0.0600 
    192 H192       -4.1502  -20.7860  -47.6053 H         1 UNK         0.0600 
    193 H193       -4.4017  -21.5248  -46.0255 H         1 UNK         0.0600 
    194 H194       -5.3656  -22.0395  -47.3955 H         1 UNK         0.0600 
    195 H195       -2.8976  -23.7284  -45.0762 H         1 UNK         0.3000 
    196 H196       -4.5767  -26.0652  -45.1460 H         1 UNK         0.0600 
    197 H197       -4.0170  -24.8830  -43.0369 H         1 UNK         0.0600 
    198 H198       -2.3136  -25.2879  -43.2313 H         1 UNK         0.0600 
    199 H199       -3.4972  -26.5603  -42.9594 H         1 UNK         0.0600 
    200 H200       -1.1106  -25.4959  -45.7796 H         1 UNK         0.3000 
    201 H201       -0.3964  -28.2868  -45.9758 H         1 UNK         0.0600 
    202 H202        1.2433  -26.5458  -45.3193 H         1 UNK         0.0600 
    203 H203        1.0921  -25.7724  -46.8947 H         1 UNK         0.0600 
    204 H204        1.7763  -27.3870  -46.7677 H         1 UNK         0.0600 
    205 H205       -1.1113  -25.7048  -48.3878 H         1 UNK         0.3000 
    206 H206       -1.6505  -27.7594  -50.4647 H         1 UNK         0.0600 
    207 H207        0.1834  -25.3176  -50.7886 H         1 UNK         0.0600 
    208 H208        0.6864  -27.0054  -50.8553 H         1 UNK         0.0600 
    209 H209       -0.3703  -26.3539  -52.1002 H         1 UNK         0.0600 
    210 H210       -3.6937  -27.4252  -51.0219 H         1 UNK         0.3000 
    211 H211       -5.2933  -25.3383  -50.1653 H         1 UNK         0.0600 
    212 H212       -5.7585  -27.3046  -52.4693 H         1 UNK         0.0600 
    213 H213       -7.0124  -26.3651  -51.6684 H         1 UNK         0.0600 
    214 H214       -6.1300  -27.5858  -50.7672 H         1 UNK         0.0600 
    215 H215       -3.3535  -25.3516  -53.0716 H         1 UNK         0.3000 
    216 H216       -4.7162  -23.4121  -54.6282 H         1 UNK         0.0600 
    217 H217       -2.4964  -23.1465  -55.7473 H         1 UNK         0.0600 
    218 H218       -2.8884  -24.8423  -55.5164 H         1 UNK         0.0600 
    219 H219       -1.7206  -24.0530  -54.4551 H         1 UNK         0.0600 
    220 H220       -2.4897  -23.0417  -51.8623 H         1 UNK         0.3000 
    221 H221       -1.9959  -20.2330  -52.2242 H         1 UNK         0.0600 
    222 H222       -1.6025  -22.1192  -49.8630 H         1 UNK         0.0600 
    223 H223       -0.3912  -21.5555  -51.0036 H         1 UNK         0.0600 
    224 H224       -1.1033  -20.4334  -49.8561 H         1 UNK         0.0600 
    225 H225       -4.7631  -21.9258  -50.9811 H         1 UNK         0.3000 
    226 H226       -5.8431  -19.8259  -49.3244 H         1 UNK         0.0600 
    227 H227       -6.5690  -22.3006  -49.3251 H         1 UNK         0.0600 
    228 H228       -7.8827  -21.1340  -49.3949 H         1 UNK         0.0600 
    229 H229       -7.3899  -21.9858  -50.8477 H         1 UNK         0.0600 
    230 H230       -5.6574  -20.3952  -52.7781 H         1 UNK         0.3000 
    231 H231       -7.4373  -18.0868  -53.4253 H         1 UNK         0.0600 
    232 H232       -7.4844  -19.0791  -55.6900 H         1 UNK         0.0600 
    233 H233       -7.9869  -20.2854  -54.5184 H         1 UNK         0.0600 
    234 H234       -6.3630  -20.3451  -55.2023 H         1 UNK         0.0600 
    235 H235       -4.5287  -18.2257  -52.3578 H         1 UNK         0.3000 
    236 H236       -2.5615  -17.2932  -52.5658 H         1 UNK         0.0600 
    237 H237       -3.9080  -15.2806  -54.4391 H         1 UNK         0.0600 
    238 H238       -3.9261  -15.2071  -52.6764 H         1 UNK         0.0600 
    239 H239       -2.4125  -15.0349  -53.5457 H         1 UNK         0.0600 
    240 H240       -3.1914  -19.4631  -54.4337 H         1 UNK         0.3000 
    241 H241       -2.3683  -20.6551  -56.0349 H         1 UNK         0.0600 
    242 H242       -3.9330  -18.1195  -58.4803 H         1 UNK         0.3800 
    243 H243       -4.0871  -18.1294  -56.7411 H         1 UNK         0.3800 
    244 H244        0.0597  -18.8440  -56.3263 H         1 UNK         0.0800 
    245 H245       -0.0894  -20.4915  -56.8575 H         1 UNK         0.0800 
    246 H246        2.2579  -19.2205  -54.2391 H         1 UNK         0.0800 
    247 H247        0.9133  -18.1199  -54.3874 H         1 UNK         0.0800 
@<TRIPOS>BOND
     1    1    2 1    
     2    1  127 1    
     3    1  128 1    
     4    1  129 1    
     5    2    3 2    
     6    2    4 am   BACKBONE|DICT|INTERRES
     7    4    5 1    
     8    4  130 1    
     9    5    6 1    
    10    5   65 1    
    11    5  131 1    
    12    6    7 1    
    13    6  132 1    
    14    6  133 1    
    15    7    8 1    
    16    8    9 1    
    17    8  134 1    
    18    8  135 1    
    19    9   10 ar   
    20    9   14 ar   
    21   10   11 ar   
    22   10  136 1    
    23   11   12 ar   
    24   11  126 1    
    25   12   13 ar   
    26   12  137 1    
    27   13   14 ar   
    28   13   15 1    
    29   14  138 1    
    30   15   16 1    
    31   15  139 1    
    32   15  140 1    
    33   16   17 1    
    34   17   18 1    
    35   17  141 1    
    36   17  142 1    
    37   18   19 1    
    38   18   67 1    
    39   18  143 1    
    40   19   20 am   BACKBONE|DICT|INTERRES
    41   19  144 1    
    42   20   21 2    
    43   20   22 1    
    44   22   23 1    
    45   22   24 1    
    46   22  145 1    
    47   23  146 1    
    48   23  147 1    
    49   23  148 1    
    50   24   25 am   BACKBONE|DICT|INTERRES
    51   24  149 1    
    52   25   26 2    
    53   25   27 1    
    54   27   28 1    
    55   27   29 1    
    56   27  150 1    
    57   28  151 1    
    58   28  152 1    
    59   28  153 1    
    60   29   30 am   BACKBONE|DICT|INTERRES
    61   29  154 1    
    62   30   31 2    
    63   30   32 1    
    64   32   33 1    
    65   32   34 1    
    66   32  155 1    
    67   33  156 1    
    68   33  157 1    
    69   33  158 1    
    70   34   35 am   BACKBONE|DICT|INTERRES
    71   34  159 1    
    72   35   36 2    
    73   35   37 1    
    74   37   38 1    
    75   37   39 1    
    76   37  160 1    
    77   38  161 1    
    78   38  162 1    
    79   38  163 1    
    80   39   40 am   BACKBONE|DICT|INTERRES
    81   39  164 1    
    82   40   41 2    
    83   40   42 1    
    84   42   43 1    
    85   42   44 1    
    86   42  165 1    
    87   43  166 1    
    88   43  167 1    
    89   43  168 1    
    90   44   45 am   BACKBONE|DICT|INTERRES
    91   44  169 1    
    92   45   46 2    
    93   45   47 1    
    94   47   48 1    
    95   47   49 1    
    96   47  170 1    
    97   48  171 1    
    98   48  172 1    
    99   48  173 1    
   100   49   50 am   BACKBONE|DICT|INTERRES
   101   49  174 1    
   102   50   51 2    
   103   50   52 1    
   104   52   53 1    
   105   52   54 1    
   106   52  175 1    
   107   53  176 1    
   108   53  177 1    
   109   53  178 1    
   110   54   55 am   BACKBONE|DICT|INTERRES
   111   54  179 1    
   112   55   56 2    
   113   55   57 1    
   114   57   58 1    
   115   57   59 1    
   116   57  180 1    
   117   58  181 1    
   118   58  182 1    
   119   58  183 1    
   120   59   60 am   BACKBONE|DICT|INTERRES
   121   59  184 1    
   122   60   61 2    
   123   60   62 1    
   124   62   63 1    
   125   62   64 1    
   126   62  185 1    
   127   63  186 1    
   128   63  187 1    
   129   63  188 1    
   130   64   65 am   BACKBONE|DICT|INTERRES
   131   64  189 1    
   132   65   66 2    
   133   67   68 2    
   134   67   69 am   BACKBONE|DICT|INTERRES
   135   69   70 1    
   136   69  190 1    
   137   70   71 1    
   138   70   72 1    
   139   70  191 1    
   140   71  192 1    
   141   71  193 1    
   142   71  194 1    
   143   72   73 2    
   144   72   74 am   BACKBONE|DICT|INTERRES
   145   74   75 1    
   146   74  195 1    
   147   75   76 1    
   148   75   77 1    
   149   75  196 1    
   150   76  197 1    
   151   76  198 1    
   152   76  199 1    
   153   77   78 2    
   154   77   79 am   BACKBONE|DICT|INTERRES
   155   79   80 1    
   156   79  200 1    
   157   80   81 1    
   158   80   82 1    
   159   80  201 1    
   160   81  202 1    
   161   81  203 1    
   162   81  204 1    
   163   82   83 2    
   164   82   84 am   BACKBONE|DICT|INTERRES
   165   84   85 1    
   166   84  205 1    
   167   85   86 1    
   168   85   87 1    
   169   85  206 1    
   170   86  207 1    
   171   86  208 1    
   172   86  209 1    
   173   87   88 2    
   174   87   89 am   BACKBONE|DICT|INTERRES
   175   89   90 1    
   176   89  210 1    
   177   90   91 1    
   178   90   92 1    
   179   90  211 1    
   180   91  212 1    
   181   91  213 1    
   182   91  214 1    
   183   92   93 2    
   184   92   94 am   BACKBONE|DICT|INTERRES
   185   94   95 1    
   186   94  215 1    
   187   95   96 1    
   188   95   97 1    
   189   95  216 1    
   190   96  217 1    
   191   96  218 1    
   192   96  219 1    
   193   97   98 2    
   194   97   99 am   BACKBONE|DICT|INTERRES
   195   99  100 1    
   196   99  220 1    
   197  100  101 1    
   198  100  102 1    
   199  100  221 1    
   200  101  222 1    
   201  101  223 1    
   202  101  224 1    
   203  102  103 2    
   204  102  104 am   BACKBONE|DICT|INTERRES
   205  104  105 1    
   206  104  225 1    
   207  105  106 1    
   208  105  107 1    
   209  105  226 1    
   210  106  227 1    
   211  106  228 1    
   212  106  229 1    
   213  107  108 2    
   214  107  109 am   BACKBONE|DICT|INTERRES
   215  109  110 1    
   216  109  230 1    
   217  110  111 1    
   218  110  112 1    
   219  110  231 1    
   220  111  232 1    
   221  111  233 1    
   222  111  234 1    
   223  112  113 2    
   224  112  114 am   BACKBONE|DICT|INTERRES
   225  114  115 1    
   226  114  235 1    
   227  115  116 1    
   228  115  117 1    
   229  115  236 1    
   230  116  237 1    
   231  116  238 1    
   232  116  239 1    
   233  117  118 2    
   234  117  119 am   BACKBONE|DICT|INTERRES
   235  119  120 1    
   236  119  240 1    
   237  120  121 1    
   238  120  124 1    
   239  120  241 1    
   240  121  122 am   BACKBONE|DICT|INTERRES
   241  121  123 2    
   242  122  242 1    
   243  122  243 1    
   244  124  125 1    
   245  124  244 1    
   246  124  245 1    
   247  125  126 1    
   248  126  246 1    
   249  126  247 1    
@<TRIPOS>SUBSTRUCTURE
     1 UNK         1 GROUP             0       ****    0 ROOT    
