@<TRIPOS>MOLECULE
3R540
247   249    1
SMALL
USER_CHARGES


@<TRIPOS>ATOM
      1 CA          5.4063  -15.2917  -45.8356 C.3       0 UNK        -0.1800 
      2 C           4.7821  -14.2970  -46.8042 C.2       0 UNK         0.5000 
      3 O           5.4927  -13.4637  -47.3657 O.2       0 UNK        -0.5000 
      4 N           3.4596  -14.3927  -46.9971 N.am      1 UNK        -0.5000 
      5 CA          2.6422  -13.5661  -47.8984 C.3       1 UNK         0.1400 
      6 C6          3.0029  -13.7306  -49.4047 C.3       23 UNK        -0.0398 
      7 S7          2.9646  -15.4341  -50.0810 S.3       23 UNK        -0.2404 
      8 C8          1.5990  -16.2315  -49.1800 C.3       23 UNK        -0.0205 
      9 C9          1.2380  -17.5828  -49.7742 C.ar      23 UNK        -0.0193 
     10 C10         0.0755  -17.7271  -50.5361 C.ar      23 UNK        -0.1150 
     11 C11        -0.2985  -18.9790  -51.0325 C.ar      23 UNK        -0.0193 
     12 C12         0.5076  -20.0894  -50.7652 C.ar      23 UNK        -0.1150 
     13 C13         1.6849  -19.9593  -50.0220 C.ar      23 UNK        -0.0193 
     14 C14         2.0484  -18.6969  -49.5372 C.ar      23 UNK        -0.1150 
     15 C15         2.5523  -21.1953  -49.7884 C.3       23 UNK        -0.0205 
     16 S16         3.3734  -21.2900  -48.1579 S.3       23 UNK        -0.2404 
     17 C17         2.0204  -20.9806  -46.9746 C.3       23 UNK        -0.0398 
     18 CA          1.1816  -22.2348  -46.6267 C.3       11 UNK         0.1400 
     19 N           0.6898  -22.1836  -45.2483 N.am      11 UNK        -0.5000 
     20 C           0.0067  -23.1522  -44.6234 C.2       10 UNK         0.5000 
     21 O          -0.2299  -24.2543  -45.1156 O.2       10 UNK        -0.5000 
     22 CA         -0.5576  -22.8032  -43.2350 C.3       10 UNK         0.1400 
     23 CB          0.4983  -23.0109  -42.1390 C.3       10 UNK        -0.1800 
     24 N          -1.0616  -21.4296  -43.1849 N.am      10 UNK        -0.5000 
     25 C          -2.1497  -21.0026  -43.8420 C.2       9 UNK         0.5000 
     26 O          -2.8769  -21.7389  -44.5087 O.2       9 UNK        -0.5000 
     27 CA         -2.4432  -19.4924  -43.7825 C.3       9 UNK         0.1400 
     28 CB         -3.1741  -19.1295  -42.4816 C.3       9 UNK        -0.1800 
     29 N          -1.2269  -18.6861  -43.9052 N.am      9 UNK        -0.5000 
     30 C          -0.4999  -18.5955  -45.0298 C.2       8 UNK         0.5000 
     31 O          -0.8056  -19.1536  -46.0816 O.2       8 UNK        -0.5000 
     32 CA          0.8152  -17.7940  -44.9661 C.3       8 UNK         0.1400 
     33 CB          0.5622  -16.3274  -45.3439 C.3       8 UNK        -0.1800 
     34 N           1.4733  -17.8571  -43.6591 N.am      8 UNK        -0.5000 
     35 C           1.8752  -18.9888  -43.0577 C.2       7 UNK         0.5000 
     36 O           1.8006  -20.0954  -43.5906 O.2       7 UNK        -0.5000 
     37 CA          2.4005  -18.8959  -41.6097 C.3       7 UNK         0.1400 
     38 CB          3.9340  -18.9765  -41.5957 C.3       7 UNK        -0.1800 
     39 N           1.9837  -17.6888  -40.8937 N.am      7 UNK        -0.5000 
     40 C           0.7206  -17.3026  -40.6606 C.2       6 UNK         0.5000 
     41 O          -0.2646  -17.9832  -40.9499 O.2       6 UNK        -0.5000 
     42 CA          0.5254  -15.8892  -40.0706 C.3       6 UNK         0.1400 
     43 CB          0.2853  -15.9685  -38.5559 C.3       6 UNK        -0.1800 
     44 N           1.6330  -14.9580  -40.3309 N.am      6 UNK        -0.5000 
     45 C           2.1085  -14.6242  -41.5391 C.2       5 UNK         0.5000 
     46 O           1.6732  -15.0870  -42.5945 O.2       5 UNK        -0.5000 
     47 CA          3.2692  -13.6179  -41.5542 C.3       5 UNK         0.1400 
     48 CB          4.0273  -13.6127  -42.8936 C.3       5 UNK        -0.1800 
     49 N           2.7615  -12.2768  -41.2856 N.am      5 UNK        -0.5000 
     50 C           2.6851  -11.7127  -40.0728 C.2       4 UNK         0.5000 
     51 O           3.0170  -12.2912  -39.0370 O.2       4 UNK        -0.5000 
     52 CA          2.1696  -10.2615  -39.9922 C.3       4 UNK         0.1400 
     53 CB          3.3411   -9.2927  -39.7669 C.3       4 UNK        -0.1800 
     54 N           1.4428   -9.8435  -41.1918 N.am      4 UNK        -0.5000 
     55 C           0.1573  -10.1263  -41.4400 C.2       3 UNK         0.5000 
     56 O          -0.5758  -10.7280  -40.6546 O.2       3 UNK        -0.5000 
     57 CA         -0.3953   -9.6784  -42.8085 C.3       3 UNK         0.1400 
     58 CB         -1.0188   -8.2781  -42.7044 C.3       3 UNK        -0.1800 
     59 N           0.6026   -9.6826  -43.8862 N.am      3 UNK        -0.5000 
     60 C           1.2363  -10.7766  -44.3271 C.2       2 UNK         0.5000 
     61 O           1.0919  -11.8952  -43.8290 O.2       2 UNK        -0.5000 
     62 CA          2.2189  -10.5920  -45.4902 C.3       2 UNK         0.1400 
     63 CB          3.5819  -10.0882  -44.9858 C.3       2 UNK        -0.1800 
     64 N           2.3873  -11.8849  -46.1427 N.am      2 UNK        -0.5000 
     65 C           2.6082  -12.0877  -47.4454 C.2       1 UNK         0.5000 
     66 O           2.7690  -11.1757  -48.2589 O.2       1 UNK        -0.5000 
     67 C           0.0261  -22.4378  -47.6291 C.2       11 UNK         0.5000 
     68 O           0.0905  -23.3479  -48.4544 O.2       11 UNK        -0.5000 
     69 N          -1.0315  -21.6223  -47.5036 N.am      12 UNK        -0.5000 
     70 CA         -2.2518  -21.7056  -48.3053 C.3       12 UNK         0.1400 
     71 CB         -3.1792  -20.5334  -47.9565 C.3       12 UNK        -0.1800 
     72 C          -2.9874  -23.0455  -48.1346 C.2       12 UNK         0.5000 
     73 O          -3.4387  -23.6144  -49.1282 O.2       12 UNK        -0.5000 
     74 N          -3.0642  -23.5449  -46.8926 N.am      13 UNK        -0.5000 
     75 CA         -3.6331  -24.8522  -46.5636 C.3       13 UNK         0.1400 
     76 CB         -3.7442  -25.0064  -45.0395 C.3       13 UNK        -0.1800 
     77 C          -2.8358  -26.0145  -47.1837 C.2       13 UNK         0.5000 
     78 O          -3.4364  -26.9013  -47.7910 O.2       13 UNK        -0.5000 
     79 N          -1.5002  -25.9648  -47.0709 N.am      14 UNK        -0.5000 
     80 CA         -0.5726  -26.9275  -47.6731 C.3       14 UNK         0.1400 
     81 CB          0.8520  -26.6504  -47.1696 C.3       14 UNK        -0.1800 
     82 C          -0.6167  -26.9262  -49.2137 C.2       14 UNK         0.5000 
     83 O          -0.5067  -27.9876  -49.8280 O.2       14 UNK        -0.5000 
     84 N          -0.8219  -25.7423  -49.8048 N.am      15 UNK        -0.5000 
     85 CA         -1.0230  -25.5311  -51.2386 C.3       15 UNK         0.1400 
     86 CB         -0.7317  -24.0554  -51.5649 C.3       15 UNK        -0.1800 
     87 C          -2.4314  -25.9218  -51.7353 C.2       15 UNK         0.5000 
     88 O          -2.6846  -25.8071  -52.9350 O.2       15 UNK        -0.5000 
     89 N          -3.3363  -26.3260  -50.8280 N.am      16 UNK        -0.5000 
     90 CA         -4.7483  -26.6549  -51.0679 C.3       16 UNK         0.1400 
     91 CB         -4.8734  -27.9553  -51.8878 C.3       16 UNK        -0.1800 
     92 C          -5.5236  -25.4719  -51.6861 C.2       16 UNK         0.5000 
     93 O          -6.2839  -25.6458  -52.6412 O.2       16 UNK        -0.5000 
     94 N          -5.2461  -24.2692  -51.1616 N.am      17 UNK        -0.5000 
     95 CA         -5.7042  -22.9553  -51.6193 C.3       17 UNK         0.1400 
     96 CB         -7.2326  -22.8157  -51.4681 C.3       17 UNK        -0.1800 
     97 C          -5.2229  -22.5849  -53.0373 C.2       17 UNK         0.5000 
     98 O          -5.7732  -21.6558  -53.6287 O.2       17 UNK        -0.5000 
     99 N          -4.2175  -23.3019  -53.5651 N.am      18 UNK        -0.5000 
    100 CA        -3.6455  -23.1699  -54.9092 C.3       18 UNK         0.1400 
    101 CB        -2.8484  -21.8539  -55.0261 C.3       18 UNK        -0.1800 
    102 C         -4.7053  -23.3409  -56.0191 C.2       18 UNK         0.5000 
    103 O         -4.7050  -22.5896  -56.9936 O.2       18 UNK        -0.5000 
    104 N         -5.6291  -24.2949  -55.8177 N.am      19 UNK        -0.5000 
    105 CA        -6.8275  -24.5364  -56.6338 C.3       19 UNK         0.1400 
    106 CB        -6.4503  -25.0422  -58.0423 C.3       19 UNK        -0.1800 
    107 C         -7.7728  -23.3132  -56.6544 C.2       19 UNK         0.5000 
    108 O         -8.3044  -22.9477  -57.7035 O.2       19 UNK        -0.5000 
    109 N         -7.9293  -22.6985  -55.4735 N.am      20 UNK        -0.5000 
    110 CA        -8.6980  -21.4931  -55.1437 C.3       20 UNK         0.1400 
    111 CB       -10.1676  -21.6018  -55.5989 C.3       20 UNK        -0.1800 
    112 C         -8.0458  -20.1660  -55.5854 C.2       20 UNK         0.5000 
    113 O         -8.5955  -19.1067  -55.2771 O.2       20 UNK        -0.5000 
    114 N         -6.8741  -20.2100  -56.2390 N.am      21 UNK        -0.5000 
    115 CA        -6.1197  -19.0231  -56.6598 C.3       21 UNK         0.1400 
    116 CB        -5.0039  -19.4341  -57.6310 C.3       21 UNK        -0.1800 
    117 C         -5.5398  -18.2098  -55.4840 C.2       21 UNK         0.5000 
    118 O         -5.2784  -17.0176  -55.6493 O.2       21 UNK        -0.5000 
    119 N         -5.3700  -18.8519  -54.3206 N.am      22 UNK        -0.5000 
    120 CA        -4.9865  -18.2136  -53.0518 C.3       22 UNK         0.1400 
    121 C         -6.1406  -17.4127  -52.3713 C.2       22 UNK         0.5000 
    122 N         -7.3821  -17.4919  -52.8404 N.am      22 UNK        -0.7600 
    123 O         -5.9075  -16.6917  -51.4059 O.2       22 UNK        -0.5000 
    124 C124       -4.3559  -19.2558  -52.0898 C.3       23 UNK        -0.0398 
    125 S125       -3.0559  -18.5904  -50.9999 S.3       23 UNK        -0.2404 
    126 C126       -1.5549  -19.1339  -51.8788 C.3       23 UNK        -0.0205 
    127 H127        6.0741  -15.9659  -46.3717 H         1 UNK         0.0600 
    128 H128        4.6519  -15.8929  -45.3271 H         1 UNK         0.0600 
    129 H129        5.9887  -14.7650  -45.0798 H         1 UNK         0.0600 
    130 H130        2.9537  -15.0993  -46.4855 H         1 UNK         0.3000 
    131 H131        1.6150  -13.9061  -47.7669 H         1 UNK         0.0600 
    132 H132        2.3157  -13.1400  -50.0129 H         1 UNK         0.0800 
    133 H133        3.9945  -13.3209  -49.6021 H         1 UNK         0.0800 
    134 H134        1.8805  -16.3736  -48.1371 H         1 UNK         0.0800 
    135 H135        0.7267  -15.5763  -49.1873 H         1 UNK         0.0800 
    136 H136       -0.5496  -16.8676  -50.7339 H         1 UNK         0.1150 
    137 H137        0.2248  -21.0597  -51.1488 H         1 UNK         0.1150 
    138 H138        2.9568  -18.5783  -48.9637 H         1 UNK         0.1150 
    139 H139        1.9628  -22.1024  -49.9254 H         1 UNK         0.0800 
    140 H140        3.3224  -21.2200  -50.5600 H         1 UNK         0.0800 
    141 H141        1.3960  -20.1509  -47.3052 H         1 UNK         0.0800 
    142 H142        2.5181  -20.6150  -46.0762 H         1 UNK         0.0800 
    143 H143        1.8270  -23.1138  -46.6859 H         1 UNK         0.0600 
    144 H144        0.8920  -21.3352  -44.7272 H         1 UNK         0.3000 
    145 H145       -1.3913  -23.4789  -43.0333 H         1 UNK         0.0600 
    146 H146        0.0868  -22.8042  -41.1510 H         1 UNK         0.0600 
    147 H147        0.8530  -24.0424  -42.1337 H         1 UNK         0.0600 
    148 H148        1.3672  -22.3684  -42.2815 H         1 UNK         0.0600 
    149 H149       -0.4956  -20.7531  -42.6940 H         1 UNK         0.3000 
    150 H150       -3.0998  -19.2471  -44.6200 H         1 UNK         0.0600 
    151 H151       -3.4252  -18.0691  -42.4529 H         1 UNK         0.0600 
    152 H152       -4.1068  -19.6877  -42.3906 H         1 UNK         0.0600 
    153 H153       -2.5701  -19.3545  -41.6019 H         1 UNK         0.0600 
    154 H154       -0.8931  -18.2319  -43.0635 H         1 UNK         0.3000 
    155 H155        1.5003  -18.2206  -45.7008 H         1 UNK         0.0600 
    156 H156       -0.1149  -15.8438  -44.6384 H         1 UNK         0.0600 
    157 H157        0.1134  -16.2489  -46.3349 H         1 UNK         0.0600 
    158 H158        1.4897  -15.7568  -45.3548 H         1 UNK         0.0600 
    159 H159        1.5659  -16.9749  -43.1636 H         1 UNK         0.3000 
    160 H160        2.0041  -19.7560  -41.0666 H         1 UNK         0.0600 
    161 H161        4.3858  -18.1244  -42.1054 H         1 UNK         0.0600 
    162 H162        4.2829  -19.8811  -42.0959 H         1 UNK         0.0600 
    163 H163        4.3193  -19.0025  -40.5762 H         1 UNK         0.0600 
    164 H164        2.7207  -17.0561  -40.6210 H         1 UNK         0.3000 
    165 H165       -0.3676  -15.4689  -40.5374 H         1 UNK         0.0600 
    166 H166        0.0451  -14.9888  -38.1423 H         1 UNK         0.0600 
    167 H167       -0.5509  -16.6304  -38.3261 H         1 UNK         0.0600 
    168 H168        1.1611  -16.3506  -38.0299 H         1 UNK         0.0600 
    169 H169        2.0388  -14.5065  -39.5218 H         1 UNK         0.3000 
    170 H170        3.9806  -13.9128  -40.7799 H         1 UNK         0.0600 
    171 H171        4.4388  -14.6002  -43.1028 H         1 UNK         0.0600 
    172 H172        3.3828  -13.3422  -43.7294 H         1 UNK         0.0600 
    173 H173        4.8610  -12.9108  -42.8731 H         1 UNK         0.0600 
    174 H174        2.3531  -11.7949  -42.0760 H         1 UNK         0.3000 
    175 H175        1.5037  -10.1957  -39.1291 H         1 UNK         0.0600 
    176 H176        4.0464   -9.3127  -40.5987 H         1 UNK         0.0600 
    177 H177        2.9884   -8.2679  -39.6493 H         1 UNK         0.0600 
    178 H178        3.8934   -9.5501  -38.8620 H         1 UNK         0.0600 
    179 H179        1.9670   -9.3360  -41.8893 H         1 UNK         0.3000 
    180 H180       -1.1837  -10.3816  -43.0852 H         1 UNK         0.0600 
    181 H181       -0.2717   -7.5218  -42.4602 H         1 UNK         0.0600 
    182 H182       -1.7832   -8.2474  -41.9268 H         1 UNK         0.0600 
    183 H183       -1.4980   -7.9884  -43.6398 H         1 UNK         0.0600 
    184 H184        0.7813   -8.7958  -44.3358 H         1 UNK         0.3000 
    185 H185        1.7929   -9.8720  -46.1922 H         1 UNK         0.0600 
    186 H186        3.4872   -9.1175  -44.4980 H         1 UNK         0.0600 
    187 H187        4.0250  -10.7777  -44.2663 H         1 UNK         0.0600 
    188 H188        4.2861   -9.9696  -45.8096 H         1 UNK         0.0600 
    189 H189        2.2061  -12.6748  -45.5361 H         1 UNK         0.3000 
    190 H190       -0.9893  -20.8588  -46.8330 H         1 UNK         0.3000 
    191 H191       -1.9648  -21.6109  -49.3544 H         1 UNK         0.0600 
    192 H192       -2.6826  -19.5776  -48.1244 H         1 UNK         0.0600 
    193 H193       -4.0764  -20.5474  -48.5765 H         1 UNK         0.0600 
    194 H194       -3.4969  -20.5641  -46.9142 H         1 UNK         0.0600 
    195 H195       -2.7156  -22.9890  -46.1187 H         1 UNK         0.3000 
    196 H196       -4.6428  -24.8861  -46.9783 H         1 UNK         0.0600 
    197 H197       -4.2023  -25.9606  -44.7769 H         1 UNK         0.0600 
    198 H198       -4.3624  -24.2188  -44.6083 H         1 UNK         0.0600 
    199 H199       -2.7687  -24.9672  -44.5556 H         1 UNK         0.0600 
    200 H200       -1.0819  -25.2159  -46.5243 H         1 UNK         0.3000 
    201 H201       -0.8641  -27.9242  -47.3359 H         1 UNK         0.0600 
    202 H202        0.9082  -26.7301  -46.0839 H         1 UNK         0.0600 
    203 H203        1.1907  -25.6522  -47.4486 H         1 UNK         0.0600 
    204 H204        1.5609  -27.3670  -47.5861 H         1 UNK         0.0600 
    205 H205       -0.8185  -24.9083  -49.2242 H         1 UNK         0.3000 
    206 H206       -0.3058  -26.1478  -51.7837 H         1 UNK         0.0600 
    207 H207        0.2778  -23.7769  -51.2622 H         1 UNK         0.0600 
    208 H208       -0.8122  -23.8624  -52.6354 H         1 UNK         0.0600 
    209 H209       -1.4286  -23.3872  -51.0586 H         1 UNK         0.0600 
    210 H210       -3.0475  -26.3647  -49.8579 H         1 UNK         0.3000 
    211 H211       -5.1940  -26.8354  -50.0888 H         1 UNK         0.0600 
    212 H212       -4.4876  -27.8366  -52.9007 H         1 UNK         0.0600 
    213 H213       -5.9155  -28.2661  -51.9695 H         1 UNK         0.0600 
    214 H214       -4.3277  -28.7718  -51.4148 H         1 UNK         0.0600 
    215 H215       -4.5722  -24.2281  -50.3970 H         1 UNK         0.3000 
    216 H216       -5.2398  -22.2310  -50.9491 H         1 UNK         0.0600 
    217 H217       -7.5527  -21.7896  -51.6533 H         1 UNK         0.0600 
    218 H218       -7.5531  -23.0749  -50.4591 H         1 UNK         0.0600 
    219 H219       -7.7717  -23.4564  -52.1663 H         1 UNK         0.0600 
    220 H220       -3.8487  -24.0772  -53.0265 H         1 UNK         0.3000 
    221 H221       -2.9418  -23.9944  -55.0305 H         1 UNK         0.0600 
    222 H222       -3.4951  -20.9796  -54.9605 H         1 UNK         0.0600 
    223 H223       -2.0992  -21.7768  -54.2383 H         1 UNK         0.0600 
    224 H224       -2.3222  -21.7992  -55.9797 H         1 UNK         0.0600 
    225 H225       -5.5579  -24.8475  -54.9725 H         1 UNK         0.3000 
    226 H226       -7.3786  -25.3360  -56.1366 H         1 UNK         0.0600 
    227 H227       -5.7888  -25.9066  -57.9863 H         1 UNK         0.0600 
    228 H228       -7.3384  -25.3492  -58.5957 H         1 UNK         0.0600 
    229 H229       -5.9497  -24.2740  -58.6321 H         1 UNK         0.0600 
    230 H230       -7.3763  -23.0518  -54.7051 H         1 UNK         0.3000 
    231 H231       -8.7060  -21.4567  -54.0535 H         1 UNK         0.0600 
    232 H232      -10.2645  -21.5466  -56.6832 H         1 UNK         0.0600 
    233 H233      -10.7645  -20.7901  -55.1815 H         1 UNK         0.0600 
    234 H234      -10.6171  -22.5373  -55.2660 H         1 UNK         0.0600 
    235 H235       -6.4522  -21.1094  -56.4300 H         1 UNK         0.3000 
    236 H236       -6.8083  -18.3696  -57.1994 H         1 UNK         0.0600 
    237 H237       -5.3927  -20.0337  -58.4543 H         1 UNK         0.0600 
    238 H238       -4.5249  -18.5557  -58.0652 H         1 UNK         0.0600 
    239 H239       -4.2268  -20.0112  -57.1304 H         1 UNK         0.0600 
    240 H240       -5.6155  -19.8368  -54.2644 H         1 UNK         0.3000 
    241 H241       -4.2162  -17.4793  -53.2949 H         1 UNK         0.0600 
    242 H242       -8.1111  -16.9607  -52.3911 H         1 UNK         0.3800 
    243 H243       -7.6051  -18.0568  -53.6497 H         1 UNK         0.3800 
    244 H244       -5.1200  -19.7348  -51.4755 H         1 UNK         0.0800 
    245 H245       -3.9014  -20.0609  -52.6647 H         1 UNK         0.0800 
    246 H246       -1.6718  -20.1758  -52.1803 H         1 UNK         0.0800 
    247 H247       -1.4452  -18.5544  -52.7964 H         1 UNK         0.0800 
@<TRIPOS>BOND
     1    1    2 1    
     2    1  127 1    
     3    1  128 1    
     4    1  129 1    
     5    2    3 2    
     6    2    4 am   BACKBONE|DICT|INTERRES
     7    4    5 1    
     8    4  130 1    
     9    5    6 1    
    10    5   65 1    
    11    5  131 1    
    12    6    7 1    
    13    6  132 1    
    14    6  133 1    
    15    7    8 1    
    16    8    9 1    
    17    8  134 1    
    18    8  135 1    
    19    9   10 ar   
    20    9   14 ar   
    21   10   11 ar   
    22   10  136 1    
    23   11   12 ar   
    24   11  126 1    
    25   12   13 ar   
    26   12  137 1    
    27   13   14 ar   
    28   13   15 1    
    29   14  138 1    
    30   15   16 1    
    31   15  139 1    
    32   15  140 1    
    33   16   17 1    
    34   17   18 1    
    35   17  141 1    
    36   17  142 1    
    37   18   19 1    
    38   18   67 1    
    39   18  143 1    
    40   19   20 am   BACKBONE|DICT|INTERRES
    41   19  144 1    
    42   20   21 2    
    43   20   22 1    
    44   22   23 1    
    45   22   24 1    
    46   22  145 1    
    47   23  146 1    
    48   23  147 1    
    49   23  148 1    
    50   24   25 am   BACKBONE|DICT|INTERRES
    51   24  149 1    
    52   25   26 2    
    53   25   27 1    
    54   27   28 1    
    55   27   29 1    
    56   27  150 1    
    57   28  151 1    
    58   28  152 1    
    59   28  153 1    
    60   29   30 am   BACKBONE|DICT|INTERRES
    61   29  154 1    
    62   30   31 2    
    63   30   32 1    
    64   32   33 1    
    65   32   34 1    
    66   32  155 1    
    67   33  156 1    
    68   33  157 1    
    69   33  158 1    
    70   34   35 am   BACKBONE|DICT|INTERRES
    71   34  159 1    
    72   35   36 2    
    73   35   37 1    
    74   37   38 1    
    75   37   39 1    
    76   37  160 1    
    77   38  161 1    
    78   38  162 1    
    79   38  163 1    
    80   39   40 am   BACKBONE|DICT|INTERRES
    81   39  164 1    
    82   40   41 2    
    83   40   42 1    
    84   42   43 1    
    85   42   44 1    
    86   42  165 1    
    87   43  166 1    
    88   43  167 1    
    89   43  168 1    
    90   44   45 am   BACKBONE|DICT|INTERRES
    91   44  169 1    
    92   45   46 2    
    93   45   47 1    
    94   47   48 1    
    95   47   49 1    
    96   47  170 1    
    97   48  171 1    
    98   48  172 1    
    99   48  173 1    
   100   49   50 am   BACKBONE|DICT|INTERRES
   101   49  174 1    
   102   50   51 2    
   103   50   52 1    
   104   52   53 1    
   105   52   54 1    
   106   52  175 1    
   107   53  176 1    
   108   53  177 1    
   109   53  178 1    
   110   54   55 am   BACKBONE|DICT|INTERRES
   111   54  179 1    
   112   55   56 2    
   113   55   57 1    
   114   57   58 1    
   115   57   59 1    
   116   57  180 1    
   117   58  181 1    
   118   58  182 1    
   119   58  183 1    
   120   59   60 am   BACKBONE|DICT|INTERRES
   121   59  184 1    
   122   60   61 2    
   123   60   62 1    
   124   62   63 1    
   125   62   64 1    
   126   62  185 1    
   127   63  186 1    
   128   63  187 1    
   129   63  188 1    
   130   64   65 am   BACKBONE|DICT|INTERRES
   131   64  189 1    
   132   65   66 2    
   133   67   68 2    
   134   67   69 am   BACKBONE|DICT|INTERRES
   135   69   70 1    
   136   69  190 1    
   137   70   71 1    
   138   70   72 1    
   139   70  191 1    
   140   71  192 1    
   141   71  193 1    
   142   71  194 1    
   143   72   73 2    
   144   72   74 am   BACKBONE|DICT|INTERRES
   145   74   75 1    
   146   74  195 1    
   147   75   76 1    
   148   75   77 1    
   149   75  196 1    
   150   76  197 1    
   151   76  198 1    
   152   76  199 1    
   153   77   78 2    
   154   77   79 am   BACKBONE|DICT|INTERRES
   155   79   80 1    
   156   79  200 1    
   157   80   81 1    
   158   80   82 1    
   159   80  201 1    
   160   81  202 1    
   161   81  203 1    
   162   81  204 1    
   163   82   83 2    
   164   82   84 am   BACKBONE|DICT|INTERRES
   165   84   85 1    
   166   84  205 1    
   167   85   86 1    
   168   85   87 1    
   169   85  206 1    
   170   86  207 1    
   171   86  208 1    
   172   86  209 1    
   173   87   88 2    
   174   87   89 am   BACKBONE|DICT|INTERRES
   175   89   90 1    
   176   89  210 1    
   177   90   91 1    
   178   90   92 1    
   179   90  211 1    
   180   91  212 1    
   181   91  213 1    
   182   91  214 1    
   183   92   93 2    
   184   92   94 am   BACKBONE|DICT|INTERRES
   185   94   95 1    
   186   94  215 1    
   187   95   96 1    
   188   95   97 1    
   189   95  216 1    
   190   96  217 1    
   191   96  218 1    
   192   96  219 1    
   193   97   98 2    
   194   97   99 am   BACKBONE|DICT|INTERRES
   195   99  100 1    
   196   99  220 1    
   197  100  101 1    
   198  100  102 1    
   199  100  221 1    
   200  101  222 1    
   201  101  223 1    
   202  101  224 1    
   203  102  103 2    
   204  102  104 am   BACKBONE|DICT|INTERRES
   205  104  105 1    
   206  104  225 1    
   207  105  106 1    
   208  105  107 1    
   209  105  226 1    
   210  106  227 1    
   211  106  228 1    
   212  106  229 1    
   213  107  108 2    
   214  107  109 am   BACKBONE|DICT|INTERRES
   215  109  110 1    
   216  109  230 1    
   217  110  111 1    
   218  110  112 1    
   219  110  231 1    
   220  111  232 1    
   221  111  233 1    
   222  111  234 1    
   223  112  113 2    
   224  112  114 am   BACKBONE|DICT|INTERRES
   225  114  115 1    
   226  114  235 1    
   227  115  116 1    
   228  115  117 1    
   229  115  236 1    
   230  116  237 1    
   231  116  238 1    
   232  116  239 1    
   233  117  118 2    
   234  117  119 am   BACKBONE|DICT|INTERRES
   235  119  120 1    
   236  119  240 1    
   237  120  121 1    
   238  120  124 1    
   239  120  241 1    
   240  121  122 am   BACKBONE|DICT|INTERRES
   241  121  123 2    
   242  122  242 1    
   243  122  243 1    
   244  124  125 1    
   245  124  244 1    
   246  124  245 1    
   247  125  126 1    
   248  126  246 1    
   249  126  247 1    
@<TRIPOS>SUBSTRUCTURE
     1 UNK         1 GROUP             0       ****    0 ROOT    
