@<TRIPOS>MOLECULE
3R540
247   249    1
SMALL
USER_CHARGES


@<TRIPOS>ATOM
      1 CA         -1.3919   -9.3223  -48.7235 C.3       0 UNK        -0.1800 
      2 C          -0.8206  -10.6481  -48.2437 C.2       0 UNK         0.5000 
      3 O          -0.8890  -10.9458  -47.0518 O.2       0 UNK        -0.5000 
      4 N          -0.2766  -11.4522  -49.1691 N.am      1 UNK        -0.5000 
      5 CA          0.3587  -12.7568  -48.9231 C.3       1 UNK         0.1400 
      6 C6          0.9631  -13.3252  -50.2321 C.3       23 UNK        -0.0398 
      7 S7          2.0794  -14.7509  -49.9773 S.3       23 UNK        -0.2404 
      8 C8          1.4508  -15.9708  -51.1796 C.3       23 UNK        -0.0205 
      9 C9         -0.0027  -16.3489  -50.9321 C.ar      23 UNK        -0.0193 
     10 C10        -1.0036  -15.8941  -51.7956 C.ar      23 UNK        -0.1150 
     11 C11        -2.3449  -16.2308  -51.5789 C.ar      23 UNK        -0.0193 
     12 C12        -2.6758  -17.0190  -50.4736 C.ar      23 UNK        -0.1150 
     13 C13        -1.6861  -17.4704  -49.5968 C.ar      23 UNK        -0.0193 
     14 C14        -0.3497  -17.1462  -49.8389 C.ar      23 UNK        -0.1150 
     15 C15        -2.0703  -18.2601  -48.3589 C.3       23 UNK        -0.0205 
     16 S16        -1.9668  -20.0473  -48.6445 S.3       23 UNK        -0.2404 
     17 C17        -2.8033  -20.6472  -47.1443 C.3       23 UNK        -0.0398 
     18 CA         -2.2503  -22.0132  -46.6858 C.3       11 UNK         0.1400 
     19 N          -0.9226  -21.9203  -46.0690 N.am      11 UNK        -0.5000 
     20 C          -0.1745  -22.9835  -45.7392 C.2       10 UNK         0.5000 
     21 O          -0.5051  -24.1447  -45.9674 O.2       10 UNK        -0.5000 
     22 CA          1.1248  -22.7203  -44.9632 C.3       10 UNK         0.1400 
     23 CB          2.2442  -22.2456  -45.9017 C.3       10 UNK        -0.1800 
     24 N           0.9288  -21.7612  -43.8776 N.am      10 UNK        -0.5000 
     25 C           0.1158  -21.9562  -42.8293 C.2       9 UNK         0.5000 
     26 O          -0.5042  -23.0011  -42.6311 O.2       9 UNK        -0.5000 
     27 CA         -0.0792  -20.7690  -41.8696 C.3       9 UNK         0.1400 
     28 CB          1.0622  -20.6937  -40.8447 C.3       9 UNK        -0.1800 
     29 N          -0.1942  -19.4939  -42.5790 N.am      9 UNK        -0.5000 
     30 C          -1.2222  -19.1550  -43.3710 C.2       8 UNK         0.5000 
     31 O          -2.2035  -19.8730  -43.5633 O.2       8 UNK        -0.5000 
     32 CA         -1.1104  -17.8063  -44.1071 C.3       8 UNK         0.1400 
     33 CB         -1.5975  -16.6571  -43.2135 C.3       8 UNK        -0.1800 
     34 N           0.2521  -17.5269  -44.5644 N.am      8 UNK        -0.5000 
     35 C           0.8998  -18.2633  -45.4790 C.2       7 UNK         0.5000 
     36 O           0.4029  -19.2393  -46.0418 O.2       7 UNK        -0.5000 
     37 CA          2.3643  -17.8870  -45.7641 C.3       7 UNK         0.1400 
     38 CB          2.4505  -16.6182  -46.6215 C.3       7 UNK        -0.1800 
     39 N           3.1471  -17.6962  -44.5429 N.am      7 UNK        -0.5000 
     40 C           3.4048  -18.6387  -43.6285 C.2       6 UNK         0.5000 
     41 O           2.9999  -19.7955  -43.7217 O.2       6 UNK        -0.5000 
     42 CA          4.2122  -18.2304  -42.3792 C.3       6 UNK         0.1400 
     43 CB          5.7283  -18.3081  -42.6406 C.3       6 UNK        -0.1800 
     44 N           3.8162  -16.9368  -41.8047 N.am      6 UNK        -0.5000 
     45 C           3.9663  -15.7118  -42.3242 C.2       5 UNK         0.5000 
     46 O           4.5582  -15.4724  -43.3797 O.2       5 UNK        -0.5000 
     47 CA          3.3033  -14.5624  -41.5441 C.3       5 UNK         0.1400 
     48 CB          4.3355  -13.8400  -40.6654 C.3       5 UNK        -0.1800 
     49 N           2.6659  -13.5909  -42.4339 N.am      5 UNK        -0.5000 
     50 C           1.6926  -13.8674  -43.3123 C.2       4 UNK         0.5000 
     51 O           1.1920  -14.9863  -43.4603 O.2       4 UNK        -0.5000 
     52 CA          1.2344  -12.6908  -44.1897 C.3       4 UNK         0.1400 
     53 CB          2.1184  -12.5632  -45.4390 C.3       4 UNK        -0.1800 
     54 N          -0.1613  -12.8278  -44.5996 N.am      4 UNK        -0.5000 
     55 C          -1.2090  -12.5670  -43.8058 C.2       3 UNK         0.5000 
     56 O          -1.0914  -12.2018  -42.6346 O.2       3 UNK        -0.5000 
     57 CA         -2.6230  -12.7059  -44.4047 C.3       3 UNK         0.1400 
     58 CB         -3.3980  -11.3821  -44.2892 C.3       3 UNK        -0.1800 
     59 N          -2.5919  -13.0929  -45.8149 N.am      3 UNK        -0.5000 
     60 C          -3.0797  -14.2363  -46.3136 C.2       2 UNK         0.5000 
     61 O          -3.6376  -15.0966  -45.6321 O.2       2 UNK        -0.5000 
     62 CA         -2.9290  -14.4726  -47.8310 C.3       2 UNK         0.1400 
     63 CB         -4.2608  -14.2205  -48.5539 C.3       2 UNK        -0.1800 
     64 N          -1.8836  -13.6761  -48.4765 N.am      2 UNK        -0.5000 
     65 C          -0.5736  -13.7630  -48.2051 C.2       1 UNK         0.5000 
     66 O          -0.1096  -14.5320  -47.3641 O.2       1 UNK        -0.5000 
     67 C          -3.2702  -22.7323  -45.7834 C.2       11 UNK         0.5000 
     68 O          -4.0382  -23.5455  -46.2954 O.2       11 UNK        -0.5000 
     69 N          -3.2540  -22.4596  -44.4717 N.am      12 UNK        -0.5000 
     70 CA         -4.1093  -23.1350  -43.4930 C.3       12 UNK         0.1400 
     71 CB         -3.9800  -22.4491  -42.1246 C.3       12 UNK        -0.1800 
     72 C          -3.8161  -24.6445  -43.3880 C.2       12 UNK         0.5000 
     73 O          -4.7534  -25.4412  -43.3310 O.2       12 UNK        -0.5000 
     74 N          -2.5272  -25.0097  -43.3990 N.am      13 UNK        -0.5000 
     75 CA         -2.0558  -26.3940  -43.3730 C.3       13 UNK         0.1400 
     76 CB         -0.5550  -26.4111  -43.0440 C.3       13 UNK        -0.1800 
     77 C          -2.3334  -27.1494  -44.6869 C.2       13 UNK         0.5000 
     78 O          -2.7767  -28.2976  -44.6463 O.2       13 UNK        -0.5000 
     79 N          -2.0652  -26.4966  -45.8252 N.am      14 UNK        -0.5000 
     80 CA         -2.1735  -27.0720  -47.1681 C.3       14 UNK         0.1400 
     81 CB         -1.2188  -26.3126  -48.1037 C.3       14 UNK        -0.1800 
     82 C          -3.6022  -27.0609  -47.7452 C.2       14 UNK         0.5000 
     83 O          -3.8043  -27.6054  -48.8302 O.2       14 UNK        -0.5000 
     84 N          -4.5523  -26.4197  -47.0490 N.am      15 UNK        -0.5000 
     85 CA         -5.9396  -26.1760  -47.4637 C.3       15 UNK         0.1400 
     86 CB         -6.7308  -27.4959  -47.5781 C.3       15 UNK        -0.1800 
     87 C          -6.0047  -25.3057  -48.7370 C.2       15 UNK         0.5000 
     88 O          -6.6376  -25.6769  -49.7262 O.2       15 UNK        -0.5000 
     89 N          -5.2985  -24.1690  -48.6746 N.am      16 UNK        -0.5000 
     90 CA         -5.1306  -23.1196  -49.6863 C.3       16 UNK         0.1400 
     91 CB         -6.4874  -22.5355  -50.1268 C.3       16 UNK        -0.1800 
     92 C          -4.2508  -23.5057  -50.8922 C.2       16 UNK         0.5000 
     93 O          -3.9941  -22.6483  -51.7358 O.2       16 UNK        -0.5000 
     94 N          -3.7487  -24.7478  -50.9519 N.am      17 UNK        -0.5000 
     95 CA         -2.8995  -25.2416  -52.0433 C.3       17 UNK         0.1400 
     96 CB         -2.8077  -26.7725  -51.9633 C.3       17 UNK        -0.1800 
     97 C          -1.4932  -24.6044  -52.0892 C.2       17 UNK         0.5000 
     98 O          -0.8151  -24.7162  -53.1107 O.2       17 UNK        -0.5000 
     99 N          -1.0839  -23.9409  -50.9986 N.am      18 UNK        -0.5000 
    100 CA         0.1660  -23.1851  -50.8964 C.3       18 UNK         0.1400 
    101 CB         0.5577  -23.0683  -49.4145 C.3       18 UNK        -0.1800 
    102 C          0.0984  -21.7887  -51.5534 C.2       18 UNK         0.5000 
    103 O          1.1434  -21.1508  -51.6934 O.2       18 UNK        -0.5000 
    104 N         -1.1033  -21.3261  -51.9332 N.am      19 UNK        -0.5000 
    105 CA        -1.3251  -20.0440  -52.6049 C.3       19 UNK         0.1400 
    106 CB        -2.8309  -19.7537  -52.6475 C.3       19 UNK        -0.1800 
    107 C         -0.7340  -20.0187  -54.0281 C.2       19 UNK         0.5000 
    108 O         -0.5917  -21.0683  -54.6607 O.2       19 UNK        -0.5000 
    109 N         -0.4108  -18.8119  -54.5104 N.am      20 UNK        -0.5000 
    110 CA         0.2523  -18.5816  -55.7976 C.3       20 UNK         0.1400 
    111 CB         0.6975  -17.1124  -55.8669 C.3       20 UNK        -0.1800 
    112 C         -0.6069  -18.9424  -57.0267 C.2       20 UNK         0.5000 
    113 O         -0.0604  -19.3986  -58.0312 O.2       20 UNK        -0.5000 
    114 N         -1.9229  -18.7299  -56.9101 N.am      21 UNK        -0.5000 
    115 CA        -2.9785  -18.9500  -57.9091 C.3       21 UNK         0.1400 
    116 CB        -2.6576  -18.2803  -59.2632 C.3       21 UNK        -0.1800 
    117 C         -4.3033  -18.3848  -57.3702 C.2       21 UNK         0.5000 
    118 O         -5.3693  -18.9392  -57.6389 O.2       21 UNK        -0.5000 
    119 N         -4.1860  -17.2910  -56.6088 N.am      22 UNK        -0.5000 
    120 CA        -5.2152  -16.6258  -55.8002 C.3       22 UNK         0.1400 
    121 C         -5.9697  -17.5574  -54.8063 C.2       22 UNK         0.5000 
    122 N         -7.1917  -17.2039  -54.4308 N.am      22 UNK        -0.7600 
    123 O         -5.4546  -18.5727  -54.3466 O.2       22 UNK        -0.5000 
    124 C124       -4.5998  -15.3986  -55.0702 C.3       23 UNK        -0.0398 
    125 S125       -2.9938  -15.7517  -54.2596 S.3       23 UNK        -0.2404 
    126 C126       -3.4534  -15.7246  -52.4978 C.3       23 UNK        -0.0205 
    127 H127       -0.8847   -8.4951  -48.2271 H         1 UNK         0.0600 
    128 H128       -2.4539   -9.2643  -48.4852 H         1 UNK         0.0600 
    129 H129       -1.2767   -9.1957  -49.8002 H         1 UNK         0.0600 
    130 H130       -0.2668  -11.1399  -50.1298 H         1 UNK         0.3000 
    131 H131        1.1882  -12.5619  -48.2420 H         1 UNK         0.0600 
    132 H132        1.5575  -12.5532  -50.7226 H         1 UNK         0.0800 
    133 H133        0.1717  -13.5741  -50.9380 H         1 UNK         0.0800 
    134 H134        2.0669  -16.8693  -51.1232 H         1 UNK         0.0800 
    135 H135        1.5812  -15.5763  -52.1885 H         1 UNK         0.0800 
    136 H136       -0.7365  -15.2678  -52.6348 H         1 UNK         0.1150 
    137 H137       -3.7099  -17.2700  -50.2835 H         1 UNK         0.1150 
    138 H138        0.4165  -17.4948  -49.1619 H         1 UNK         0.1150 
    139 H139       -1.4213  -17.9825  -47.5281 H         1 UNK         0.0800 
    140 H140       -3.0858  -18.0019  -48.0547 H         1 UNK         0.0800 
    141 H141       -3.8676  -20.7063  -47.3806 H         1 UNK         0.0800 
    142 H142       -2.7093  -19.9134  -46.3421 H         1 UNK         0.0800 
    143 H143       -2.1477  -22.6448  -47.5706 H         1 UNK         0.0600 
    144 H144       -0.5573  -20.9881  -45.8961 H         1 UNK         0.3000 
    145 H145        1.4401  -23.6649  -44.5154 H         1 UNK         0.0600 
    146 H146        3.1821  -22.1159  -45.3617 H         1 UNK         0.0600 
    147 H147        2.4221  -22.9743  -46.6934 H         1 UNK         0.0600 
    148 H148        2.0007  -21.2974  -46.3801 H         1 UNK         0.0600 
    149 H149        1.4586  -20.8962  -43.9369 H         1 UNK         0.3000 
    150 H150       -1.0108  -20.9331  -41.3240 H         1 UNK         0.0600 
    151 H151        1.1234  -21.6161  -40.2658 H         1 UNK         0.0600 
    152 H152        0.9069  -19.8776  -40.1390 H         1 UNK         0.0600 
    153 H153        2.0296  -20.5459  -41.3235 H         1 UNK         0.0600 
    154 H154        0.5857  -18.8583  -42.5102 H         1 UNK         0.3000 
    155 H155       -1.7576  -17.8500  -44.9854 H         1 UNK         0.0600 
    156 H156       -0.9801  -16.5488  -42.3210 H         1 UNK         0.0600 
    157 H157       -2.6256  -16.8221  -42.8890 H         1 UNK         0.0600 
    158 H158       -1.5753  -15.7091  -43.7507 H         1 UNK         0.0600 
    159 H159        0.7104  -16.7111  -44.1646 H         1 UNK         0.3000 
    160 H160        2.8145  -18.7086  -46.3248 H         1 UNK         0.0600 
    161 H161        2.0484  -15.7548  -46.0927 H         1 UNK         0.0600 
    162 H162        1.8814  -16.7281  -47.5440 H         1 UNK         0.0600 
    163 H163        3.4804  -16.3932  -46.8984 H         1 UNK         0.0600 
    164 H164        3.5252  -16.7688  -44.3753 H         1 UNK         0.3000 
    165 H165        3.9835  -18.9694  -41.6097 H         1 UNK         0.0600 
    166 H166        6.0441  -17.6353  -43.4382 H         1 UNK         0.0600 
    167 H167        6.2965  -18.0578  -41.7447 H         1 UNK         0.0600 
    168 H168        6.0171  -19.3171  -42.9375 H         1 UNK         0.0600 
    169 H169        3.3020  -17.0096  -40.9377 H         1 UNK         0.3000 
    170 H170        2.5250  -14.9756  -40.8991 H         1 UNK         0.0600 
    171 H171        5.1236  -13.3824  -41.2650 H         1 UNK         0.0600 
    172 H172        3.8682  -13.0561  -40.0690 H         1 UNK         0.0600 
    173 H173        4.8123  -14.5338  -39.9718 H         1 UNK         0.0600 
    174 H174        3.0416  -12.6546  -42.4063 H         1 UNK         0.3000 
    175 H175        1.3338  -11.7694  -43.6116 H         1 UNK         0.0600 
    176 H176        3.1678  -12.4431  -45.1675 H         1 UNK         0.0600 
    177 H177        1.8350  -11.6928  -46.0310 H         1 UNK         0.0600 
    178 H178        2.0459  -13.4427  -46.0774 H         1 UNK         0.0600 
    179 H179       -0.3263  -13.2001  -45.5252 H         1 UNK         0.3000 
    180 H180       -3.1423  -13.4582  -43.8079 H         1 UNK         0.0600 
    181 H181       -4.4104  -11.4837  -44.6805 H         1 UNK         0.0600 
    182 H182       -2.9044  -10.5804  -44.8404 H         1 UNK         0.0600 
    183 H183       -3.4840  -11.0635  -43.2497 H         1 UNK         0.0600 
    184 H184       -2.1234  -12.4403  -46.4358 H         1 UNK         0.3000 
    185 H185       -2.6660  -15.5215  -47.9537 H         1 UNK         0.0600 
    186 H186       -4.1904  -14.4732  -49.6117 H         1 UNK         0.0600 
    187 H187       -5.0584  -14.8313  -48.1289 H         1 UNK         0.0600 
    188 H188       -4.5682  -13.1770  -48.4760 H         1 UNK         0.0600 
    189 H189       -2.1883  -12.9934  -49.1543 H         1 UNK         0.3000 
    190 H190       -2.6375  -21.7331  -44.1211 H         1 UNK         0.3000 
    191 H191       -5.1432  -23.0231  -43.8262 H         1 UNK         0.0600 
    192 H192       -4.6490  -22.9072  -41.3952 H         1 UNK         0.0600 
    193 H193       -4.2407  -21.3925  -42.1870 H         1 UNK         0.0600 
    194 H194       -2.9673  -22.5206  -41.7291 H         1 UNK         0.0600 
    195 H195       -1.8157  -24.2846  -43.4002 H         1 UNK         0.3000 
    196 H196       -2.5821  -26.9163  -42.5713 H         1 UNK         0.0600 
    197 H197        0.0282  -25.8741  -43.7931 H         1 UNK         0.0600 
    198 H198       -0.3594  -25.9484  -42.0765 H         1 UNK         0.0600 
    199 H199       -0.1750  -27.4325  -43.0001 H         1 UNK         0.0600 
    200 H200       -1.6519  -25.5673  -45.7720 H         1 UNK         0.3000 
    201 H201       -1.8478  -28.1135  -47.1288 H         1 UNK         0.0600 
    202 H202       -1.1702  -26.7816  -49.0855 H         1 UNK         0.0600 
    203 H203       -1.5362  -25.2789  -48.2449 H         1 UNK         0.0600 
    204 H204       -0.2034  -26.3006  -47.7073 H         1 UNK         0.0600 
    205 H205       -4.2648  -25.9558  -46.1973 H         1 UNK         0.3000 
    206 H206       -6.3975  -25.5888  -46.6663 H         1 UNK         0.0600 
    207 H207       -6.6697  -28.0719  -46.6548 H         1 UNK         0.0600 
    208 H208       -7.7863  -27.2993  -47.7694 H         1 UNK         0.0600 
    209 H209       -6.3657  -28.1247  -48.3904 H         1 UNK         0.0600 
    210 H210       -4.8140  -23.9882  -47.7947 H         1 UNK         0.3000 
    211 H211       -4.5886  -22.3198  -49.1805 H         1 UNK         0.0600 
    212 H212       -6.3468  -21.6525  -50.7515 H         1 UNK         0.0600 
    213 H213       -7.0842  -22.2312  -49.2671 H         1 UNK         0.0600 
    214 H214       -7.0705  -23.2512  -50.7065 H         1 UNK         0.0600 
    215 H215       -4.0130  -25.4152  -50.2403 H         1 UNK         0.3000 
    216 H216       -3.3919  -24.9887  -52.9847 H         1 UNK         0.0600 
    217 H217       -2.2968  -27.1007  -51.0596 H         1 UNK         0.0600 
    218 H218       -2.2565  -27.1757  -52.8137 H         1 UNK         0.0600 
    219 H219       -3.7976  -27.2293  -51.9723 H         1 UNK         0.0600 
    220 H220       -1.7075  -23.8973  -50.2080 H         1 UNK         0.3000 
    221 H221        0.9531  -23.7442  -51.4067 H         1 UNK         0.0600 
    222 H222        0.6421  -24.0477  -48.9440 H         1 UNK         0.0600 
    223 H223       -0.1706  -22.4849  -48.8541 H         1 UNK         0.0600 
    224 H224        1.5227  -22.5724  -49.3027 H         1 UNK         0.0600 
    225 H225       -1.9186  -21.9140  -51.8167 H         1 UNK         0.3000 
    226 H226       -0.8392  -19.2671  -52.0109 H         1 UNK         0.0600 
    227 H227       -3.2676  -19.7738  -51.6489 H         1 UNK         0.0600 
    228 H228       -3.0259  -18.7662  -53.0659 H         1 UNK         0.0600 
    229 H229       -3.3648  -20.4789  -53.2627 H         1 UNK         0.0600 
    230 H230       -0.5753  -17.9967  -53.9372 H         1 UNK         0.3000 
    231 H231        1.1462  -19.2084  -55.8284 H         1 UNK         0.0600 
    232 H232       -0.1516  -16.4304  -55.8058 H         1 UNK         0.0600 
    233 H233        1.2182  -16.9053  -56.8028 H         1 UNK         0.0600 
    234 H234        1.3826  -16.8683  -55.0546 H         1 UNK         0.0600 
    235 H235       -2.2584  -18.4304  -56.0047 H         1 UNK         0.3000 
    236 H236       -3.0990  -20.0250  -58.0538 H         1 UNK         0.0600 
    237 H237       -1.8397  -18.7807  -59.7801 H         1 UNK         0.0600 
    238 H238       -3.5178  -18.3197  -59.9331 H         1 UNK         0.0600 
    239 H239       -2.3871  -17.2312  -59.1392 H         1 UNK         0.0600 
    240 H240       -3.2636  -16.8977  -56.4974 H         1 UNK         0.3000 
    241 H241       -5.9617  -16.2574  -56.5061 H         1 UNK         0.0600 
    242 H242       -7.6884  -17.7922  -53.7799 H         1 UNK         0.3800 
    243 H243       -7.6415  -16.3758  -54.7896 H         1 UNK         0.3800 
    244 H244       -5.2993  -14.9661  -54.3525 H         1 UNK         0.0800 
    245 H245       -4.4187  -14.6095  -55.8011 H         1 UNK         0.0800 
    246 H246       -4.3515  -16.3304  -52.3659 H         1 UNK         0.0800 
    247 H247       -3.7137  -14.7054  -52.2099 H         1 UNK         0.0800 
@<TRIPOS>BOND
     1    1    2 1    
     2    1  127 1    
     3    1  128 1    
     4    1  129 1    
     5    2    3 2    
     6    2    4 am   BACKBONE|DICT|INTERRES
     7    4    5 1    
     8    4  130 1    
     9    5    6 1    
    10    5   65 1    
    11    5  131 1    
    12    6    7 1    
    13    6  132 1    
    14    6  133 1    
    15    7    8 1    
    16    8    9 1    
    17    8  134 1    
    18    8  135 1    
    19    9   10 ar   
    20    9   14 ar   
    21   10   11 ar   
    22   10  136 1    
    23   11   12 ar   
    24   11  126 1    
    25   12   13 ar   
    26   12  137 1    
    27   13   14 ar   
    28   13   15 1    
    29   14  138 1    
    30   15   16 1    
    31   15  139 1    
    32   15  140 1    
    33   16   17 1    
    34   17   18 1    
    35   17  141 1    
    36   17  142 1    
    37   18   19 1    
    38   18   67 1    
    39   18  143 1    
    40   19   20 am   BACKBONE|DICT|INTERRES
    41   19  144 1    
    42   20   21 2    
    43   20   22 1    
    44   22   23 1    
    45   22   24 1    
    46   22  145 1    
    47   23  146 1    
    48   23  147 1    
    49   23  148 1    
    50   24   25 am   BACKBONE|DICT|INTERRES
    51   24  149 1    
    52   25   26 2    
    53   25   27 1    
    54   27   28 1    
    55   27   29 1    
    56   27  150 1    
    57   28  151 1    
    58   28  152 1    
    59   28  153 1    
    60   29   30 am   BACKBONE|DICT|INTERRES
    61   29  154 1    
    62   30   31 2    
    63   30   32 1    
    64   32   33 1    
    65   32   34 1    
    66   32  155 1    
    67   33  156 1    
    68   33  157 1    
    69   33  158 1    
    70   34   35 am   BACKBONE|DICT|INTERRES
    71   34  159 1    
    72   35   36 2    
    73   35   37 1    
    74   37   38 1    
    75   37   39 1    
    76   37  160 1    
    77   38  161 1    
    78   38  162 1    
    79   38  163 1    
    80   39   40 am   BACKBONE|DICT|INTERRES
    81   39  164 1    
    82   40   41 2    
    83   40   42 1    
    84   42   43 1    
    85   42   44 1    
    86   42  165 1    
    87   43  166 1    
    88   43  167 1    
    89   43  168 1    
    90   44   45 am   BACKBONE|DICT|INTERRES
    91   44  169 1    
    92   45   46 2    
    93   45   47 1    
    94   47   48 1    
    95   47   49 1    
    96   47  170 1    
    97   48  171 1    
    98   48  172 1    
    99   48  173 1    
   100   49   50 am   BACKBONE|DICT|INTERRES
   101   49  174 1    
   102   50   51 2    
   103   50   52 1    
   104   52   53 1    
   105   52   54 1    
   106   52  175 1    
   107   53  176 1    
   108   53  177 1    
   109   53  178 1    
   110   54   55 am   BACKBONE|DICT|INTERRES
   111   54  179 1    
   112   55   56 2    
   113   55   57 1    
   114   57   58 1    
   115   57   59 1    
   116   57  180 1    
   117   58  181 1    
   118   58  182 1    
   119   58  183 1    
   120   59   60 am   BACKBONE|DICT|INTERRES
   121   59  184 1    
   122   60   61 2    
   123   60   62 1    
   124   62   63 1    
   125   62   64 1    
   126   62  185 1    
   127   63  186 1    
   128   63  187 1    
   129   63  188 1    
   130   64   65 am   BACKBONE|DICT|INTERRES
   131   64  189 1    
   132   65   66 2    
   133   67   68 2    
   134   67   69 am   BACKBONE|DICT|INTERRES
   135   69   70 1    
   136   69  190 1    
   137   70   71 1    
   138   70   72 1    
   139   70  191 1    
   140   71  192 1    
   141   71  193 1    
   142   71  194 1    
   143   72   73 2    
   144   72   74 am   BACKBONE|DICT|INTERRES
   145   74   75 1    
   146   74  195 1    
   147   75   76 1    
   148   75   77 1    
   149   75  196 1    
   150   76  197 1    
   151   76  198 1    
   152   76  199 1    
   153   77   78 2    
   154   77   79 am   BACKBONE|DICT|INTERRES
   155   79   80 1    
   156   79  200 1    
   157   80   81 1    
   158   80   82 1    
   159   80  201 1    
   160   81  202 1    
   161   81  203 1    
   162   81  204 1    
   163   82   83 2    
   164   82   84 am   BACKBONE|DICT|INTERRES
   165   84   85 1    
   166   84  205 1    
   167   85   86 1    
   168   85   87 1    
   169   85  206 1    
   170   86  207 1    
   171   86  208 1    
   172   86  209 1    
   173   87   88 2    
   174   87   89 am   BACKBONE|DICT|INTERRES
   175   89   90 1    
   176   89  210 1    
   177   90   91 1    
   178   90   92 1    
   179   90  211 1    
   180   91  212 1    
   181   91  213 1    
   182   91  214 1    
   183   92   93 2    
   184   92   94 am   BACKBONE|DICT|INTERRES
   185   94   95 1    
   186   94  215 1    
   187   95   96 1    
   188   95   97 1    
   189   95  216 1    
   190   96  217 1    
   191   96  218 1    
   192   96  219 1    
   193   97   98 2    
   194   97   99 am   BACKBONE|DICT|INTERRES
   195   99  100 1    
   196   99  220 1    
   197  100  101 1    
   198  100  102 1    
   199  100  221 1    
   200  101  222 1    
   201  101  223 1    
   202  101  224 1    
   203  102  103 2    
   204  102  104 am   BACKBONE|DICT|INTERRES
   205  104  105 1    
   206  104  225 1    
   207  105  106 1    
   208  105  107 1    
   209  105  226 1    
   210  106  227 1    
   211  106  228 1    
   212  106  229 1    
   213  107  108 2    
   214  107  109 am   BACKBONE|DICT|INTERRES
   215  109  110 1    
   216  109  230 1    
   217  110  111 1    
   218  110  112 1    
   219  110  231 1    
   220  111  232 1    
   221  111  233 1    
   222  111  234 1    
   223  112  113 2    
   224  112  114 am   BACKBONE|DICT|INTERRES
   225  114  115 1    
   226  114  235 1    
   227  115  116 1    
   228  115  117 1    
   229  115  236 1    
   230  116  237 1    
   231  116  238 1    
   232  116  239 1    
   233  117  118 2    
   234  117  119 am   BACKBONE|DICT|INTERRES
   235  119  120 1    
   236  119  240 1    
   237  120  121 1    
   238  120  124 1    
   239  120  241 1    
   240  121  122 am   BACKBONE|DICT|INTERRES
   241  121  123 2    
   242  122  242 1    
   243  122  243 1    
   244  124  125 1    
   245  124  244 1    
   246  124  245 1    
   247  125  126 1    
   248  126  246 1    
   249  126  247 1    
@<TRIPOS>SUBSTRUCTURE
     1 UNK         1 GROUP             0       ****    0 ROOT    
