@<TRIPOS>MOLECULE
3R540
247   249    1
SMALL
USER_CHARGES


@<TRIPOS>ATOM
      1 CA          5.7003  -11.2173  -51.0442 C.3       0 UNK        -0.1800 
      2 C           5.7064  -12.5823  -50.3702 C.2       0 UNK         0.5000 
      3 O           6.2378  -13.5405  -50.9318 O.2       0 UNK        -0.5000 
      4 N           5.1224  -12.6713  -49.1714 N.am      1 UNK        -0.5000 
      5 CA          4.9925  -13.9043  -48.3882 C.3       1 UNK         0.1400 
      6 C6          3.7832  -14.7858  -48.8154 C.3       23 UNK        -0.0398 
      7 S7          2.1888  -13.8979  -48.9245 S.3       23 UNK        -0.2404 
      8 C8          0.9878  -15.2252  -48.5837 C.3       23 UNK        -0.0205 
      9 C9          1.0068  -16.3195  -49.6416 C.ar      23 UNK        -0.0193 
     10 C10         0.3966  -16.1077  -50.8807 C.ar      23 UNK        -0.1150 
     11 C11         0.4061  -17.1070  -51.8585 C.ar      23 UNK        -0.0193 
     12 C12         1.0296  -18.3280  -51.5853 C.ar      23 UNK        -0.1150 
     13 C13         1.6435  -18.5571  -50.3498 C.ar      23 UNK        -0.0193 
     14 C14         1.6291  -17.5449  -49.3829 C.ar      23 UNK        -0.1150 
     15 C15         2.3715  -19.8750  -50.0986 C.3       23 UNK        -0.0205 
     16 S16         1.9863  -20.6363  -48.4877 S.3       23 UNK        -0.2404 
     17 C17         0.2501  -21.1373  -48.7222 C.3       23 UNK        -0.0398 
     18 CA         -0.1508  -22.2677  -47.7443 C.3       11 UNK         0.1400 
     19 N          -0.2231  -21.8210  -46.3491 N.am      11 UNK        -0.5000 
     20 C          -0.3606  -22.6350  -45.2930 C.2       10 UNK         0.5000 
     21 O          -0.4335  -23.8594  -45.3834 O.2       10 UNK        -0.5000 
     22 CA         -0.4864  -21.9793  -43.9057 C.3       10 UNK         0.1400 
     23 CB          0.8789  -21.5013  -43.3896 C.3       10 UNK        -0.1800 
     24 N          -1.4418  -20.8724  -43.8921 N.am      10 UNK        -0.5000 
     25 C          -2.7542  -21.0033  -44.1332 C.2       9 UNK         0.5000 
     26 O          -3.3076  -22.0822  -44.3453 O.2       9 UNK        -0.5000 
     27 CA         -3.5794  -19.7060  -44.2036 C.3       9 UNK         0.1400 
     28 CB         -3.9518  -19.2059  -42.8000 C.3       9 UNK        -0.1800 
     29 N          -2.8885  -18.6469  -44.9379 N.am      9 UNK        -0.5000 
     30 C          -2.5629  -18.7192  -46.2371 C.2       8 UNK         0.5000 
     31 O          -2.8386  -19.6772  -46.9593 O.2       8 UNK        -0.5000 
     32 CA         -1.7448  -17.5446  -46.7996 C.3       8 UNK         0.1400 
     33 CB         -2.6573  -16.3318  -47.0455 C.3       8 UNK        -0.1800 
     34 N          -0.6373  -17.1610  -45.9211 N.am      8 UNK        -0.5000 
     35 C           0.3683  -17.9746  -45.5687 C.2       7 UNK         0.5000 
     36 O           0.4856  -19.1239  -45.9830 O.2       7 UNK        -0.5000 
     37 CA          1.3800  -17.4557  -44.5329 C.3       7 UNK         0.1400 
     38 CB          2.4817  -16.6170  -45.1886 C.3       7 UNK        -0.1800 
     39 N           0.7553  -16.6897  -43.4588 N.am      7 UNK        -0.5000 
     40 C          -0.1181  -17.1921  -42.5765 C.2       6 UNK         0.5000 
     41 O          -0.4903  -18.3658  -42.5716 O.2       6 UNK        -0.5000 
     42 CA         -0.6911  -16.2045  -41.5491 C.3       6 UNK         0.1400 
     43 CB          0.3023  -15.9703  -40.4005 C.3       6 UNK        -0.1800 
     44 N          -1.0250  -14.9258  -42.1738 N.am      6 UNK        -0.5000 
     45 C          -2.1219  -14.7142  -42.9128 C.2       5 UNK         0.5000 
     46 O          -2.9885  -15.5667  -43.1120 O.2       5 UNK        -0.5000 
     47 CA         -2.2600  -13.3206  -43.5559 C.3       5 UNK         0.1400 
     48 CB         -2.8580  -12.3191  -42.5564 C.3       5 UNK        -0.1800 
     49 N          -0.9936  -12.7936  -44.0714 N.am      5 UNK        -0.5000 
     50 C          -0.3188  -13.3371  -45.0930 C.2       4 UNK         0.5000 
     51 O          -0.6863  -14.3431  -45.6926 O.2       4 UNK        -0.5000 
     52 CA          1.0058  -12.6755  -45.5012 C.3       4 UNK         0.1400 
     53 CB          0.7523  -11.5057  -46.4628 C.3       4 UNK        -0.1800 
     54 N           1.8509  -12.2183  -44.3991 N.am      4 UNK        -0.5000 
     55 C           2.2420  -12.9350  -43.3378 C.2       3 UNK         0.5000 
     56 O           1.7699  -14.0304  -43.0268 O.2       3 UNK        -0.5000 
     57 CA          3.4122  -12.3362  -42.5333 C.3       3 UNK         0.1400 
     58 CB          3.5902  -13.0151  -41.1635 C.3       3 UNK        -0.1800 
     59 N           4.6570  -12.4676  -43.2924 N.am      3 UNK        -0.5000 
     60 C           4.9993  -11.7426  -44.3668 C.2       2 UNK         0.5000 
     61 O           4.3537  -10.7695  -44.7634 O.2       2 UNK        -0.5000 
     62 CA          6.2534  -12.1790  -45.1537 C.3       2 UNK         0.1400 
     63 CB          7.1058  -13.2535  -44.4402 C.3       2 UNK        -0.1800 
     64 N           5.9228  -12.6148  -46.5170 N.am      2 UNK        -0.5000 
     65 C           5.0872  -13.6046  -46.8772 C.2       1 UNK         0.5000 
     66 O           4.4406  -14.2756  -46.0747 O.2       1 UNK        -0.5000 
     67 C          -1.4478  -22.9590  -48.2041 C.2       11 UNK         0.5000 
     68 O          -1.3629  -23.9725  -48.8981 O.2       11 UNK        -0.5000 
     69 N          -2.6103  -22.4369  -47.7881 N.am      12 UNK        -0.5000 
     70 CA         -3.9186  -23.0472  -48.0246 C.3       12 UNK         0.1400 
     71 CB         -5.0301  -22.0760  -47.5989 C.3       12 UNK        -0.1800 
     72 C          -4.0737  -24.4042  -47.3131 C.2       12 UNK         0.5000 
     73 O          -4.5337  -25.3626  -47.9335 O.2       12 UNK        -0.5000 
     74 N          -3.6645  -24.4709  -46.0374 N.am      13 UNK        -0.5000 
     75 CA         -3.7037  -25.6817  -45.2131 C.3       13 UNK         0.1400 
     76 CB         -3.4040  -25.3188  -43.7508 C.3       13 UNK        -0.1800 
     77 C          -2.7453  -26.7814  -45.7070 C.2       13 UNK         0.5000 
     78 O          -3.1192  -27.9547  -45.7170 O.2       13 UNK        -0.5000 
     79 N          -1.5379  -26.3820  -46.1275 N.am      14 UNK        -0.5000 
     80 CA         -0.5139  -27.2629  -46.6939 C.3       14 UNK         0.1400 
     81 CB          0.8417  -26.5395  -46.6430 C.3       14 UNK        -0.1800 
     82 C          -0.8153  -27.7109  -48.1377 C.2       14 UNK         0.5000 
     83 O          -0.1686  -28.6406  -48.6215 O.2       14 UNK        -0.5000 
     84 N          -1.7564  -27.0252  -48.8038 N.am      15 UNK        -0.5000 
     85 CA         -2.1173  -27.1454  -50.2201 C.3       15 UNK         0.1400 
     86 CB         -2.6967  -28.5393  -50.5385 C.3       15 UNK        -0.1800 
     87 C          -0.9689  -26.7298  -51.1664 C.2       15 UNK         0.5000 
     88 O          -0.8820  -27.2211  -52.2931 O.2       15 UNK        -0.5000 
     89 N          -0.1198  -25.8063  -50.6948 N.am      16 UNK        -0.5000 
     90 CA          0.9109  -25.1267  -51.4803 C.3       16 UNK         0.1400 
     91 CB          1.9588  -24.5331  -50.5265 C.3       16 UNK        -0.1800 
     92 C           0.2995  -24.0263  -52.3680 C.2       16 UNK         0.5000 
     93 O           0.8490  -23.7156  -53.4250 O.2       16 UNK        -0.5000 
     94 N          -0.8426  -23.4882  -51.9294 N.am      17 UNK        -0.5000 
     95 CA         -1.7420  -22.6326  -52.6872 C.3       17 UNK         0.1400 
     96 CB         -1.6598  -21.2036  -52.1328 C.3       17 UNK        -0.1800 
     97 C          -3.1600  -23.1993  -52.5281 C.2       17 UNK         0.5000 
     98 O          -3.4263  -23.9237  -51.5648 O.2       17 UNK        -0.5000 
     99 N          -4.0522  -22.8602  -53.4644 N.am      18 UNK        -0.5000 
    100 CA        -5.4694  -23.2089  -53.3868 C.3       18 UNK         0.1400 
    101 CB        -6.1159  -23.0334  -54.7695 C.3       18 UNK        -0.1800 
    102 C         -6.1748  -22.3253  -52.3465 C.2       18 UNK         0.5000 
    103 O         -5.9752  -21.1085  -52.3540 O.2       18 UNK        -0.5000 
    104 N         -7.0154  -22.9331  -51.5005 N.am      19 UNK        -0.5000 
    105 CA        -7.7700  -22.2486  -50.4435 C.3       19 UNK         0.1400 
    106 CB        -8.4182  -23.3002  -49.5305 C.3       19 UNK        -0.1800 
    107 C         -8.8269  -21.2570  -50.9730 C.2       19 UNK         0.5000 
    108 O         -9.1975  -20.3252  -50.2593 O.2       19 UNK        -0.5000 
    109 N         -9.2707  -21.4604  -52.2209 N.am      20 UNK        -0.5000 
    110 CA       -10.1350  -20.5435  -52.9660 C.3       20 UNK         0.1400 
    111 CB       -10.8046  -21.3241  -54.1084 C.3       20 UNK        -0.1800 
    112 C         -9.3805  -19.3161  -53.5223 C.2       20 UNK         0.5000 
    113 O        -10.0282  -18.3509  -53.9305 O.2       20 UNK        -0.5000 
    114 N         -8.0427  -19.3769  -53.5453 N.am      21 UNK        -0.5000 
    115 CA        -7.1428  -18.3169  -53.9832 C.3       21 UNK         0.1400 
    116 CB        -6.2393  -18.8665  -55.1071 C.3       21 UNK        -0.1800 
    117 C         -6.3736  -17.7910  -52.7556 C.2       21 UNK         0.5000 
    118 O         -7.0045  -17.4148  -51.7658 O.2       21 UNK        -0.5000 
    119 N         -5.0391  -17.7527  -52.8379 N.am      22 UNK        -0.5000 
    120 CA        -4.1345  -17.2662  -51.7861 C.3       22 UNK         0.1400 
    121 C         -3.7570  -18.3108  -50.6947 C.2       22 UNK         0.5000 
    122 N         -4.2951  -19.5231  -50.6891 N.am      22 UNK        -0.7600 
    123 O         -2.9602  -18.0074  -49.8163 O.2       22 UNK        -0.5000 
    124 C124       -2.8956  -16.5578  -52.3928 C.3       23 UNK        -0.0398 
    125 S125       -1.8433  -17.6415  -53.4214 S.3       23 UNK        -0.2404 
    126 C126       -0.2124  -16.8544  -53.2274 C.3       23 UNK        -0.0205 
    127 H127        5.1853  -11.2753  -52.0031 H         1 UNK         0.0600 
    128 H128        6.7220  -10.8828  -51.2242 H         1 UNK         0.0600 
    129 H129        5.1986  -10.4657  -50.4342 H         1 UNK         0.0600 
    130 H130        4.6802  -11.8569  -48.7674 H         1 UNK         0.3000 
    131 H131        5.8846  -14.5066  -48.5733 H         1 UNK         0.0600 
    132 H132        3.9817  -15.2071  -49.8017 H         1 UNK         0.0800 
    133 H133        3.6804  -15.6450  -48.1512 H         1 UNK         0.0800 
    134 H134        1.1783  -15.6445  -47.5981 H         1 UNK         0.0800 
    135 H135       -0.0102  -14.7884  -48.5345 H         1 UNK         0.0800 
    136 H136       -0.0743  -15.1567  -51.0855 H         1 UNK         0.1150 
    137 H137        1.0508  -19.0935  -52.3479 H         1 UNK         0.1150 
    138 H138        2.1078  -17.7118  -48.4285 H         1 UNK         0.1150 
    139 H139        2.1569  -20.5960  -50.8891 H         1 UNK         0.0800 
    140 H140        3.4445  -19.6849  -50.1418 H         1 UNK         0.0800 
    141 H141        0.1388  -21.4670  -49.7564 H         1 UNK         0.0800 
    142 H142       -0.3962  -20.2654  -48.6017 H         1 UNK         0.0800 
    143 H143        0.6276  -23.0324  -47.7836 H         1 UNK         0.0600 
    144 H144       -0.1144  -20.8199  -46.1921 H         1 UNK         0.3000 
    145 H145       -0.8566  -22.7392  -43.2144 H         1 UNK         0.0600 
    146 H146        0.7955  -21.0741  -42.3901 H         1 UNK         0.0600 
    147 H147        1.5841  -22.3313  -43.3325 H         1 UNK         0.0600 
    148 H148        1.3170  -20.7455  -44.0404 H         1 UNK         0.0600 
    149 H149       -1.0713  -19.9483  -43.6942 H         1 UNK         0.3000 
    150 H150       -4.5042  -19.9308  -44.7389 H         1 UNK         0.0600 
    151 H151       -4.5842  -18.3194  -42.8525 H         1 UNK         0.0600 
    152 H152       -3.0702  -18.9515  -42.2118 H         1 UNK         0.0600 
    153 H153       -4.5042  -19.9685  -42.2496 H         1 UNK         0.0600 
    154 H154       -2.6053  -17.8331  -44.4095 H         1 UNK         0.3000 
    155 H155       -1.3172  -17.8598  -47.7533 H         1 UNK         0.0600 
    156 H156       -3.5444  -16.6135  -47.6135 H         1 UNK         0.0600 
    157 H157       -2.9974  -15.8859  -46.1101 H         1 UNK         0.0600 
    158 H158       -2.1413  -15.5624  -47.6186 H         1 UNK         0.0600 
    159 H159       -0.6458  -16.2015  -45.5840 H         1 UNK         0.3000 
    160 H160        1.8553  -18.3284  -44.0809 H         1 UNK         0.0600 
    161 H161        3.2902  -16.4149  -44.4858 H         1 UNK         0.0600 
    162 H162        2.1017  -15.6560  -45.5299 H         1 UNK         0.0600 
    163 H163        2.9167  -17.1302  -46.0469 H         1 UNK         0.0600 
    164 H164        1.0309  -15.7142  -43.3718 H         1 UNK         0.3000 
    165 H165       -1.5989  -16.6429  -41.1287 H         1 UNK         0.0600 
    166 H166       -0.1203  -15.3096  -39.6435 H         1 UNK         0.0600 
    167 H167        0.5555  -16.9099  -39.9077 H         1 UNK         0.0600 
    168 H168        1.2329  -15.5236  -40.7528 H         1 UNK         0.0600 
    169 H169       -0.3179  -14.2038  -42.1347 H         1 UNK         0.3000 
    170 H170       -2.9508  -13.4143  -44.3967 H         1 UNK         0.0600 
    171 H171       -2.1974  -12.1563  -41.7039 H         1 UNK         0.0600 
    172 H172       -3.0425  -11.3537  -43.0281 H         1 UNK         0.0600 
    173 H173       -3.8125  -12.6777  -42.1687 H         1 UNK         0.0600 
    174 H174       -0.6133  -11.9750  -43.6196 H         1 UNK         0.3000 
    175 H175        1.5853  -13.4273  -46.0379 H         1 UNK         0.0600 
    176 H176        1.6885  -11.1188  -46.8660 H         1 UNK         0.0600 
    177 H177        0.2319  -10.6839  -45.9696 H         1 UNK         0.0600 
    178 H178        0.1429  -11.8218  -47.3107 H         1 UNK         0.0600 
    179 H179        2.3726  -11.3676  -44.5774 H         1 UNK         0.3000 
    180 H180        3.2033  -11.2780  -42.3629 H         1 UNK         0.0600 
    181 H181        3.8314  -14.0742  -41.2641 H         1 UNK         0.0600 
    182 H182        2.6776  -12.9416  -40.5706 H         1 UNK         0.0600 
    183 H183        4.3886  -12.5429  -40.5909 H         1 UNK         0.0600 
    184 H184        5.2225  -13.2745  -43.0731 H         1 UNK         0.3000 
    185 H185        6.8712  -11.2856  -45.2547 H         1 UNK         0.0600 
    186 H186        6.5722  -14.1976  -44.3249 H         1 UNK         0.0600 
    187 H187        8.0166  -13.4602  -45.0022 H         1 UNK         0.0600 
    188 H188        7.4136  -12.9190  -43.4486 H         1 UNK         0.0600 
    189 H189        6.3972  -12.1152  -47.2560 H         1 UNK         0.3000 
    190 H190       -2.6024  -21.5629  -47.2679 H         1 UNK         0.3000 
    191 H191       -4.0196  -23.2220  -49.0969 H         1 UNK         0.0600 
    192 H192       -4.9986  -21.1577  -48.1849 H         1 UNK         0.0600 
    193 H193       -6.0149  -22.5213  -47.7409 H         1 UNK         0.0600 
    194 H194       -4.9447  -21.8018  -46.5473 H         1 UNK         0.0600 
    195 H195       -3.3321  -23.6255  -45.5823 H         1 UNK         0.3000 
    196 H196       -4.7180  -26.0833  -45.2595 H         1 UNK         0.0600 
    197 H197       -3.4352  -26.2030  -43.1131 H         1 UNK         0.0600 
    198 H198       -4.1377  -24.6121  -43.3627 H         1 UNK         0.0600 
    199 H199       -2.4169  -24.8684  -43.6420 H         1 UNK         0.0600 
    200 H200       -1.2799  -25.4036  -46.0163 H         1 UNK         0.3000 
    201 H201       -0.4474  -28.1610  -46.0765 H         1 UNK         0.0600 
    202 H202        1.1032  -26.2630  -45.6215 H         1 UNK         0.0600 
    203 H203        0.8328  -25.6295  -47.2445 H         1 UNK         0.0600 
    204 H204        1.6425  -27.1758  -47.0218 H         1 UNK         0.0600 
    205 H205       -2.2118  -26.2677  -48.3115 H         1 UNK         0.3000 
    206 H206       -2.9137  -26.4175  -50.3821 H         1 UNK         0.0600 
    207 H207       -3.4972  -28.8001  -49.8461 H         1 UNK         0.0600 
    208 H208       -3.1178  -28.5650  -51.5441 H         1 UNK         0.0600 
    209 H209       -1.9369  -29.3191  -50.4845 H         1 UNK         0.0600 
    210 H210       -0.3347  -25.4025  -49.7890 H         1 UNK         0.3000 
    211 H211        1.4032  -25.8551  -52.1280 H         1 UNK         0.0600 
    212 H212        1.5270  -23.7728  -49.8764 H         1 UNK         0.0600 
    213 H213        2.7702  -24.0632  -51.0837 H         1 UNK         0.0600 
    214 H214        2.4004  -25.3041  -49.8948 H         1 UNK         0.0600 
    215 H215       -1.2459  -23.8495  -51.0708 H         1 UNK         0.3000 
    216 H216       -1.4789  -22.6352  -53.7470 H         1 UNK         0.0600 
    217 H217       -2.3311  -20.5367  -52.6741 H         1 UNK         0.0600 
    218 H218       -0.6524  -20.8007  -52.2295 H         1 UNK         0.0600 
    219 H219       -1.9378  -21.1627  -51.0791 H         1 UNK         0.0600 
    220 H220       -3.7812  -22.2319  -54.2062 H         1 UNK         0.3000 
    221 H221       -5.5620  -24.2571  -53.0938 H         1 UNK         0.0600 
    222 H222       -6.0482  -22.0043  -55.1228 H         1 UNK         0.0600 
    223 H223       -5.6374  -23.6732  -55.5112 H         1 UNK         0.0600 
    224 H224       -7.1728  -23.3016  -54.7441 H         1 UNK         0.0600 
    225 H225       -7.1307  -23.9350  -51.5564 H         1 UNK         0.3000 
    226 H226       -7.0594  -21.6704  -49.8497 H         1 UNK         0.0600 
    227 H227       -7.6686  -23.9609  -49.0940 H         1 UNK         0.0600 
    228 H228       -8.9512  -22.8259  -48.7055 H         1 UNK         0.0600 
    229 H229       -9.1351  -23.9171  -50.0737 H         1 UNK         0.0600 
    230 H230       -8.9264  -22.2650  -52.7231 H         1 UNK         0.3000 
    231 H231      -10.9167  -20.1752  -52.2983 H         1 UNK         0.0600 
    232 H232      -10.0695  -21.7176  -54.8117 H         1 UNK         0.0600 
    233 H233      -11.4878  -20.6861  -54.6706 H         1 UNK         0.0600 
    234 H234      -11.3869  -22.1624  -53.7256 H         1 UNK         0.0600 
    235 H235       -7.5825  -20.1700  -53.1134 H         1 UNK         0.3000 
    236 H236       -7.7072  -17.4742  -54.3867 H         1 UNK         0.0600 
    237 H237       -6.8376  -19.2599  -55.9290 H         1 UNK         0.0600 
    238 H238       -5.6042  -18.0834  -55.5231 H         1 UNK         0.0600 
    239 H239       -5.5941  -19.6720  -54.7551 H         1 UNK         0.0600 
    240 H240       -4.5885  -18.1093  -53.6678 H         1 UNK         0.3000 
    241 H241       -4.6713  -16.4930  -51.2335 H         1 UNK         0.0600 
    242 H242       -4.0257  -20.1496  -49.9509 H         1 UNK         0.3800 
    243 H243       -4.9468  -19.8332  -51.4033 H         1 UNK         0.3800 
    244 H244       -3.2212  -15.7217  -53.0129 H         1 UNK         0.0800 
    245 H245       -2.2997  -16.1124  -51.5963 H         1 UNK         0.0800 
    246 H246       -0.3011  -15.7840  -53.4197 H         1 UNK         0.0800 
    247 H247        0.4551  -17.2438  -53.9974 H         1 UNK         0.0800 
@<TRIPOS>BOND
     1    1    2 1    
     2    1  127 1    
     3    1  128 1    
     4    1  129 1    
     5    2    3 2    
     6    2    4 am   BACKBONE|DICT|INTERRES
     7    4    5 1    
     8    4  130 1    
     9    5    6 1    
    10    5   65 1    
    11    5  131 1    
    12    6    7 1    
    13    6  132 1    
    14    6  133 1    
    15    7    8 1    
    16    8    9 1    
    17    8  134 1    
    18    8  135 1    
    19    9   10 ar   
    20    9   14 ar   
    21   10   11 ar   
    22   10  136 1    
    23   11   12 ar   
    24   11  126 1    
    25   12   13 ar   
    26   12  137 1    
    27   13   14 ar   
    28   13   15 1    
    29   14  138 1    
    30   15   16 1    
    31   15  139 1    
    32   15  140 1    
    33   16   17 1    
    34   17   18 1    
    35   17  141 1    
    36   17  142 1    
    37   18   19 1    
    38   18   67 1    
    39   18  143 1    
    40   19   20 am   BACKBONE|DICT|INTERRES
    41   19  144 1    
    42   20   21 2    
    43   20   22 1    
    44   22   23 1    
    45   22   24 1    
    46   22  145 1    
    47   23  146 1    
    48   23  147 1    
    49   23  148 1    
    50   24   25 am   BACKBONE|DICT|INTERRES
    51   24  149 1    
    52   25   26 2    
    53   25   27 1    
    54   27   28 1    
    55   27   29 1    
    56   27  150 1    
    57   28  151 1    
    58   28  152 1    
    59   28  153 1    
    60   29   30 am   BACKBONE|DICT|INTERRES
    61   29  154 1    
    62   30   31 2    
    63   30   32 1    
    64   32   33 1    
    65   32   34 1    
    66   32  155 1    
    67   33  156 1    
    68   33  157 1    
    69   33  158 1    
    70   34   35 am   BACKBONE|DICT|INTERRES
    71   34  159 1    
    72   35   36 2    
    73   35   37 1    
    74   37   38 1    
    75   37   39 1    
    76   37  160 1    
    77   38  161 1    
    78   38  162 1    
    79   38  163 1    
    80   39   40 am   BACKBONE|DICT|INTERRES
    81   39  164 1    
    82   40   41 2    
    83   40   42 1    
    84   42   43 1    
    85   42   44 1    
    86   42  165 1    
    87   43  166 1    
    88   43  167 1    
    89   43  168 1    
    90   44   45 am   BACKBONE|DICT|INTERRES
    91   44  169 1    
    92   45   46 2    
    93   45   47 1    
    94   47   48 1    
    95   47   49 1    
    96   47  170 1    
    97   48  171 1    
    98   48  172 1    
    99   48  173 1    
   100   49   50 am   BACKBONE|DICT|INTERRES
   101   49  174 1    
   102   50   51 2    
   103   50   52 1    
   104   52   53 1    
   105   52   54 1    
   106   52  175 1    
   107   53  176 1    
   108   53  177 1    
   109   53  178 1    
   110   54   55 am   BACKBONE|DICT|INTERRES
   111   54  179 1    
   112   55   56 2    
   113   55   57 1    
   114   57   58 1    
   115   57   59 1    
   116   57  180 1    
   117   58  181 1    
   118   58  182 1    
   119   58  183 1    
   120   59   60 am   BACKBONE|DICT|INTERRES
   121   59  184 1    
   122   60   61 2    
   123   60   62 1    
   124   62   63 1    
   125   62   64 1    
   126   62  185 1    
   127   63  186 1    
   128   63  187 1    
   129   63  188 1    
   130   64   65 am   BACKBONE|DICT|INTERRES
   131   64  189 1    
   132   65   66 2    
   133   67   68 2    
   134   67   69 am   BACKBONE|DICT|INTERRES
   135   69   70 1    
   136   69  190 1    
   137   70   71 1    
   138   70   72 1    
   139   70  191 1    
   140   71  192 1    
   141   71  193 1    
   142   71  194 1    
   143   72   73 2    
   144   72   74 am   BACKBONE|DICT|INTERRES
   145   74   75 1    
   146   74  195 1    
   147   75   76 1    
   148   75   77 1    
   149   75  196 1    
   150   76  197 1    
   151   76  198 1    
   152   76  199 1    
   153   77   78 2    
   154   77   79 am   BACKBONE|DICT|INTERRES
   155   79   80 1    
   156   79  200 1    
   157   80   81 1    
   158   80   82 1    
   159   80  201 1    
   160   81  202 1    
   161   81  203 1    
   162   81  204 1    
   163   82   83 2    
   164   82   84 am   BACKBONE|DICT|INTERRES
   165   84   85 1    
   166   84  205 1    
   167   85   86 1    
   168   85   87 1    
   169   85  206 1    
   170   86  207 1    
   171   86  208 1    
   172   86  209 1    
   173   87   88 2    
   174   87   89 am   BACKBONE|DICT|INTERRES
   175   89   90 1    
   176   89  210 1    
   177   90   91 1    
   178   90   92 1    
   179   90  211 1    
   180   91  212 1    
   181   91  213 1    
   182   91  214 1    
   183   92   93 2    
   184   92   94 am   BACKBONE|DICT|INTERRES
   185   94   95 1    
   186   94  215 1    
   187   95   96 1    
   188   95   97 1    
   189   95  216 1    
   190   96  217 1    
   191   96  218 1    
   192   96  219 1    
   193   97   98 2    
   194   97   99 am   BACKBONE|DICT|INTERRES
   195   99  100 1    
   196   99  220 1    
   197  100  101 1    
   198  100  102 1    
   199  100  221 1    
   200  101  222 1    
   201  101  223 1    
   202  101  224 1    
   203  102  103 2    
   204  102  104 am   BACKBONE|DICT|INTERRES
   205  104  105 1    
   206  104  225 1    
   207  105  106 1    
   208  105  107 1    
   209  105  226 1    
   210  106  227 1    
   211  106  228 1    
   212  106  229 1    
   213  107  108 2    
   214  107  109 am   BACKBONE|DICT|INTERRES
   215  109  110 1    
   216  109  230 1    
   217  110  111 1    
   218  110  112 1    
   219  110  231 1    
   220  111  232 1    
   221  111  233 1    
   222  111  234 1    
   223  112  113 2    
   224  112  114 am   BACKBONE|DICT|INTERRES
   225  114  115 1    
   226  114  235 1    
   227  115  116 1    
   228  115  117 1    
   229  115  236 1    
   230  116  237 1    
   231  116  238 1    
   232  116  239 1    
   233  117  118 2    
   234  117  119 am   BACKBONE|DICT|INTERRES
   235  119  120 1    
   236  119  240 1    
   237  120  121 1    
   238  120  124 1    
   239  120  241 1    
   240  121  122 am   BACKBONE|DICT|INTERRES
   241  121  123 2    
   242  122  242 1    
   243  122  243 1    
   244  124  125 1    
   245  124  244 1    
   246  124  245 1    
   247  125  126 1    
   248  126  246 1    
   249  126  247 1    
@<TRIPOS>SUBSTRUCTURE
     1 UNK         1 GROUP             0       ****    0 ROOT    
