@<TRIPOS>MOLECULE
3R540
247   249    1
SMALL
USER_CHARGES


@<TRIPOS>ATOM
      1 CA         -6.4892  -16.5301  -45.3133 C.3       0 UNK        -0.1800 
      2 C          -5.4757  -15.4071  -45.1550 C.2       0 UNK         0.5000 
      3 O          -5.7108  -14.4641  -44.3991 O.2       0 UNK        -0.5000 
      4 N          -4.3389  -15.5086  -45.8503 N.am      1 UNK        -0.5000 
      5 CA         -3.2605  -14.5188  -45.8724 C.3       1 UNK         0.1400 
      6 C6         -2.5344  -14.5040  -47.2384 C.3       23 UNK        -0.0398 
      7 S7         -3.6486  -14.1703  -48.6478 S.3       23 UNK        -0.2404 
      8 C8         -2.4679  -14.0730  -50.0334 C.3       23 UNK        -0.0205 
      9 C9         -1.6358  -15.3402  -50.1609 C.ar      23 UNK        -0.0193 
     10 C10        -2.1426  -16.4612  -50.8241 C.ar      23 UNK        -0.1150 
     11 C11        -1.3943  -17.6404  -50.8918 C.ar      23 UNK        -0.0193 
     12 C12        -0.1304  -17.6912  -50.2972 C.ar      23 UNK        -0.1150 
     13 C13         0.3823  -16.5771  -49.6268 C.ar      23 UNK        -0.0193 
     14 C14        -0.3671  -15.4001  -49.5793 C.ar      23 UNK        -0.1150 
     15 C15         1.7302  -16.6423  -48.9236 C.3       23 UNK        -0.0205 
     16 S16         1.8003  -17.9303  -47.6357 S.3       23 UNK        -0.2404 
     17 C17         0.3159  -17.6060  -46.6155 C.3       23 UNK        -0.0398 
     18 CA         -0.6356  -18.8230  -46.5918 C.3       11 UNK         0.1400 
     19 N           0.0249  -20.0063  -46.0299 N.am      11 UNK        -0.5000 
     20 C          -0.4208  -21.2629  -46.1544 C.2       10 UNK         0.5000 
     21 O          -1.5327  -21.5479  -46.5959 O.2       10 UNK        -0.5000 
     22 CA          0.5352  -22.3833  -45.7158 C.3       10 UNK         0.1400 
     23 CB          1.6696  -22.5525  -46.7391 C.3       10 UNK        -0.1800 
     24 N           1.1080  -22.0848  -44.4059 N.am      10 UNK        -0.5000 
     25 C           0.7262  -22.6619  -43.2580 C.2       9 UNK         0.5000 
     26 O          -0.0576  -23.6096  -43.1932 O.2       9 UNK        -0.5000 
     27 CA          1.2917  -22.0648  -41.9502 C.3       9 UNK         0.1400 
     28 CB          2.5467  -22.8321  -41.5074 C.3       9 UNK        -0.1800 
     29 N           1.6138  -20.6373  -42.0352 N.am      9 UNK        -0.5000 
     30 C           0.7495  -19.6700  -42.3735 C.2       8 UNK         0.5000 
     31 O          -0.4406  -19.8717  -42.5985 O.2       8 UNK        -0.5000 
     32 CA          1.3102  -18.2511  -42.5725 C.3       8 UNK         0.1400 
     33 CB          1.0451  -17.3977  -41.3266 C.3       8 UNK        -0.1800 
     34 N           2.7343  -18.2040  -42.9329 N.am      8 UNK        -0.5000 
     35 C           3.2737  -18.7925  -44.0155 C.2       7 UNK         0.5000 
     36 O           2.6192  -19.4994  -44.7854 O.2       7 UNK        -0.5000 
     37 CA          4.7794  -18.5951  -44.2842 C.3       7 UNK         0.1400 
     38 CB          5.0202  -17.9254  -45.6446 C.3       7 UNK        -0.1800 
     39 N           5.4492  -17.8060  -43.2500 N.am      7 UNK        -0.5000 
     40 C           6.0674  -18.3259  -42.1809 C.2       6 UNK         0.5000 
     41 O           6.1496  -19.5345  -41.9596 O.2       6 UNK        -0.5000 
     42 CA          6.6798  -17.3301  -41.1744 C.3       6 UNK         0.1400 
     43 CB          8.1648  -17.0942  -41.4884 C.3       6 UNK        -0.1800 
     44 N           5.9916  -16.0371  -41.1247 N.am      6 UNK        -0.5000 
     45 C           4.7103  -15.8639  -40.7750 C.2       5 UNK         0.5000 
     46 O           3.9691  -16.7917  -40.4559 O.2       5 UNK        -0.5000 
     47 CA          4.1451  -14.4317  -40.8084 C.3       5 UNK         0.1400 
     48 CB          5.2245  -13.3347  -40.6757 C.3       5 UNK        -0.1800 
     49 N           3.3114  -14.1881  -41.9897 N.am      5 UNK        -0.5000 
     50 C           3.6724  -14.2671  -43.2805 C.2       4 UNK         0.5000 
     51 O           4.7639  -14.6984  -43.6565 O.2       4 UNK        -0.5000 
     52 CA          2.6537  -13.7899  -44.3428 C.3       4 UNK         0.1400 
     53 CB          2.2662  -14.9455  -45.2727 C.3       4 UNK        -0.1800 
     54 N           1.4235  -13.2100  -43.7970 N.am      4 UNK        -0.5000 
     55 C           1.3212  -12.0326  -43.1617 C.2       3 UNK         0.5000 
     56 O           2.2746  -11.2729  -42.9898 O.2       3 UNK        -0.5000 
     57 CA         -0.0670  -11.6350  -42.6098 C.3       3 UNK         0.1400 
     58 CB         -0.6346  -10.4400  -43.3919 C.3       3 UNK        -0.1800 
     59 N          -1.0576  -12.7151  -42.6301 N.am      3 UNK        -0.5000 
     60 C          -1.0042  -13.8512  -41.9203 C.2       2 UNK         0.5000 
     61 O          -0.1225  -14.0922  -41.0957 O.2       2 UNK        -0.5000 
     62 CA         -2.0866  -14.9132  -42.2136 C.3       2 UNK         0.1400 
     63 CB         -3.0939  -15.0021  -41.0584 C.3       2 UNK        -0.1800 
     64 N          -2.8189  -14.6969  -43.4671 N.am      2 UNK        -0.5000 
     65 C          -2.2919  -14.7749  -44.6967 C.2       1 UNK         0.5000 
     66 O          -1.1055  -15.0378  -44.9029 O.2       1 UNK        -0.5000 
     67 C          -1.9871  -18.4820  -45.9256 C.2       11 UNK         0.5000 
     68 O          -2.8470  -17.9051  -46.5910 O.2       11 UNK        -0.5000 
     69 N          -2.2013  -18.8746  -44.6592 N.am      12 UNK        -0.5000 
     70 CA         -3.4992  -18.7458  -43.9833 C.3       12 UNK         0.1400 
     71 CB         -3.3197  -18.8449  -42.4617 C.3       12 UNK        -0.1800 
     72 C          -4.5426  -19.7721  -44.4740 C.2       12 UNK         0.5000 
     73 O          -5.7275  -19.6058  -44.1876 O.2       12 UNK        -0.5000 
     74 N          -4.0992  -20.7956  -45.2146 N.am      13 UNK        -0.5000 
     75 CA         -4.9260  -21.8169  -45.8516 C.3       13 UNK         0.1400 
     76 CB         -4.4495  -23.2016  -45.3777 C.3       13 UNK        -0.1800 
     77 C          -4.8537  -21.6559  -47.3824 C.2       13 UNK         0.5000 
     78 O          -4.7647  -22.6494  -48.1043 O.2       13 UNK        -0.5000 
     79 N          -4.8903  -20.3984  -47.8502 N.am      14 UNK        -0.5000 
     80 CA         -4.6896  -19.9630  -49.2368 C.3       14 UNK         0.1400 
     81 CB         -4.9473  -18.4488  -49.3250 C.3       14 UNK        -0.1800 
     82 C          -5.5251  -20.6968  -50.3036 C.2       14 UNK         0.5000 
     83 O          -5.0384  -20.8951  -51.4171 O.2       14 UNK        -0.5000 
     84 N          -6.7570  -21.0859  -49.9522 N.am      15 UNK        -0.5000 
     85 CA         -7.6653  -21.8283  -50.8274 C.3       15 UNK         0.1400 
     86 CB         -9.1058  -21.6319  -50.3305 C.3       15 UNK        -0.1800 
     87 C          -7.3300  -23.3302  -50.9162 C.2       15 UNK         0.5000 
     88 O          -7.6124  -23.9492  -51.9425 O.2       15 UNK        -0.5000 
     89 N          -6.7512  -23.8916  -49.8463 N.am      16 UNK        -0.5000 
     90 CA         -6.3895  -25.3064  -49.7437 C.3       16 UNK         0.1400 
     91 CB         -6.4996  -25.7492  -48.2773 C.3       16 UNK        -0.1800 
     92 C          -4.9760  -25.5830  -50.2820 C.2       16 UNK         0.5000 
     93 O          -4.7200  -26.6839  -50.7725 O.2       16 UNK        -0.5000 
     94 N          -4.0876  -24.5837  -50.1985 N.am      17 UNK        -0.5000 
     95 CA         -2.7039  -24.5980  -50.6779 C.3       17 UNK         0.1400 
     96 CB         -1.9459  -23.4497  -49.9829 C.3       17 UNK        -0.1800 
     97 C          -2.6096  -24.5236  -52.2198 C.2       17 UNK         0.5000 
     98 O          -1.9826  -23.6089  -52.7523 O.2       17 UNK        -0.5000 
     99 N          -3.2621  -25.4741  -52.9024 N.am      18 UNK        -0.5000 
    100 CA        -3.4328  -25.5675  -54.3526 C.3       18 UNK         0.1400 
    101 CB        -4.1957  -26.8606  -54.6807 C.3       18 UNK        -0.1800 
    102 C         -2.1099  -25.4935  -55.1392 C.2       18 UNK         0.5000 
    103 O         -1.2514  -26.3632  -54.9716 O.2       18 UNK        -0.5000 
    104 N         -1.9806  -24.4618  -55.9807 N.am      19 UNK        -0.5000 
    105 CA        -0.7919  -24.1814  -56.7889 C.3       19 UNK         0.1400 
    106 CB         0.2036  -23.3402  -55.9668 C.3       19 UNK        -0.1800 
    107 C         -1.1510  -23.5116  -58.1301 C.2       19 UNK         0.5000 
    108 O         -0.2899  -22.8696  -58.7330 O.2       19 UNK        -0.5000 
    109 N         -2.4121  -23.6573  -58.5700 N.am      20 UNK        -0.5000 
    110 CA        -2.9966  -23.0867  -59.7947 C.3       20 UNK         0.1400 
    111 CB        -2.3440  -23.6960  -61.0537 C.3       20 UNK        -0.1800 
    112 C         -3.0124  -21.5400  -59.8125 C.2       20 UNK         0.5000 
    113 O         -2.9450  -20.9267  -60.8793 O.2       20 UNK        -0.5000 
    114 N         -3.1223  -20.9441  -58.6220 N.am      21 UNK        -0.5000 
    115 CA        -3.2151  -19.5106  -58.3599 C.3       21 UNK         0.1400 
    116 CB        -1.8612  -18.8066  -58.5792 C.3       21 UNK        -0.1800 
    117 C         -3.7197  -19.3776  -56.9211 C.2       21 UNK         0.5000 
    118 O         -4.8387  -18.9148  -56.6972 O.2       21 UNK        -0.5000 
    119 N         -2.9227  -19.9130  -55.9890 N.am      22 UNK        -0.5000 
    120 CA        -3.3979  -20.4161  -54.6942 C.3       22 UNK         0.1400 
    121 C         -4.1919  -21.7418  -54.8820 C.2       22 UNK         0.5000 
    122 N         -5.0271  -22.1132  -53.9239 N.am      22 UNK        -0.7600 
    123 O         -4.0317  -22.4514  -55.8777 O.2       22 UNK        -0.5000 
    124 C124       -2.2277  -20.6185  -53.7037 C.3       23 UNK        -0.0398 
    125 S125       -1.3819  -19.0623  -53.2701 S.3       23 UNK        -0.2404 
    126 C126       -1.9669  -18.8762  -51.5621 C.3       23 UNK        -0.0205 
    127 H127       -6.1276  -17.3093  -45.9850 H         1 UNK         0.0600 
    128 H128       -7.4223  -16.1386  -45.7180 H         1 UNK         0.0600 
    129 H129       -6.7002  -16.9844  -44.3453 H         1 UNK         0.0600 
    130 H130       -4.1459  -16.3459  -46.3903 H         1 UNK         0.3000 
    131 H131       -3.6848  -13.5237  -45.7226 H         1 UNK         0.0600 
    132 H132       -2.0606  -15.4694  -47.4094 H         1 UNK         0.0800 
    133 H133       -1.7395  -13.7562  -47.2418 H         1 UNK         0.0800 
    134 H134       -3.0193  -13.9005  -50.9588 H         1 UNK         0.0800 
    135 H135       -1.8222  -13.2041  -49.8967 H         1 UNK         0.0800 
    136 H136       -3.1280  -16.4211  -51.2664 H         1 UNK         0.1150 
    137 H137        0.4448  -18.6058  -50.3335 H         1 UNK         0.1150 
    138 H138        0.0214  -14.5373  -49.0565 H         1 UNK         0.1150 
    139 H139        2.5076  -16.8394  -49.6626 H         1 UNK         0.0800 
    140 H140        1.9773  -15.6830  -48.4664 H         1 UNK         0.0800 
    141 H141       -0.1916  -16.7148  -46.9811 H         1 UNK         0.0800 
    142 H142        0.6372  -17.3700  -45.6047 H         1 UNK         0.0800 
    143 H143       -0.8765  -19.0617  -47.6304 H         1 UNK         0.0600 
    144 H144        0.9621  -19.8516  -45.6684 H         1 UNK         0.3000 
    145 H145       -0.0336  -23.3151  -45.6872 H         1 UNK         0.0600 
    146 H146        2.3209  -23.3834  -46.4680 H         1 UNK         0.0600 
    147 H147        1.2707  -22.7617  -47.7326 H         1 UNK         0.0600 
    148 H148        2.2866  -21.6557  -46.8140 H         1 UNK         0.0600 
    149 H149        1.7401  -21.2930  -44.3624 H         1 UNK         0.3000 
    150 H150        0.5263  -22.1829  -41.1806 H         1 UNK         0.0600 
    151 H151        2.3390  -23.8985  -41.4097 H         1 UNK         0.0600 
    152 H152        2.9030  -22.4818  -40.5385 H         1 UNK         0.0600 
    153 H153        3.3600  -22.7201  -42.2257 H         1 UNK         0.0600 
    154 H154        2.5772  -20.3799  -41.8791 H         1 UNK         0.3000 
    155 H155        0.7534  -17.8034  -43.3956 H         1 UNK         0.0600 
    156 H156        1.5481  -17.8026  -40.4482 H         1 UNK         0.0600 
    157 H157       -0.0205  -17.3583  -41.0984 H         1 UNK         0.0600 
    158 H158        1.3837  -16.3721  -41.4701 H         1 UNK         0.0600 
    159 H159        3.3380  -17.6915  -42.3009 H         1 UNK         0.3000 
    160 H160        5.2207  -19.5927  -44.3305 H         1 UNK         0.0600 
    161 H161        4.6207  -16.9135  -45.6709 H         1 UNK         0.0600 
    162 H162        4.5510  -18.4897  -46.4512 H         1 UNK         0.0600 
    163 H163        6.0851  -17.8678  -45.8698 H         1 UNK         0.0600 
    164 H164        5.4097  -16.7974  -43.3492 H         1 UNK         0.3000 
    165 H165        6.6071  -17.7824  -40.1832 H         1 UNK         0.0600 
    166 H166        8.6328  -16.4621  -40.7335 H         1 UNK         0.0600 
    167 H167        8.7149  -18.0360  -41.5079 H         1 UNK         0.0600 
    168 H168        8.2990  -16.6152  -42.4592 H         1 UNK         0.0600 
    169 H169        6.5226  -15.2285  -41.4142 H         1 UNK         0.3000 
    170 H170        3.4849  -14.3462  -39.9440 H         1 UNK         0.0600 
    171 H171        5.8373  -13.4917  -39.7871 H         1 UNK         0.0600 
    172 H172        5.8912  -13.2983  -41.5378 H         1 UNK         0.0600 
    173 H173        4.7647  -12.3511  -40.5781 H         1 UNK         0.0600 
    174 H174        2.3668  -13.8857  -41.7939 H         1 UNK         0.3000 
    175 H175        3.1463  -13.0212  -44.9413 H         1 UNK         0.0600 
    176 H176        1.9236  -15.8052  -44.6986 H         1 UNK         0.0600 
    177 H177        1.4739  -14.6595  -45.9650 H         1 UNK         0.0600 
    178 H178        3.1153  -15.2622  -45.8763 H         1 UNK         0.0600 
    179 H179        0.5838  -13.7622  -43.9165 H         1 UNK         0.3000 
    180 H180        0.0752  -11.3303  -41.5710 H         1 UNK         0.0600 
    181 H181       -0.8101  -10.6919  -44.4386 H         1 UNK         0.0600 
    182 H182        0.0529   -9.5933  -43.3690 H         1 UNK         0.0600 
    183 H183       -1.5780  -10.0999  -42.9644 H         1 UNK         0.0600 
    184 H184       -1.8232  -12.6056  -43.2779 H         1 UNK         0.3000 
    185 H185       -1.5744  -15.8735  -42.2944 H         1 UNK         0.0600 
    186 H186       -2.5886  -15.2026  -40.1126 H         1 UNK         0.0600 
    187 H187       -3.6545  -14.0738  -40.9423 H         1 UNK         0.0600 
    188 H188       -3.8090  -15.8090  -41.2202 H         1 UNK         0.0600 
    189 H189       -3.8089  -14.4911  -43.3912 H         1 UNK         0.3000 
    190 H190       -1.4702  -19.3512  -44.1380 H         1 UNK         0.3000 
    191 H191       -3.8945  -17.7523  -44.1947 H         1 UNK         0.0600 
    192 H192       -3.0201  -19.8480  -42.1567 H         1 UNK         0.0600 
    193 H193       -4.2519  -18.6137  -41.9450 H         1 UNK         0.0600 
    194 H194       -2.5682  -18.1423  -42.1026 H         1 UNK         0.0600 
    195 H195       -3.1138  -20.8386  -45.4529 H         1 UNK         0.3000 
    196 H196       -5.9734  -21.7023  -45.5668 H         1 UNK         0.0600 
    197 H197       -5.0973  -23.9907  -45.7583 H         1 UNK         0.0600 
    198 H198       -4.4625  -23.2713  -44.2900 H         1 UNK         0.0600 
    199 H199       -3.4341  -23.4151  -45.7143 H         1 UNK         0.0600 
    200 H200       -4.9432  -19.6567  -47.1679 H         1 UNK         0.3000 
    201 H201       -3.6410  -20.1491  -49.4736 H         1 UNK         0.0600 
    202 H202       -4.1833  -17.8831  -48.7938 H         1 UNK         0.0600 
    203 H203       -5.9172  -18.1808  -48.9048 H         1 UNK         0.0600 
    204 H204       -4.9373  -18.0991  -50.3578 H         1 UNK         0.0600 
    205 H205       -7.0834  -20.8760  -49.0205 H         1 UNK         0.3000 
    206 H206       -7.5977  -21.4145  -51.8360 H         1 UNK         0.0600 
    207 H207       -9.3818  -20.5772  -50.3288 H         1 UNK         0.0600 
    208 H208       -9.8157  -22.1513  -50.9756 H         1 UNK         0.0600 
    209 H209       -9.2394  -22.0166  -49.3186 H         1 UNK         0.0600 
    210 H210       -6.4588  -23.2986  -49.0792 H         1 UNK         0.3000 
    211 H211       -7.0923  -25.9042  -50.3282 H         1 UNK         0.0600 
    212 H212       -5.7941  -25.2134  -47.6429 H         1 UNK         0.0600 
    213 H213       -6.2879  -26.8143  -48.1750 H         1 UNK         0.0600 
    214 H214       -7.5025  -25.5774  -47.8862 H         1 UNK         0.0600 
    215 H215       -4.3800  -23.7376  -49.7207 H         1 UNK         0.3000 
    216 H216       -2.2419  -25.5384  -50.3712 H         1 UNK         0.0600 
    217 H217       -0.8935  -23.4415  -50.2687 H         1 UNK         0.0600 
    218 H218       -1.9862  -23.5480  -48.8975 H         1 UNK         0.0600 
    219 H219       -2.3669  -22.4772  -50.2426 H         1 UNK         0.0600 
    220 H220       -3.7551  -26.1682  -52.3490 H         1 UNK         0.3000 
    221 H221       -4.0672  -24.7345  -54.6510 H         1 UNK         0.0600 
    222 H222       -3.6487  -27.7447  -54.3507 H         1 UNK         0.0600 
    223 H223       -5.1745  -26.8739  -54.2006 H         1 UNK         0.0600 
    224 H224       -4.3594  -26.9563  -55.7549 H         1 UNK         0.0600 
    225 H225       -2.7219  -23.7641  -56.0133 H         1 UNK         0.3000 
    226 H226       -0.3087  -25.1252  -57.0493 H         1 UNK         0.0600 
    227 H227        0.4296  -23.8115  -55.0100 H         1 UNK         0.0600 
    228 H228        1.1486  -23.2192  -56.4975 H         1 UNK         0.0600 
    229 H229       -0.1889  -22.3439  -55.7652 H         1 UNK         0.0600 
    230 H230       -3.0434  -24.2083  -58.0054 H         1 UNK         0.3000 
    231 H231       -4.0442  -23.3908  -59.7950 H         1 UNK         0.0600 
    232 H232       -2.8791  -23.3966  -61.9556 H         1 UNK         0.0600 
    233 H233       -2.3580  -24.7853  -61.0174 H         1 UNK         0.0600 
    234 H234       -1.3079  -23.3769  -61.1694 H         1 UNK         0.0600 
    235 H235       -3.2426  -21.5352  -57.8071 H         1 UNK         0.3000 
    236 H236       -3.9602  -19.0720  -59.0268 H         1 UNK         0.0600 
    237 H237       -1.5735  -18.8254  -59.6303 H         1 UNK         0.0600 
    238 H238       -1.9135  -17.7597  -58.2779 H         1 UNK         0.0600 
    239 H239       -1.0584  -19.2758  -58.0096 H         1 UNK         0.0600 
    240 H240       -2.0145  -20.2454  -56.2751 H         1 UNK         0.3000 
    241 H241       -4.0855  -19.6821  -54.2688 H         1 UNK         0.0600 
    242 H242       -5.0928  -21.5888  -53.0517 H         1 UNK         0.3800 
    243 H243       -5.5608  -22.9594  -54.0318 H         1 UNK         0.3800 
    244 H244       -2.5894  -21.0864  -52.7869 H         1 UNK         0.0800 
    245 H245       -1.4895  -21.3072  -54.1148 H         1 UNK         0.0800 
    246 H246       -1.6948  -19.7617  -50.9853 H         1 UNK         0.0800 
    247 H247       -3.0555  -18.8320  -51.5722 H         1 UNK         0.0800 
@<TRIPOS>BOND
     1    1    2 1    
     2    1  127 1    
     3    1  128 1    
     4    1  129 1    
     5    2    3 2    
     6    2    4 am   BACKBONE|DICT|INTERRES
     7    4    5 1    
     8    4  130 1    
     9    5    6 1    
    10    5   65 1    
    11    5  131 1    
    12    6    7 1    
    13    6  132 1    
    14    6  133 1    
    15    7    8 1    
    16    8    9 1    
    17    8  134 1    
    18    8  135 1    
    19    9   10 ar   
    20    9   14 ar   
    21   10   11 ar   
    22   10  136 1    
    23   11   12 ar   
    24   11  126 1    
    25   12   13 ar   
    26   12  137 1    
    27   13   14 ar   
    28   13   15 1    
    29   14  138 1    
    30   15   16 1    
    31   15  139 1    
    32   15  140 1    
    33   16   17 1    
    34   17   18 1    
    35   17  141 1    
    36   17  142 1    
    37   18   19 1    
    38   18   67 1    
    39   18  143 1    
    40   19   20 am   BACKBONE|DICT|INTERRES
    41   19  144 1    
    42   20   21 2    
    43   20   22 1    
    44   22   23 1    
    45   22   24 1    
    46   22  145 1    
    47   23  146 1    
    48   23  147 1    
    49   23  148 1    
    50   24   25 am   BACKBONE|DICT|INTERRES
    51   24  149 1    
    52   25   26 2    
    53   25   27 1    
    54   27   28 1    
    55   27   29 1    
    56   27  150 1    
    57   28  151 1    
    58   28  152 1    
    59   28  153 1    
    60   29   30 am   BACKBONE|DICT|INTERRES
    61   29  154 1    
    62   30   31 2    
    63   30   32 1    
    64   32   33 1    
    65   32   34 1    
    66   32  155 1    
    67   33  156 1    
    68   33  157 1    
    69   33  158 1    
    70   34   35 am   BACKBONE|DICT|INTERRES
    71   34  159 1    
    72   35   36 2    
    73   35   37 1    
    74   37   38 1    
    75   37   39 1    
    76   37  160 1    
    77   38  161 1    
    78   38  162 1    
    79   38  163 1    
    80   39   40 am   BACKBONE|DICT|INTERRES
    81   39  164 1    
    82   40   41 2    
    83   40   42 1    
    84   42   43 1    
    85   42   44 1    
    86   42  165 1    
    87   43  166 1    
    88   43  167 1    
    89   43  168 1    
    90   44   45 am   BACKBONE|DICT|INTERRES
    91   44  169 1    
    92   45   46 2    
    93   45   47 1    
    94   47   48 1    
    95   47   49 1    
    96   47  170 1    
    97   48  171 1    
    98   48  172 1    
    99   48  173 1    
   100   49   50 am   BACKBONE|DICT|INTERRES
   101   49  174 1    
   102   50   51 2    
   103   50   52 1    
   104   52   53 1    
   105   52   54 1    
   106   52  175 1    
   107   53  176 1    
   108   53  177 1    
   109   53  178 1    
   110   54   55 am   BACKBONE|DICT|INTERRES
   111   54  179 1    
   112   55   56 2    
   113   55   57 1    
   114   57   58 1    
   115   57   59 1    
   116   57  180 1    
   117   58  181 1    
   118   58  182 1    
   119   58  183 1    
   120   59   60 am   BACKBONE|DICT|INTERRES
   121   59  184 1    
   122   60   61 2    
   123   60   62 1    
   124   62   63 1    
   125   62   64 1    
   126   62  185 1    
   127   63  186 1    
   128   63  187 1    
   129   63  188 1    
   130   64   65 am   BACKBONE|DICT|INTERRES
   131   64  189 1    
   132   65   66 2    
   133   67   68 2    
   134   67   69 am   BACKBONE|DICT|INTERRES
   135   69   70 1    
   136   69  190 1    
   137   70   71 1    
   138   70   72 1    
   139   70  191 1    
   140   71  192 1    
   141   71  193 1    
   142   71  194 1    
   143   72   73 2    
   144   72   74 am   BACKBONE|DICT|INTERRES
   145   74   75 1    
   146   74  195 1    
   147   75   76 1    
   148   75   77 1    
   149   75  196 1    
   150   76  197 1    
   151   76  198 1    
   152   76  199 1    
   153   77   78 2    
   154   77   79 am   BACKBONE|DICT|INTERRES
   155   79   80 1    
   156   79  200 1    
   157   80   81 1    
   158   80   82 1    
   159   80  201 1    
   160   81  202 1    
   161   81  203 1    
   162   81  204 1    
   163   82   83 2    
   164   82   84 am   BACKBONE|DICT|INTERRES
   165   84   85 1    
   166   84  205 1    
   167   85   86 1    
   168   85   87 1    
   169   85  206 1    
   170   86  207 1    
   171   86  208 1    
   172   86  209 1    
   173   87   88 2    
   174   87   89 am   BACKBONE|DICT|INTERRES
   175   89   90 1    
   176   89  210 1    
   177   90   91 1    
   178   90   92 1    
   179   90  211 1    
   180   91  212 1    
   181   91  213 1    
   182   91  214 1    
   183   92   93 2    
   184   92   94 am   BACKBONE|DICT|INTERRES
   185   94   95 1    
   186   94  215 1    
   187   95   96 1    
   188   95   97 1    
   189   95  216 1    
   190   96  217 1    
   191   96  218 1    
   192   96  219 1    
   193   97   98 2    
   194   97   99 am   BACKBONE|DICT|INTERRES
   195   99  100 1    
   196   99  220 1    
   197  100  101 1    
   198  100  102 1    
   199  100  221 1    
   200  101  222 1    
   201  101  223 1    
   202  101  224 1    
   203  102  103 2    
   204  102  104 am   BACKBONE|DICT|INTERRES
   205  104  105 1    
   206  104  225 1    
   207  105  106 1    
   208  105  107 1    
   209  105  226 1    
   210  106  227 1    
   211  106  228 1    
   212  106  229 1    
   213  107  108 2    
   214  107  109 am   BACKBONE|DICT|INTERRES
   215  109  110 1    
   216  109  230 1    
   217  110  111 1    
   218  110  112 1    
   219  110  231 1    
   220  111  232 1    
   221  111  233 1    
   222  111  234 1    
   223  112  113 2    
   224  112  114 am   BACKBONE|DICT|INTERRES
   225  114  115 1    
   226  114  235 1    
   227  115  116 1    
   228  115  117 1    
   229  115  236 1    
   230  116  237 1    
   231  116  238 1    
   232  116  239 1    
   233  117  118 2    
   234  117  119 am   BACKBONE|DICT|INTERRES
   235  119  120 1    
   236  119  240 1    
   237  120  121 1    
   238  120  124 1    
   239  120  241 1    
   240  121  122 am   BACKBONE|DICT|INTERRES
   241  121  123 2    
   242  122  242 1    
   243  122  243 1    
   244  124  125 1    
   245  124  244 1    
   246  124  245 1    
   247  125  126 1    
   248  126  246 1    
   249  126  247 1    
@<TRIPOS>SUBSTRUCTURE
     1 UNK         1 GROUP             0       ****    0 ROOT    
