@<TRIPOS>MOLECULE
3R540
247   249    1
SMALL
USER_CHARGES


@<TRIPOS>ATOM
      1 CA          2.1983  -11.7290  -47.1528 C.3       0 UNK        -0.1800 
      2 C           1.6647  -12.6018  -46.0254 C.2       0 UNK         0.5000 
      3 O           2.1879  -12.5533  -44.9117 O.2       0 UNK        -0.5000 
      4 N           0.6212  -13.3889  -46.3134 N.am      1 UNK        -0.5000 
      5 CA         -0.1202  -14.2471  -45.3831 C.3       1 UNK         0.1400 
      6 C6         -0.9320  -13.4566  -44.3126 C.3       23 UNK        -0.0398 
      7 S7         -2.0107  -12.1510  -44.9966 S.3       23 UNK        -0.2404 
      8 C8         -3.5278  -13.0675  -45.4214 C.3       23 UNK        -0.0205 
      9 C9         -3.3423  -13.9224  -46.6662 C.ar      23 UNK        -0.0193 
     10 C10        -3.0414  -13.3214  -47.8929 C.ar      23 UNK        -0.1150 
     11 C11        -2.8196  -14.0921  -49.0378 C.ar      23 UNK        -0.0193 
     12 C12        -2.9200  -15.4847  -48.9391 C.ar      23 UNK        -0.1150 
     13 C13        -3.2489  -16.0991  -47.7290 C.ar      23 UNK        -0.0193 
     14 C14        -3.4525  -15.3129  -46.5921 C.ar      23 UNK        -0.1150 
     15 C15        -3.3438  -17.6141  -47.6484 C.3       23 UNK        -0.0205 
     16 S16        -4.9876  -18.1700  -47.1058 S.3       23 UNK        -0.2404 
     17 C17        -4.8249  -19.9793  -47.2647 C.3       23 UNK        -0.0398 
     18 CA         -3.7796  -20.6234  -46.3119 C.3       11 UNK         0.1400 
     19 N          -3.9156  -20.2417  -44.9022 N.am      11 UNK        -0.5000 
     20 C          -4.9686  -20.4030  -44.0868 C.2       10 UNK         0.5000 
     21 O          -6.0150  -20.9569  -44.4263 O.2       10 UNK        -0.5000 
     22 CA         -4.8234  -19.8945  -42.6370 C.3       10 UNK         0.1400 
     23 CB         -4.6659  -21.0834  -41.6753 C.3       10 UNK        -0.1800 
     24 N          -3.6832  -18.9939  -42.4546 N.am      10 UNK        -0.5000 
     25 C          -3.6422  -17.7118  -42.8447 C.2       9 UNK         0.5000 
     26 O          -4.6098  -17.1028  -43.2993 O.2       9 UNK        -0.5000 
     27 CA         -2.2779  -16.9990  -42.7396 C.3       9 UNK         0.1400 
     28 CB         -2.2190  -16.0976  -41.4979 C.3       9 UNK        -0.1800 
     29 N          -1.1338  -17.9178  -42.7226 N.am      9 UNK        -0.5000 
     30 C          -0.7549  -18.6532  -43.7751 C.2       8 UNK         0.5000 
     31 O          -1.3419  -18.6465  -44.8565 O.2       8 UNK        -0.5000 
     32 CA          0.4357  -19.5920  -43.5827 C.3       8 UNK         0.1400 
     33 CB         -0.0505  -21.0543  -43.5740 C.3       8 UNK        -0.1800 
     34 N           1.3804  -19.3394  -44.6649 N.am      8 UNK        -0.5000 
     35 C           2.6294  -19.8099  -44.7430 C.2       7 UNK         0.5000 
     36 O           3.1124  -20.5768  -43.9083 O.2       7 UNK        -0.5000 
     37 CA          3.5162  -19.3156  -45.9066 C.3       7 UNK         0.1400 
     38 CB          4.3539  -20.4493  -46.5342 C.3       7 UNK        -0.1800 
     39 N           2.8264  -18.5337  -46.9400 N.am      7 UNK        -0.5000 
     40 C           1.9320  -18.9648  -47.8421 C.2       6 UNK         0.5000 
     41 O           1.4987  -20.1144  -47.8711 O.2       6 UNK        -0.5000 
     42 CA          1.4613  -17.9766  -48.9246 C.3       6 UNK         0.1400 
     43 CB          0.0494  -17.4441  -48.6398 C.3       6 UNK        -0.1800 
     44 N           2.3923  -16.8649  -49.1349 N.am      6 UNK        -0.5000 
     45 C           2.6430  -16.3054  -50.3274 C.2       5 UNK         0.5000 
     46 O           2.0661  -16.6198  -51.3690 O.2       5 UNK        -0.5000 
     47 CA          3.7422  -15.2224  -50.3792 C.3       5 UNK         0.1400 
     48 CB          3.1241  -13.8345  -50.1555 C.3       5 UNK        -0.1800 
     49 N           4.8097  -15.4325  -49.3988 N.am      5 UNK        -0.5000 
     50 C           5.6190  -16.4994  -49.3537 C.2       4 UNK         0.5000 
     51 O           5.6551  -17.3558  -50.2381 O.2       4 UNK        -0.5000 
     52 CA          6.5276  -16.6694  -48.1142 C.3       4 UNK         0.1400 
     53 CB          8.0063  -16.5370  -48.5137 C.3       4 UNK        -0.1800 
     54 N           6.2803  -15.7857  -46.9645 N.am      4 UNK        -0.5000 
     55 C           5.1299  -15.6081  -46.3016 C.2       3 UNK         0.5000 
     56 O           4.0427  -16.0449  -46.6882 O.2       3 UNK        -0.5000 
     57 CA          5.2202  -14.7805  -45.0045 C.3       3 UNK         0.1400 
     58 CB          5.4921  -13.2998  -45.3107 C.3       3 UNK        -0.1800 
     59 N           3.9941  -14.8907  -44.2145 N.am      3 UNK        -0.5000 
     60 C           3.6527  -15.9715  -43.4976 C.2       2 UNK         0.5000 
     61 O           4.3996  -16.9346  -43.3211 O.2       2 UNK        -0.5000 
     62 CA          2.2422  -15.9963  -42.8761 C.3       2 UNK         0.1400 
     63 CB          2.2938  -15.6158  -41.3893 C.3       2 UNK        -0.1800 
     64 N           1.2928  -15.1174  -43.5579 N.am      2 UNK        -0.5000 
     65 C           0.7905  -15.3395  -44.7806 C.2       1 UNK         0.5000 
     66 O           1.0293  -16.3543  -45.4340 O.2       1 UNK        -0.5000 
     67 C          -3.7141  -22.1498  -46.5148 C.2       11 UNK         0.5000 
     68 O          -2.7304  -22.6530  -47.0594 O.2       11 UNK        -0.5000 
     69 N          -4.7531  -22.8671  -46.0707 N.am      12 UNK        -0.5000 
     70 CA         -4.9247  -24.3138  -46.2218 C.3       12 UNK         0.1400 
     71 CB         -6.3142  -24.7111  -45.7048 C.3       12 UNK        -0.1800 
     72 C          -3.8280  -25.1458  -45.5340 C.2       12 UNK         0.5000 
     73 O          -3.4734  -26.2101  -46.0393 O.2       12 UNK        -0.5000 
     74 N          -3.2681  -24.6194  -44.4360 N.am      13 UNK        -0.5000 
     75 CA         -2.1619  -25.2172  -43.6833 C.3       13 UNK         0.1400 
     76 CB         -1.9580  -24.4205  -42.3860 C.3       13 UNK        -0.1800 
     77 C          -0.8415  -25.3120  -44.4778 C.2       13 UNK         0.5000 
     78 O          -0.0230  -26.1819  -44.1786 O.2       13 UNK        -0.5000 
     79 N          -0.6692  -24.4391  -45.4797 N.am      14 UNK        -0.5000 
     80 CA          0.4620  -24.4350  -46.4112 C.3       14 UNK         0.1400 
     81 CB          1.0414  -23.0130  -46.4629 C.3       14 UNK        -0.1800 
     82 C           0.0527  -24.9114  -47.8202 C.2       14 UNK         0.5000 
     83 O           0.8747  -24.8565  -48.7352 O.2       14 UNK        -0.5000 
     84 N          -1.2088  -25.3443  -47.9796 N.am      15 UNK        -0.5000 
     85 CA         -1.8780  -25.7287  -49.2284 C.3       15 UNK         0.1400 
     86 CB         -1.2154  -26.9690  -49.8616 C.3       15 UNK        -0.1800 
     87 C          -2.0455  -24.5692  -50.2359 C.2       15 UNK         0.5000 
     88 O          -2.3321  -24.8173  -51.4082 O.2       15 UNK        -0.5000 
     89 N          -1.9264  -23.3180  -49.7673 N.am      16 UNK        -0.5000 
     90 CA         -2.0922  -22.1078  -50.5744 C.3       16 UNK         0.1400 
     91 CB         -1.6038  -20.8848  -49.7840 C.3       16 UNK        -0.1800 
     92 C          -3.5437  -21.9163  -51.0452 C.2       16 UNK         0.5000 
     93 O          -3.7623  -21.3933  -52.1361 O.2       16 UNK        -0.5000 
     94 N          -4.5052  -22.3947  -50.2415 N.am      17 UNK        -0.5000 
     95 CA         -5.9285  -22.4295  -50.5812 C.3       17 UNK         0.1400 
     96 CB         -6.7409  -22.8283  -49.3394 C.3       17 UNK        -0.1800 
     97 C          -6.2287  -23.3876  -51.7497 C.2       17 UNK         0.5000 
     98 O          -7.0239  -23.0476  -52.6251 O.2       17 UNK        -0.5000 
     99 N          -5.5620  -24.5515  -51.7570 N.am      18 UNK        -0.5000 
    100 CA        -5.6671  -25.5643  -52.8097 C.3       18 UNK         0.1400 
    101 CB        -5.0960  -26.8958  -52.2978 C.3       18 UNK        -0.1800 
    102 C         -4.9640  -25.1277  -54.1073 C.2       18 UNK         0.5000 
    103 O         -5.4697  -25.3996  -55.1964 O.2       18 UNK        -0.5000 
    104 N         -3.8304  -24.4272  -53.9646 N.am      19 UNK        -0.5000 
    105 CA        -3.0735  -23.8209  -55.0622 C.3       19 UNK         0.1400 
    106 CB        -1.6723  -23.4562  -54.5469 C.3       19 UNK        -0.1800 
    107 C         -3.7545  -22.5767  -55.6718 C.2       19 UNK         0.5000 
    108 O         -3.3488  -22.1435  -56.7509 O.2       19 UNK        -0.5000 
    109 N         -4.7484  -22.0168  -54.9642 N.am      20 UNK        -0.5000 
    110 CA        -5.4598  -20.7648  -55.2467 C.3       20 UNK         0.1400 
    111 CB        -6.2594  -20.8581  -56.5627 C.3       20 UNK        -0.1800 
    112 C         -4.5348  -19.5298  -55.1798 C.2       20 UNK         0.5000 
    113 O         -4.7361  -18.5544  -55.9062 O.2       20 UNK        -0.5000 
    114 N         -3.5391  -19.5908  -54.2887 N.am      21 UNK        -0.5000 
    115 CA        -2.5756  -18.5362  -54.0046 C.3       21 UNK         0.1400 
    116 CB        -1.2319  -19.1868  -53.6286 C.3       21 UNK        -0.1800 
    117 C         -3.1380  -17.6441  -52.8872 C.2       21 UNK         0.5000 
    118 O         -2.7432  -17.7893  -51.7303 O.2       21 UNK        -0.5000 
    119 N         -4.1019  -16.7924  -53.2632 N.am      22 UNK        -0.5000 
    120 CA        -4.8377  -15.7791  -52.4742 C.3       22 UNK         0.1400 
    121 C         -5.5105  -16.2035  -51.1310 C.2       22 UNK         0.5000 
    122 N         -5.2866  -17.4004  -50.6115 N.am      22 UNK        -0.7600 
    123 O         -6.3026  -15.4446  -50.5790 O.2       22 UNK        -0.5000 
    124 C124       -4.1205  -14.3963  -52.3995 C.3       23 UNK        -0.0398 
    125 S125       -2.3770  -14.3969  -51.8458 S.3       23 UNK        -0.2404 
    126 C126       -2.4272  -13.3739  -50.3309 C.3       23 UNK        -0.0205 
    127 H127        3.1734  -12.0838  -47.4831 H         1 UNK         0.0600 
    128 H128        2.3083  -10.7006  -46.8091 H         1 UNK         0.0600 
    129 H129        1.5277  -11.7259  -48.0125 H         1 UNK         0.0600 
    130 H130        0.2613  -13.3893  -47.2566 H         1 UNK         0.3000 
    131 H131       -0.8327  -14.7896  -46.0017 H         1 UNK         0.0600 
    132 H132       -0.2620  -12.9560  -43.6127 H         1 UNK         0.0800 
    133 H133       -1.5430  -14.1317  -43.7144 H         1 UNK         0.0800 
    134 H134       -4.3304  -12.3522  -45.6051 H         1 UNK         0.0800 
    135 H135       -3.8437  -13.6712  -44.5690 H         1 UNK         0.0800 
    136 H136       -2.9523  -12.2453  -47.9473 H         1 UNK         0.1150 
    137 H137       -2.7368  -16.1068  -49.8011 H         1 UNK         0.1150 
    138 H138       -3.6900  -15.7898  -45.6514 H         1 UNK         0.1150 
    139 H139       -2.5880  -17.9657  -46.9494 H         1 UNK         0.0800 
    140 H140       -3.1153  -18.0674  -48.6145 H         1 UNK         0.0800 
    141 H141       -4.5868  -20.2048  -48.3053 H         1 UNK         0.0800 
    142 H142       -5.8152  -20.3993  -47.0845 H         1 UNK         0.0800 
    143 H143       -2.7976  -20.2511  -46.6044 H         1 UNK         0.0600 
    144 H144       -3.1132  -19.7418  -44.5396 H         1 UNK         0.3000 
    145 H145       -5.7406  -19.3603  -42.3805 H         1 UNK         0.0600 
    146 H146       -5.5115  -21.7679  -41.7558 H         1 UNK         0.0600 
    147 H147       -4.6203  -20.7486  -40.6388 H         1 UNK         0.0600 
    148 H148       -3.7605  -21.6548  -41.8839 H         1 UNK         0.0600 
    149 H149       -2.8461  -19.3988  -42.0634 H         1 UNK         0.3000 
    150 H150       -2.1844  -16.3687  -43.6255 H         1 UNK         0.0600 
    151 H151       -2.2953  -16.6764  -40.5767 H         1 UNK         0.0600 
    152 H152       -3.0362  -15.3750  -41.5007 H         1 UNK         0.0600 
    153 H153       -1.2875  -15.5323  -41.4641 H         1 UNK         0.0600 
    154 H154       -0.6231  -17.9865  -41.8540 H         1 UNK         0.3000 
    155 H155        0.9246  -19.3685  -42.6326 H         1 UNK         0.0600 
    156 H156       -0.7997  -21.2045  -42.7965 H         1 UNK         0.0600 
    157 H157        0.7623  -21.7507  -43.3706 H         1 UNK         0.0600 
    158 H158       -0.5047  -21.3332  -44.5255 H         1 UNK         0.0600 
    159 H159        1.0642  -18.6749  -45.3635 H         1 UNK         0.3000 
    160 H160        4.2215  -18.6200  -45.4517 H         1 UNK         0.0600 
    161 H161        3.7250  -21.2354  -46.9520 H         1 UNK         0.0600 
    162 H162        5.0028  -20.9143  -45.7914 H         1 UNK         0.0600 
    163 H163        4.9947  -20.0716  -47.3309 H         1 UNK         0.0600 
    164 H164        3.0749  -17.5477  -46.9243 H         1 UNK         0.3000 
    165 H165        1.4097  -18.5671  -49.8421 H         1 UNK         0.0600 
    166 H166       -0.6332  -18.2641  -48.4176 H         1 UNK         0.0600 
    167 H167        0.0333  -16.7602  -47.7925 H         1 UNK         0.0600 
    168 H168       -0.3506  -16.9149  -49.5048 H         1 UNK         0.0600 
    169 H169        2.9186  -16.5424  -48.3310 H         1 UNK         0.3000 
    170 H170        4.1911  -15.2465  -51.3743 H         1 UNK         0.0600 
    171 H171        3.8771  -13.0482  -50.2106 H         1 UNK         0.0600 
    172 H172        2.6367  -13.7713  -49.1827 H         1 UNK         0.0600 
    173 H173        2.3698  -13.6172  -50.9131 H         1 UNK         0.0600 
    174 H174        4.8353  -14.7963  -48.6162 H         1 UNK         0.3000 
    175 H175        6.3657  -17.6897  -47.7609 H         1 UNK         0.0600 
    176 H176        8.2568  -17.2106  -49.3345 H         1 UNK         0.0600 
    177 H177        8.2433  -15.5229  -48.8377 H         1 UNK         0.0600 
    178 H178        8.6654  -16.7879  -47.6823 H         1 UNK         0.0600 
    179 H179        7.1072  -15.3475  -46.5849 H         1 UNK         0.3000 
    180 H180        6.0511  -15.1674  -44.4108 H         1 UNK         0.0600 
    181 H181        4.7341  -12.8784  -45.9681 H         1 UNK         0.0600 
    182 H182        6.4576  -13.1675  -45.8000 H         1 UNK         0.0600 
    183 H183        5.5096  -12.7047  -44.3974 H         1 UNK         0.0600 
    184 H184        3.3073  -14.1554  -44.3459 H         1 UNK         0.3000 
    185 H185        1.8746  -17.0204  -42.9503 H         1 UNK         0.0600 
    186 H186        2.9720  -16.2716  -40.8416 H         1 UNK         0.0600 
    187 H187        2.6420  -14.5918  -41.2484 H         1 UNK         0.0600 
    188 H188        1.3118  -15.7048  -40.9244 H         1 UNK         0.0600 
    189 H189        1.1085  -14.2307  -43.1121 H         1 UNK         0.3000 
    190 H190       -5.4851  -22.3658  -45.5727 H         1 UNK         0.3000 
    191 H191       -4.8784  -24.5423  -47.2881 H         1 UNK         0.0600 
    192 H192       -7.1012  -24.1960  -46.2562 H         1 UNK         0.0600 
    193 H193       -6.4847  -25.7822  -45.8210 H         1 UNK         0.0600 
    194 H194       -6.4332  -24.4705  -44.6476 H         1 UNK         0.0600 
    195 H195       -3.6225  -23.7370  -44.0991 H         1 UNK         0.3000 
    196 H196       -2.4526  -26.2353  -43.4159 H         1 UNK         0.0600 
    197 H197       -1.1490  -24.8436  -41.7889 H         1 UNK         0.0600 
    198 H198       -2.8566  -24.4337  -41.7689 H         1 UNK         0.0600 
    199 H199       -1.7063  -23.3805  -42.5899 H         1 UNK         0.0600 
    200 H200       -1.4012  -23.7672  -45.6745 H         1 UNK         0.3000 
    201 H201        1.2496  -25.1082  -46.0676 H         1 UNK         0.0600 
    202 H202        1.8638  -22.9416  -47.1755 H         1 UNK         0.0600 
    203 H203        1.4369  -22.7142  -45.4932 H         1 UNK         0.0600 
    204 H204        0.2870  -22.2834  -46.7602 H         1 UNK         0.0600 
    205 H205       -1.7914  -25.3957  -47.1535 H         1 UNK         0.3000 
    206 H206       -2.8906  -26.0154  -48.9416 H         1 UNK         0.0600 
    207 H207       -1.1149  -27.7760  -49.1359 H         1 UNK         0.0600 
    208 H208       -1.8130  -27.3523  -50.6895 H         1 UNK         0.0600 
    209 H209       -0.2239  -26.7444  -50.2552 H         1 UNK         0.0600 
    210 H210       -1.7714  -23.1833  -48.7742 H         1 UNK         0.3000 
    211 H211       -1.4646  -22.2069  -51.4616 H         1 UNK         0.0600 
    212 H212       -0.5591  -20.9964  -49.4942 H         1 UNK         0.0600 
    213 H213       -1.6794  -19.9747  -50.3797 H         1 UNK         0.0600 
    214 H214       -2.1851  -20.7263  -48.8782 H         1 UNK         0.0600 
    215 H215       -4.2257  -22.8232  -49.3725 H         1 UNK         0.3000 
    216 H216       -6.2303  -21.4240  -50.8827 H         1 UNK         0.0600 
    217 H217       -6.4899  -23.8320  -48.9957 H         1 UNK         0.0600 
    218 H218       -7.8100  -22.8166  -49.5555 H         1 UNK         0.0600 
    219 H219       -6.5728  -22.1389  -48.5138 H         1 UNK         0.0600 
    220 H220       -4.8949  -24.7336  -51.0233 H         1 UNK         0.3000 
    221 H221       -6.7248  -25.7145  -53.0373 H         1 UNK         0.0600 
    222 H222       -4.0362  -26.8167  -52.0543 H         1 UNK         0.0600 
    223 H223       -5.6216  -27.2334  -51.4045 H         1 UNK         0.0600 
    224 H224       -5.2002  -27.6780  -53.0507 H         1 UNK         0.0600 
    225 H225       -3.4417  -24.3210  -53.0332 H         1 UNK         0.3000 
    226 H226       -2.9658  -24.5621  -55.8567 H         1 UNK         0.0600 
    227 H227       -1.1679  -24.3233  -54.1199 H         1 UNK         0.0600 
    228 H228       -1.0442  -23.0789  -55.3548 H         1 UNK         0.0600 
    229 H229       -1.7177  -22.6824  -53.7807 H         1 UNK         0.0600 
    230 H230       -4.9730  -22.4441  -54.0762 H         1 UNK         0.3000 
    231 H231       -6.1792  -20.6429  -54.4357 H         1 UNK         0.0600 
    232 H232       -5.6062  -20.9015  -57.4345 H         1 UNK         0.0600 
    233 H233       -6.9087  -19.9907  -56.6862 H         1 UNK         0.0600 
    234 H234       -6.8957  -21.7430  -56.5746 H         1 UNK         0.0600 
    235 H235       -3.5243  -20.3821  -53.6485 H         1 UNK         0.3000 
    236 H236       -2.4148  -17.9195  -54.8914 H         1 UNK         0.0600 
    237 H237       -1.3320  -19.8624  -52.7792 H         1 UNK         0.0600 
    238 H238       -0.8282  -19.7612  -54.4624 H         1 UNK         0.0600 
    239 H239       -0.4922  -18.4304  -53.3629 H         1 UNK         0.0600 
    240 H240       -4.3817  -16.8417  -54.2338 H         1 UNK         0.3000 
    241 H241       -5.7118  -15.6015  -53.1022 H         1 UNK         0.0600 
    242 H242       -4.5222  -17.9479  -50.9892 H         1 UNK         0.3800 
    243 H243       -5.7221  -17.6512  -49.7391 H         1 UNK         0.3800 
    244 H244       -4.1174  -13.9598  -53.3989 H         1 UNK         0.0800 
    245 H245       -4.6967  -13.6945  -51.7945 H         1 UNK         0.0800 
    246 H246       -1.4301  -12.9565  -50.1857 H         1 UNK         0.0800 
    247 H247       -3.0897  -12.5228  -50.4946 H         1 UNK         0.0800 
@<TRIPOS>BOND
     1    1    2 1    
     2    1  127 1    
     3    1  128 1    
     4    1  129 1    
     5    2    3 2    
     6    2    4 am   BACKBONE|DICT|INTERRES
     7    4    5 1    
     8    4  130 1    
     9    5    6 1    
    10    5   65 1    
    11    5  131 1    
    12    6    7 1    
    13    6  132 1    
    14    6  133 1    
    15    7    8 1    
    16    8    9 1    
    17    8  134 1    
    18    8  135 1    
    19    9   10 ar   
    20    9   14 ar   
    21   10   11 ar   
    22   10  136 1    
    23   11   12 ar   
    24   11  126 1    
    25   12   13 ar   
    26   12  137 1    
    27   13   14 ar   
    28   13   15 1    
    29   14  138 1    
    30   15   16 1    
    31   15  139 1    
    32   15  140 1    
    33   16   17 1    
    34   17   18 1    
    35   17  141 1    
    36   17  142 1    
    37   18   19 1    
    38   18   67 1    
    39   18  143 1    
    40   19   20 am   BACKBONE|DICT|INTERRES
    41   19  144 1    
    42   20   21 2    
    43   20   22 1    
    44   22   23 1    
    45   22   24 1    
    46   22  145 1    
    47   23  146 1    
    48   23  147 1    
    49   23  148 1    
    50   24   25 am   BACKBONE|DICT|INTERRES
    51   24  149 1    
    52   25   26 2    
    53   25   27 1    
    54   27   28 1    
    55   27   29 1    
    56   27  150 1    
    57   28  151 1    
    58   28  152 1    
    59   28  153 1    
    60   29   30 am   BACKBONE|DICT|INTERRES
    61   29  154 1    
    62   30   31 2    
    63   30   32 1    
    64   32   33 1    
    65   32   34 1    
    66   32  155 1    
    67   33  156 1    
    68   33  157 1    
    69   33  158 1    
    70   34   35 am   BACKBONE|DICT|INTERRES
    71   34  159 1    
    72   35   36 2    
    73   35   37 1    
    74   37   38 1    
    75   37   39 1    
    76   37  160 1    
    77   38  161 1    
    78   38  162 1    
    79   38  163 1    
    80   39   40 am   BACKBONE|DICT|INTERRES
    81   39  164 1    
    82   40   41 2    
    83   40   42 1    
    84   42   43 1    
    85   42   44 1    
    86   42  165 1    
    87   43  166 1    
    88   43  167 1    
    89   43  168 1    
    90   44   45 am   BACKBONE|DICT|INTERRES
    91   44  169 1    
    92   45   46 2    
    93   45   47 1    
    94   47   48 1    
    95   47   49 1    
    96   47  170 1    
    97   48  171 1    
    98   48  172 1    
    99   48  173 1    
   100   49   50 am   BACKBONE|DICT|INTERRES
   101   49  174 1    
   102   50   51 2    
   103   50   52 1    
   104   52   53 1    
   105   52   54 1    
   106   52  175 1    
   107   53  176 1    
   108   53  177 1    
   109   53  178 1    
   110   54   55 am   BACKBONE|DICT|INTERRES
   111   54  179 1    
   112   55   56 2    
   113   55   57 1    
   114   57   58 1    
   115   57   59 1    
   116   57  180 1    
   117   58  181 1    
   118   58  182 1    
   119   58  183 1    
   120   59   60 am   BACKBONE|DICT|INTERRES
   121   59  184 1    
   122   60   61 2    
   123   60   62 1    
   124   62   63 1    
   125   62   64 1    
   126   62  185 1    
   127   63  186 1    
   128   63  187 1    
   129   63  188 1    
   130   64   65 am   BACKBONE|DICT|INTERRES
   131   64  189 1    
   132   65   66 2    
   133   67   68 2    
   134   67   69 am   BACKBONE|DICT|INTERRES
   135   69   70 1    
   136   69  190 1    
   137   70   71 1    
   138   70   72 1    
   139   70  191 1    
   140   71  192 1    
   141   71  193 1    
   142   71  194 1    
   143   72   73 2    
   144   72   74 am   BACKBONE|DICT|INTERRES
   145   74   75 1    
   146   74  195 1    
   147   75   76 1    
   148   75   77 1    
   149   75  196 1    
   150   76  197 1    
   151   76  198 1    
   152   76  199 1    
   153   77   78 2    
   154   77   79 am   BACKBONE|DICT|INTERRES
   155   79   80 1    
   156   79  200 1    
   157   80   81 1    
   158   80   82 1    
   159   80  201 1    
   160   81  202 1    
   161   81  203 1    
   162   81  204 1    
   163   82   83 2    
   164   82   84 am   BACKBONE|DICT|INTERRES
   165   84   85 1    
   166   84  205 1    
   167   85   86 1    
   168   85   87 1    
   169   85  206 1    
   170   86  207 1    
   171   86  208 1    
   172   86  209 1    
   173   87   88 2    
   174   87   89 am   BACKBONE|DICT|INTERRES
   175   89   90 1    
   176   89  210 1    
   177   90   91 1    
   178   90   92 1    
   179   90  211 1    
   180   91  212 1    
   181   91  213 1    
   182   91  214 1    
   183   92   93 2    
   184   92   94 am   BACKBONE|DICT|INTERRES
   185   94   95 1    
   186   94  215 1    
   187   95   96 1    
   188   95   97 1    
   189   95  216 1    
   190   96  217 1    
   191   96  218 1    
   192   96  219 1    
   193   97   98 2    
   194   97   99 am   BACKBONE|DICT|INTERRES
   195   99  100 1    
   196   99  220 1    
   197  100  101 1    
   198  100  102 1    
   199  100  221 1    
   200  101  222 1    
   201  101  223 1    
   202  101  224 1    
   203  102  103 2    
   204  102  104 am   BACKBONE|DICT|INTERRES
   205  104  105 1    
   206  104  225 1    
   207  105  106 1    
   208  105  107 1    
   209  105  226 1    
   210  106  227 1    
   211  106  228 1    
   212  106  229 1    
   213  107  108 2    
   214  107  109 am   BACKBONE|DICT|INTERRES
   215  109  110 1    
   216  109  230 1    
   217  110  111 1    
   218  110  112 1    
   219  110  231 1    
   220  111  232 1    
   221  111  233 1    
   222  111  234 1    
   223  112  113 2    
   224  112  114 am   BACKBONE|DICT|INTERRES
   225  114  115 1    
   226  114  235 1    
   227  115  116 1    
   228  115  117 1    
   229  115  236 1    
   230  116  237 1    
   231  116  238 1    
   232  116  239 1    
   233  117  118 2    
   234  117  119 am   BACKBONE|DICT|INTERRES
   235  119  120 1    
   236  119  240 1    
   237  120  121 1    
   238  120  124 1    
   239  120  241 1    
   240  121  122 am   BACKBONE|DICT|INTERRES
   241  121  123 2    
   242  122  242 1    
   243  122  243 1    
   244  124  125 1    
   245  124  244 1    
   246  124  245 1    
   247  125  126 1    
   248  126  246 1    
   249  126  247 1    
@<TRIPOS>SUBSTRUCTURE
     1 UNK         1 GROUP             0       ****    0 ROOT    
