@<TRIPOS>MOLECULE
3R540
247   249    1
SMALL
USER_CHARGES


@<TRIPOS>ATOM
      1 CA         -4.6185  -15.5238  -48.1604 C.3       0 UNK        -0.1800 
      2 C          -3.2710  -15.3058  -47.4863 C.2       0 UNK         0.5000 
      3 O          -2.8032  -16.1916  -46.7762 O.2       0 UNK        -0.5000 
      4 N          -2.6740  -14.1213  -47.6911 N.am      1 UNK        -0.5000 
      5 CA         -1.3357  -13.6686  -47.2638 C.3       1 UNK         0.1400 
      6 C6         -0.1932  -14.0505  -48.2489 C.3       23 UNK        -0.0398 
      7 S7          0.0861  -15.8328  -48.5292 S.3       23 UNK        -0.2404 
      8 C8          1.6841  -15.7631  -49.3941 C.3       23 UNK        -0.0205 
      9 C9          2.0219  -17.0767  -50.0836 C.ar      23 UNK        -0.0193 
     10 C10         1.5577  -17.3214  -51.3796 C.ar      23 UNK        -0.1150 
     11 C11         1.9122  -18.4931  -52.0549 C.ar      23 UNK        -0.0193 
     12 C12         2.7365  -19.4256  -51.4199 C.ar      23 UNK        -0.1150 
     13 C13         3.1904  -19.2048  -50.1166 C.ar      23 UNK        -0.0193 
     14 C14         2.8305  -18.0270  -49.4519 C.ar      23 UNK        -0.1150 
     15 C15         4.0916  -20.2327  -49.4480 C.3       23 UNK        -0.0205 
     16 S16         3.1848  -21.7426  -48.9859 S.3       23 UNK        -0.2404 
     17 C17         2.2699  -21.1562  -47.5247 C.3       23 UNK        -0.0398 
     18 CA          1.0496  -22.0407  -47.1751 C.3       11 UNK         0.1400 
     19 N           0.6522  -21.8818  -45.7742 N.am      11 UNK        -0.5000 
     20 C          -0.2751  -22.6163  -45.1448 C.2       10 UNK         0.5000 
     21 O          -0.8633  -23.5649  -45.6629 O.2       10 UNK        -0.5000 
     22 CA         -0.6404  -22.1920  -43.7101 C.3       10 UNK         0.1400 
     23 CB          0.3568  -22.7704  -42.6956 C.3       10 UNK        -0.1800 
     24 N          -0.7147  -20.7390  -43.5523 N.am      10 UNK        -0.5000 
     25 C          -1.6011  -19.9483  -44.1755 C.2       9 UNK         0.5000 
     26 O          -2.4888  -20.3689  -44.9165 O.2       9 UNK        -0.5000 
     27 CA         -1.4354  -18.4306  -43.9666 C.3       9 UNK         0.1400 
     28 CB         -1.9776  -18.0236  -42.5853 C.3       9 UNK        -0.1800 
     29 N          -0.0407  -18.0005  -44.1092 N.am      9 UNK        -0.5000 
     30 C           0.6934  -18.1630  -45.2221 C.2       8 UNK         0.5000 
     31 O           0.2590  -18.6464  -46.2661 O.2       8 UNK        -0.5000 
     32 CA          2.1907  -17.8207  -45.1251 C.3       8 UNK         0.1400 
     33 CB          2.4479  -16.3234  -45.3430 C.3       8 UNK        -0.1800 
     34 N           2.7589  -18.2432  -43.8449 N.am      8 UNK        -0.5000 
     35 C           2.9505  -19.5233  -43.4933 C.2       7 UNK         0.5000 
     36 O           2.7172  -20.4748  -44.2362 O.2       7 UNK        -0.5000 
     37 CA          3.4381  -19.7872  -42.0567 C.3       7 UNK         0.1400 
     38 CB          4.9674  -19.6734  -41.9753 C.3       7 UNK        -0.1800 
     39 N           2.8321  -18.8749  -41.0871 N.am      7 UNK        -0.5000 
     40 C           1.5254  -18.8402  -40.7867 C.2       6 UNK         0.5000 
     41 O           0.7065  -19.6448  -41.2289 O.2       6 UNK        -0.5000 
     42 CA          1.0506  -17.6764  -39.8921 C.3       6 UNK         0.1400 
     43 CB          1.0582  -18.0929  -38.4143 C.3       6 UNK        -0.1800 
     44 N           1.8681  -16.4702  -40.0635 N.am      6 UNK        -0.5000 
     45 C           1.9266  -15.7594  -41.1972 C.2       5 UNK         0.5000 
     46 O           1.2179  -15.9868  -42.1812 O.2       5 UNK        -0.5000 
     47 CA          3.0359  -14.7021  -41.2776 C.3       5 UNK         0.1400 
     48 CB          4.3860  -15.4011  -41.5540 C.3       5 UNK        -0.1800 
     49 N           2.7225  -13.7488  -42.3388 N.am      5 UNK        -0.5000 
     50 C           3.4116  -12.6364  -42.6262 C.2       4 UNK         0.5000 
     51 O           4.4081  -12.2628  -42.0062 O.2       4 UNK        -0.5000 
     52 CA          2.8843  -11.7783  -43.7887 C.3       4 UNK         0.1400 
     53 CB          3.2328  -12.4105  -45.1457 C.3       4 UNK        -0.1800 
     54 N           1.4408  -11.5667  -43.6906 N.am      4 UNK        -0.5000 
     55 C           0.8689  -10.7225  -42.8164 C.2       3 UNK         0.5000 
     56 O           1.5090   -9.9972  -42.0538 O.2       3 UNK        -0.5000 
     57 CA         -0.6720  -10.6647  -42.7777 C.3       3 UNK         0.1400 
     58 CB         -1.1857   -9.4642  -43.5874 C.3       3 UNK        -0.1800 
     59 N          -1.3086  -11.8800  -43.2807 N.am      3 UNK        -0.5000 
     60 C          -1.2589  -13.0783  -42.6842 C.2       2 UNK         0.5000 
     61 O          -0.7536  -13.2691  -41.5780 O.2       2 UNK        -0.5000 
     62 CA         -1.8495  -14.2659  -43.4674 C.3       2 UNK         0.1400 
     63 CB         -3.2203  -14.6617  -42.8981 C.3       2 UNK        -0.1800 
     64 N          -1.9885  -14.0298  -44.9069 N.am      2 UNK        -0.5000 
     65 C          -0.9758  -13.8584  -45.7681 C.2       1 UNK         0.5000 
     66 O           0.1967  -13.7683  -45.4024 O.2       1 UNK        -0.5000 
     67 C          -0.1356  -21.8010  -48.1346 C.2       11 UNK         0.5000 
     68 O          -0.3864  -22.6324  -49.0062 O.2       11 UNK        -0.5000 
     69 N          -0.8821  -20.7086  -47.9189 N.am      12 UNK        -0.5000 
     70 CA         -2.0936  -20.3788  -48.6690 C.3       12 UNK         0.1400 
     71 CB         -2.5637  -18.9693  -48.2988 C.3       12 UNK        -0.1800 
     72 C          -3.2258  -21.3999  -48.4599 C.2       12 UNK         0.5000 
     73 O          -3.9087  -21.7492  -49.4225 O.2       12 UNK        -0.5000 
     74 N          -3.3934  -21.8848  -47.2212 N.am      13 UNK        -0.5000 
     75 CA         -4.3498  -22.9354  -46.8708 C.3       13 UNK         0.1400 
     76 CB         -4.4100  -23.1091  -45.3467 C.3       13 UNK        -0.1800 
     77 C          -4.0390  -24.2716  -47.5703 C.2       13 UNK         0.5000 
     78 O          -4.9525  -24.9015  -48.1059 O.2       13 UNK        -0.5000 
     79 N          -2.7533  -24.6514  -47.5991 N.am      14 UNK        -0.5000 
     80 CA         -2.2456  -25.8097  -48.3366 C.3       14 UNK         0.1400 
     81 CB         -0.7746  -26.0523  -47.9672 C.3       14 UNK        -0.1800 
     82 C          -2.4136  -25.6619  -49.8610 C.2       14 UNK         0.5000 
     83 O          -2.7385  -26.6405  -50.5347 O.2       14 UNK        -0.5000 
     84 N          -2.2512  -24.4348  -50.3732 N.am      15 UNK        -0.5000 
     85 CA         -2.4652  -24.0354  -51.7653 C.3       15 UNK         0.1400 
     86 CB         -1.6881  -22.7380  -52.0308 C.3       15 UNK        -0.1800 
     87 C          -3.9601  -23.9120  -52.1401 C.2       15 UNK         0.5000 
     88 O          -4.3769  -22.9011  -52.7144 O.2       15 UNK        -0.5000 
     89 N          -4.7209  -24.9720  -51.8392 N.am      16 UNK        -0.5000 
     90 CA         -6.1379  -25.1817  -52.1330 C.3       16 UNK         0.1400 
     91 CB         -6.3697  -25.2698  -53.6560 C.3       16 UNK        -0.1800 
     92 C          -7.0621  -24.1682  -51.4303 C.2       16 UNK         0.5000 
     93 O          -7.9075  -23.5531  -52.0795 O.2       16 UNK        -0.5000 
     94 N          -6.8996  -24.0302  -50.1058 N.am      17 UNK        -0.5000 
     95 CA         -7.7603  -23.2610  -49.1978 C.3       17 UNK         0.1400 
     96 CB         -9.1435  -23.9341  -49.0712 C.3       17 UNK        -0.1800 
     97 C          -7.8490  -21.7643  -49.5619 C.2       17 UNK         0.5000 
     98 O          -8.9446  -21.2052  -49.6361 O.2       17 UNK        -0.5000 
     99 N          -6.6799  -21.1531  -49.7963 N.am      18 UNK        -0.5000 
    100 CA        -6.4671  -19.7511  -50.1674 C.3       18 UNK         0.1400 
    101 CB        -6.9871  -18.7870  -49.0804 C.3       18 UNK        -0.1800 
    102 C         -6.9489  -19.3876  -51.5872 C.2       18 UNK         0.5000 
    103 O         -7.0612  -18.2015  -51.9006 O.2       18 UNK        -0.5000 
    104 N         -7.1571  -20.3948  -52.4503 N.am      19 UNK        -0.5000 
    105 CA        -7.3527  -20.2094  -53.8933 C.3       19 UNK         0.1400 
    106 CB        -7.9684  -21.4780  -54.4987 C.3       19 UNK        -0.1800 
    107 C         -6.0421  -19.8473  -54.6236 C.2       19 UNK         0.5000 
    108 O         -6.0978  -19.3583  -55.7524 O.2       19 UNK        -0.5000 
    109 N         -4.9011  -20.0828  -53.9580 N.am      20 UNK        -0.5000 
    110 CA        -3.5336  -19.7916  -54.3834 C.3       20 UNK         0.1400 
    111 CB        -3.3174  -18.2818  -54.6159 C.3       20 UNK        -0.1800 
    112 C         -3.0954  -20.6692  -55.5680 C.2       20 UNK         0.5000 
    113 O         -2.5536  -20.1683  -56.5561 O.2       20 UNK        -0.5000 
    114 N         -3.2802  -21.9898  -55.4134 N.am      21 UNK        -0.5000 
    115 CA        -2.7825  -23.0252  -56.3332 C.3       21 UNK         0.1400 
    116 CB        -3.3091  -24.3944  -55.8786 C.3       21 UNK        -0.1800 
    117 C         -1.2412  -23.0521  -56.4701 C.2       21 UNK         0.5000 
    118 O         -0.7189  -23.6119  -57.4342 O.2       21 UNK        -0.5000 
    119 N         -0.5554  -22.4161  -55.5140 N.am      22 UNK        -0.5000 
    120 CA         0.8634  -22.0428  -55.5259 C.3       22 UNK         0.1400 
    121 C          1.2759  -21.0486  -56.6546 C.2       22 UNK         0.5000 
    122 N          0.3550  -20.3258  -57.2840 N.am      22 UNK        -0.7600 
    123 O          2.4581  -20.9371  -56.9669 O.2       22 UNK        -0.5000 
    124 C124        1.2885  -21.5107  -54.1299 C.3       23 UNK        -0.0398 
    125 S125        0.2394  -20.1254  -53.5378 S.3       23 UNK        -0.2404 
    126 C126        1.4170  -18.7403  -53.4728 C.3       23 UNK        -0.0205 
    127 H127       -4.9714  -14.6250  -48.6663 H         1 UNK         0.0600 
    128 H128       -5.3661  -15.8148  -47.4224 H         1 UNK         0.0600 
    129 H129       -4.5398  -16.3215  -48.8989 H         1 UNK         0.0600 
    130 H130       -3.1664  -13.4496  -48.2632 H         1 UNK         0.3000 
    131 H131       -1.4128  -12.5831  -47.3411 H         1 UNK         0.0600 
    132 H132       -0.4102  -13.6072  -49.2215 H         1 UNK         0.0800 
    133 H133        0.7474  -13.5953  -47.9331 H         1 UNK         0.0800 
    134 H134        1.6589  -14.9638  -50.1366 H         1 UNK         0.0800 
    135 H135        2.4683  -15.4945  -48.6851 H         1 UNK         0.0800 
    136 H136        0.9289  -16.5890  -51.8664 H         1 UNK         0.1150 
    137 H137        3.0178  -20.3326  -51.9355 H         1 UNK         0.1150 
    138 H138        3.1894  -17.8417  -48.4494 H         1 UNK         0.1150 
    139 H139        4.8939  -20.5026  -50.1362 H         1 UNK         0.0800 
    140 H140        4.5767  -19.8129  -48.5652 H         1 UNK         0.0800 
    141 H141        1.9720  -20.1165  -47.6619 H         1 UNK         0.0800 
    142 H142        2.9829  -21.1601  -46.7006 H         1 UNK         0.0800 
    143 H143        1.3487  -23.0854  -47.2860 H         1 UNK         0.0600 
    144 H144        1.1289  -21.1552  -45.2506 H         1 UNK         0.3000 
    145 H145       -1.6271  -22.6004  -43.4838 H         1 UNK         0.0600 
    146 H146        0.0673  -22.5233  -41.6740 H         1 UNK         0.0600 
    147 H147        0.4005  -23.8577  -42.7685 H         1 UNK         0.0600 
    148 H148        1.3652  -22.3898  -42.8575 H         1 UNK         0.0600 
    149 H149       -0.0537  -20.3144  -42.9084 H         1 UNK         0.3000 
    150 H150       -2.0138  -17.9107  -44.7332 H         1 UNK         0.0600 
    151 H151       -3.0672  -18.0617  -42.5769 H         1 UNK         0.0600 
    152 H152       -1.6821  -17.0143  -42.3093 H         1 UNK         0.0600 
    153 H153       -1.6299  -18.6868  -41.7941 H         1 UNK         0.0600 
    154 H154        0.3921  -17.5584  -43.3068 H         1 UNK         0.3000 
    155 H155        2.7074  -18.3637  -45.9192 H         1 UNK         0.0600 
    156 H156        1.9384  -15.7096  -44.6028 H         1 UNK         0.0600 
    157 H157        3.5119  -16.0912  -45.2983 H         1 UNK         0.0600 
    158 H158        2.0867  -16.0070  -46.3205 H         1 UNK         0.0600 
    159 H159        2.9186  -17.5197  -43.1613 H         1 UNK         0.3000 
    160 H160        3.1540  -20.8070  -41.7886 H         1 UNK         0.0600 
    161 H161        5.3116  -18.6655  -42.2111 H         1 UNK         0.0600 
    162 H162        5.4467  -20.3567  -42.6776 H         1 UNK         0.0600 
    163 H163        5.3291  -19.9274  -40.9787 H         1 UNK         0.0600 
    164 H164        3.4412  -18.1944  -40.6597 H         1 UNK         0.3000 
    165 H165        0.0240  -17.4362  -40.1763 H         1 UNK         0.0600 
    166 H166        0.6608  -17.3007  -37.7795 H         1 UNK         0.0600 
    167 H167        0.4384  -18.9766  -38.2555 H         1 UNK         0.0600 
    168 H168        2.0642  -18.3306  -38.0664 H         1 UNK         0.0600 
    169 H169        2.4772  -16.2259  -39.2956 H         1 UNK         0.3000 
    170 H170        3.0789  -14.1676  -40.3268 H         1 UNK         0.0600 
    171 H171        4.3965  -15.8799  -42.5338 H         1 UNK         0.0600 
    172 H172        5.2195  -14.7005  -41.5202 H         1 UNK         0.0600 
    173 H173        4.5983  -16.1688  -40.8094 H         1 UNK         0.0600 
    174 H174        1.8932  -13.9798  -42.8723 H         1 UNK         0.3000 
    175 H175        3.3800  -10.8061  -43.7413 H         1 UNK         0.0600 
    176 H176        2.8716  -11.7976  -45.9716 H         1 UNK         0.0600 
    177 H177        2.8020  -13.4052  -45.2547 H         1 UNK         0.0600 
    178 H178        4.3127  -12.5100  -45.2610 H         1 UNK         0.0600 
    179 H179        0.8563  -12.1592  -44.2699 H         1 UNK         0.3000 
    180 H180       -0.9708  -10.5301  -41.7360 H         1 UNK         0.0600 
    181 H181       -0.9281   -9.5513  -44.6437 H         1 UNK         0.0600 
    182 H182       -0.7542   -8.5320  -43.2203 H         1 UNK         0.0600 
    183 H183       -2.2692   -9.3707  -43.5113 H         1 UNK         0.0600 
    184 H184       -1.7551  -11.8194  -44.1835 H         1 UNK         0.3000 
    185 H185       -1.1580  -15.1001  -43.3437 H         1 UNK         0.0600 
    186 H186       -3.9482  -13.8570  -43.0082 H         1 UNK         0.0600 
    187 H187       -3.6165  -15.5439  -43.4015 H         1 UNK         0.0600 
    188 H188       -3.1495  -14.8983  -41.8356 H         1 UNK         0.0600 
    189 H189       -2.9198  -14.1041  -45.2890 H         1 UNK         0.3000 
    190 H190       -0.5937  -20.0452  -47.2027 H         1 UNK         0.3000 
    191 H191       -1.8348  -20.3750  -49.7289 H         1 UNK         0.0600 
    192 H192       -1.7919  -18.2303  -48.5127 H         1 UNK         0.0600 
    193 H193       -3.4515  -18.6869  -48.8649 H         1 UNK         0.0600 
    194 H194       -2.8102  -18.8938  -47.2393 H         1 UNK         0.0600 
    195 H195       -2.8421  -21.4931  -46.4626 H         1 UNK         0.3000 
    196 H196       -5.3324  -22.6019  -47.2059 H         1 UNK         0.0600 
    197 H197       -5.1544  -23.8564  -45.0693 H         1 UNK         0.0600 
    198 H198       -4.6858  -22.1766  -44.8541 H         1 UNK         0.0600 
    199 H199       -3.4535  -23.4331  -44.9380 H         1 UNK         0.0600 
    200 H200       -2.0675  -24.0989  -47.0913 H         1 UNK         0.3000 
    201 H201       -2.8222  -26.6826  -48.0237 H         1 UNK         0.0600 
    202 H202       -0.6613  -26.2263  -46.8970 H         1 UNK         0.0600 
    203 H203       -0.1453  -25.2033  -48.2347 H         1 UNK         0.0600 
    204 H204       -0.3815  -26.9287  -48.4836 H         1 UNK         0.0600 
    205 H205       -1.9397  -23.6984  -49.7481 H         1 UNK         0.3000 
    206 H206       -2.0408  -24.8080  -52.4092 H         1 UNK         0.0600 
    207 H207       -0.6319  -22.8498  -51.7860 H         1 UNK         0.0600 
    208 H208       -1.7511  -22.4559  -53.0783 H         1 UNK         0.0600 
    209 H209       -2.0815  -21.9071  -51.4477 H         1 UNK         0.0600 
    210 H210       -4.2531  -25.7394  -51.3659 H         1 UNK         0.3000 
    211 H211       -6.3919  -26.1558  -51.7129 H         1 UNK         0.0600 
    212 H212       -6.1420  -24.3297  -54.1563 H         1 UNK         0.0600 
    213 H213       -7.4079  -25.5166  -53.8809 H         1 UNK         0.0600 
    214 H214       -5.7482  -26.0450  -54.1041 H         1 UNK         0.0600 
    215 H215       -6.1427  -24.5325  -49.6504 H         1 UNK         0.3000 
    216 H216       -7.2936  -23.3084  -48.2145 H         1 UNK         0.0600 
    217 H217       -9.7515  -23.4383  -48.3136 H         1 UNK         0.0600 
    218 H218       -9.0471  -24.9786  -48.7751 H         1 UNK         0.0600 
    219 H219       -9.6990  -23.9011  -50.0090 H         1 UNK         0.0600 
    220 H220       -5.8227  -21.6966  -49.7288 H         1 UNK         0.3000 
    221 H221       -5.3847  -19.6259  -50.2030 H         1 UNK         0.0600 
    222 H222       -8.0754  -18.7871  -49.0211 H         1 UNK         0.0600 
    223 H223       -6.5948  -19.0528  -48.0987 H         1 UNK         0.0600 
    224 H224       -6.6749  -17.7624  -49.2842 H         1 UNK         0.0600 
    225 H225       -7.0933  -21.3497  -52.1199 H         1 UNK         0.3000 
    226 H226       -8.0549  -19.3874  -54.0462 H         1 UNK         0.0600 
    227 H227       -8.8994  -21.7449  -53.9983 H         1 UNK         0.0600 
    228 H228       -8.1959  -21.3360  -55.5558 H         1 UNK         0.0600 
    229 H229       -7.2885  -22.3257  -54.4225 H         1 UNK         0.0600 
    230 H230       -4.9813  -20.5724  -53.0768 H         1 UNK         0.3000 
    231 H231       -2.8969  -20.0779  -53.5452 H         1 UNK         0.0600 
    232 H232       -3.8717  -17.9166  -55.4807 H         1 UNK         0.0600 
    233 H233       -2.2626  -18.0655  -54.7909 H         1 UNK         0.0600 
    234 H234       -3.6274  -17.7011  -53.7472 H         1 UNK         0.0600 
    235 H235       -3.7496  -22.3135  -54.5731 H         1 UNK         0.3000 
    236 H236       -3.1907  -22.8121  -57.3231 H         1 UNK         0.0600 
    237 H237       -4.3982  -24.4074  -55.8516 H         1 UNK         0.0600 
    238 H238       -2.9944  -25.1816  -56.5648 H         1 UNK         0.0600 
    239 H239       -2.9418  -24.6592  -54.8873 H         1 UNK         0.0600 
    240 H240       -1.0903  -21.9826  -54.7780 H         1 UNK         0.3000 
    241 H241        1.4260  -22.9586  -55.7153 H         1 UNK         0.0600 
    242 H242       -0.6243  -20.3755  -57.0227 H         1 UNK         0.3800 
    243 H243        0.6406  -19.6924  -58.0133 H         1 UNK         0.3800 
    244 H244        1.2108  -22.3162  -53.3989 H         1 UNK         0.0800 
    245 H245        2.3415  -21.2257  -54.1284 H         1 UNK         0.0800 
    246 H246        2.2630  -18.9164  -54.1382 H         1 UNK         0.0800 
    247 H247        0.9145  -17.8519  -53.8580 H         1 UNK         0.0800 
@<TRIPOS>BOND
     1    1    2 1    
     2    1  127 1    
     3    1  128 1    
     4    1  129 1    
     5    2    3 2    
     6    2    4 am   BACKBONE|DICT|INTERRES
     7    4    5 1    
     8    4  130 1    
     9    5    6 1    
    10    5   65 1    
    11    5  131 1    
    12    6    7 1    
    13    6  132 1    
    14    6  133 1    
    15    7    8 1    
    16    8    9 1    
    17    8  134 1    
    18    8  135 1    
    19    9   10 ar   
    20    9   14 ar   
    21   10   11 ar   
    22   10  136 1    
    23   11   12 ar   
    24   11  126 1    
    25   12   13 ar   
    26   12  137 1    
    27   13   14 ar   
    28   13   15 1    
    29   14  138 1    
    30   15   16 1    
    31   15  139 1    
    32   15  140 1    
    33   16   17 1    
    34   17   18 1    
    35   17  141 1    
    36   17  142 1    
    37   18   19 1    
    38   18   67 1    
    39   18  143 1    
    40   19   20 am   BACKBONE|DICT|INTERRES
    41   19  144 1    
    42   20   21 2    
    43   20   22 1    
    44   22   23 1    
    45   22   24 1    
    46   22  145 1    
    47   23  146 1    
    48   23  147 1    
    49   23  148 1    
    50   24   25 am   BACKBONE|DICT|INTERRES
    51   24  149 1    
    52   25   26 2    
    53   25   27 1    
    54   27   28 1    
    55   27   29 1    
    56   27  150 1    
    57   28  151 1    
    58   28  152 1    
    59   28  153 1    
    60   29   30 am   BACKBONE|DICT|INTERRES
    61   29  154 1    
    62   30   31 2    
    63   30   32 1    
    64   32   33 1    
    65   32   34 1    
    66   32  155 1    
    67   33  156 1    
    68   33  157 1    
    69   33  158 1    
    70   34   35 am   BACKBONE|DICT|INTERRES
    71   34  159 1    
    72   35   36 2    
    73   35   37 1    
    74   37   38 1    
    75   37   39 1    
    76   37  160 1    
    77   38  161 1    
    78   38  162 1    
    79   38  163 1    
    80   39   40 am   BACKBONE|DICT|INTERRES
    81   39  164 1    
    82   40   41 2    
    83   40   42 1    
    84   42   43 1    
    85   42   44 1    
    86   42  165 1    
    87   43  166 1    
    88   43  167 1    
    89   43  168 1    
    90   44   45 am   BACKBONE|DICT|INTERRES
    91   44  169 1    
    92   45   46 2    
    93   45   47 1    
    94   47   48 1    
    95   47   49 1    
    96   47  170 1    
    97   48  171 1    
    98   48  172 1    
    99   48  173 1    
   100   49   50 am   BACKBONE|DICT|INTERRES
   101   49  174 1    
   102   50   51 2    
   103   50   52 1    
   104   52   53 1    
   105   52   54 1    
   106   52  175 1    
   107   53  176 1    
   108   53  177 1    
   109   53  178 1    
   110   54   55 am   BACKBONE|DICT|INTERRES
   111   54  179 1    
   112   55   56 2    
   113   55   57 1    
   114   57   58 1    
   115   57   59 1    
   116   57  180 1    
   117   58  181 1    
   118   58  182 1    
   119   58  183 1    
   120   59   60 am   BACKBONE|DICT|INTERRES
   121   59  184 1    
   122   60   61 2    
   123   60   62 1    
   124   62   63 1    
   125   62   64 1    
   126   62  185 1    
   127   63  186 1    
   128   63  187 1    
   129   63  188 1    
   130   64   65 am   BACKBONE|DICT|INTERRES
   131   64  189 1    
   132   65   66 2    
   133   67   68 2    
   134   67   69 am   BACKBONE|DICT|INTERRES
   135   69   70 1    
   136   69  190 1    
   137   70   71 1    
   138   70   72 1    
   139   70  191 1    
   140   71  192 1    
   141   71  193 1    
   142   71  194 1    
   143   72   73 2    
   144   72   74 am   BACKBONE|DICT|INTERRES
   145   74   75 1    
   146   74  195 1    
   147   75   76 1    
   148   75   77 1    
   149   75  196 1    
   150   76  197 1    
   151   76  198 1    
   152   76  199 1    
   153   77   78 2    
   154   77   79 am   BACKBONE|DICT|INTERRES
   155   79   80 1    
   156   79  200 1    
   157   80   81 1    
   158   80   82 1    
   159   80  201 1    
   160   81  202 1    
   161   81  203 1    
   162   81  204 1    
   163   82   83 2    
   164   82   84 am   BACKBONE|DICT|INTERRES
   165   84   85 1    
   166   84  205 1    
   167   85   86 1    
   168   85   87 1    
   169   85  206 1    
   170   86  207 1    
   171   86  208 1    
   172   86  209 1    
   173   87   88 2    
   174   87   89 am   BACKBONE|DICT|INTERRES
   175   89   90 1    
   176   89  210 1    
   177   90   91 1    
   178   90   92 1    
   179   90  211 1    
   180   91  212 1    
   181   91  213 1    
   182   91  214 1    
   183   92   93 2    
   184   92   94 am   BACKBONE|DICT|INTERRES
   185   94   95 1    
   186   94  215 1    
   187   95   96 1    
   188   95   97 1    
   189   95  216 1    
   190   96  217 1    
   191   96  218 1    
   192   96  219 1    
   193   97   98 2    
   194   97   99 am   BACKBONE|DICT|INTERRES
   195   99  100 1    
   196   99  220 1    
   197  100  101 1    
   198  100  102 1    
   199  100  221 1    
   200  101  222 1    
   201  101  223 1    
   202  101  224 1    
   203  102  103 2    
   204  102  104 am   BACKBONE|DICT|INTERRES
   205  104  105 1    
   206  104  225 1    
   207  105  106 1    
   208  105  107 1    
   209  105  226 1    
   210  106  227 1    
   211  106  228 1    
   212  106  229 1    
   213  107  108 2    
   214  107  109 am   BACKBONE|DICT|INTERRES
   215  109  110 1    
   216  109  230 1    
   217  110  111 1    
   218  110  112 1    
   219  110  231 1    
   220  111  232 1    
   221  111  233 1    
   222  111  234 1    
   223  112  113 2    
   224  112  114 am   BACKBONE|DICT|INTERRES
   225  114  115 1    
   226  114  235 1    
   227  115  116 1    
   228  115  117 1    
   229  115  236 1    
   230  116  237 1    
   231  116  238 1    
   232  116  239 1    
   233  117  118 2    
   234  117  119 am   BACKBONE|DICT|INTERRES
   235  119  120 1    
   236  119  240 1    
   237  120  121 1    
   238  120  124 1    
   239  120  241 1    
   240  121  122 am   BACKBONE|DICT|INTERRES
   241  121  123 2    
   242  122  242 1    
   243  122  243 1    
   244  124  125 1    
   245  124  244 1    
   246  124  245 1    
   247  125  126 1    
   248  126  246 1    
   249  126  247 1    
@<TRIPOS>SUBSTRUCTURE
     1 UNK         1 GROUP             0       ****    0 ROOT    
