@<TRIPOS>MOLECULE
3R540
247   249    1
SMALL
USER_CHARGES


@<TRIPOS>ATOM
      1 CA          3.8026  -14.8699  -47.0586 C.3       0 UNK        -0.1800 
      2 C           2.9466  -15.5836  -48.1046 C.2       0 UNK         0.5000 
      3 O           3.4998  -16.2406  -48.9829 O.2       0 UNK        -0.5000 
      4 N           1.6097  -15.5101  -48.0430 N.am      1 UNK        -0.5000 
      5 CA          0.8135  -14.6557  -47.1574 C.3       1 UNK         0.1400 
      6 C6         -0.6804  -15.0589  -47.1397 C.3       23 UNK        -0.0398 
      7 S7         -0.9529  -16.7091  -46.4127 S.3       23 UNK        -0.2404 
      8 C8         -1.7824  -17.5881  -47.7763 C.3       23 UNK        -0.0205 
      9 C9         -0.8366  -18.0252  -48.8893 C.ar      23 UNK        -0.0193 
     10 C10        -1.2150  -17.8690  -50.2249 C.ar      23 UNK        -0.1150 
     11 C11        -0.3770  -18.2922  -51.2625 C.ar      23 UNK        -0.0193 
     12 C12         0.8566  -18.8691  -50.9490 C.ar      23 UNK        -0.1150 
     13 C13         1.2474  -19.0387  -49.6188 C.ar      23 UNK        -0.0193 
     14 C14         0.3930  -18.6222  -48.5969 C.ar      23 UNK        -0.1150 
     15 C15         2.5928  -19.6701  -49.2888 C.3       23 UNK        -0.0205 
     16 S16         2.4322  -21.2587  -48.4123 S.3       23 UNK        -0.2404 
     17 C17         1.5162  -22.2720  -49.6304 C.3       23 UNK        -0.0398 
     18 CA          0.4368  -23.1846  -49.0016 C.3       11 UNK         0.1400 
     19 N           1.0135  -24.1023  -48.0165 N.am      11 UNK        -0.5000 
     20 C           0.3865  -25.1628  -47.4939 C.2       10 UNK         0.5000 
     21 O          -0.7364  -25.5286  -47.8378 O.2       10 UNK        -0.5000 
     22 CA          1.1144  -25.9250  -46.3689 C.3       10 UNK         0.1400 
     23 CB          1.8629  -27.1348  -46.9466 C.3       10 UNK        -0.1800 
     24 N           2.0461  -25.1187  -45.5689 N.am      10 UNK        -0.5000 
     25 C           1.7448  -23.9918  -44.9090 C.2       9 UNK         0.5000 
     26 O           0.6381  -23.4471  -44.9582 O.2       9 UNK        -0.5000 
     27 CA          2.8736  -23.3578  -44.0828 C.3       9 UNK         0.1400 
     28 CB          4.0186  -22.8615  -44.9837 C.3       9 UNK        -0.1800 
     29 N           2.3401  -22.2230  -43.3384 N.am      9 UNK        -0.5000 
     30 C           2.6777  -21.8611  -42.0968 C.2       8 UNK         0.5000 
     31 O           3.4789  -22.4816  -41.3948 O.2       8 UNK        -0.5000 
     32 CA          2.0157  -20.5628  -41.5819 C.3       8 UNK         0.1400 
     33 CB          2.6069  -20.0651  -40.2464 C.3       8 UNK        -0.1800 
     34 N           2.0337  -19.4914  -42.5884 N.am      8 UNK        -0.5000 
     35 C           3.1160  -18.9639  -43.1860 C.2       7 UNK         0.5000 
     36 O           4.2777  -19.2768  -42.9236 O.2       7 UNK        -0.5000 
     37 CA          2.8553  -17.9176  -44.2858 C.3       7 UNK         0.1400 
     38 CB          2.7745  -18.6172  -45.6497 C.3       7 UNK        -0.1800 
     39 N           1.6388  -17.1261  -44.0773 N.am      7 UNK        -0.5000 
     40 C           1.4795  -16.2336  -43.0907 C.2       6 UNK         0.5000 
     41 O           2.3306  -16.0042  -42.2278 O.2       6 UNK        -0.5000 
     42 CA          0.1253  -15.4993  -43.0534 C.3       6 UNK         0.1400 
     43 CB         -0.9341  -16.3561  -42.3436 C.3       6 UNK        -0.1800 
     44 N           0.2074  -14.1987  -42.3925 N.am      6 UNK        -0.5000 
     45 C           0.8823  -13.1434  -42.8623 C.2       5 UNK         0.5000 
     46 O           1.4633  -13.1288  -43.9504 O.2       5 UNK        -0.5000 
     47 CA          0.8414  -11.8797  -41.9873 C.3       5 UNK         0.1400 
     48 CB          2.0901  -10.9992  -42.1564 C.3       5 UNK        -0.1800 
     49 N          -0.3498  -11.1024  -42.3181 N.am      5 UNK        -0.5000 
     50 C          -1.5664  -11.3287  -41.8020 C.2       4 UNK         0.5000 
     51 O          -1.7865  -12.1732  -40.9322 O.2       4 UNK        -0.5000 
     52 CA         -2.7391  -10.4828  -42.3379 C.3       4 UNK         0.1400 
     53 CB         -3.0243   -9.3035  -41.3953 C.3       4 UNK        -0.1800 
     54 N          -2.5262   -9.9669  -43.6909 N.am      4 UNK        -0.5000 
     55 C          -2.4904  -10.7138  -44.8022 C.2       3 UNK         0.5000 
     56 O          -2.6532  -11.9351  -44.8110 O.2       3 UNK        -0.5000 
     57 CA         -2.2030   -9.9889  -46.1336 C.3       3 UNK         0.1400 
     58 CB         -2.3283   -8.4494  -46.0642 C.3       3 UNK        -0.1800 
     59 N          -0.8973  -10.3814  -46.6697 N.am      3 UNK        -0.5000 
     60 C           0.2944  -10.2373  -46.0726 C.2       2 UNK         0.5000 
     61 O           0.4582   -9.6930  -44.9785 O.2       2 UNK        -0.5000 
     62 CA          1.4778  -10.8827  -46.8081 C.3       2 UNK         0.1400 
     63 CB          2.8474  -10.4263  -46.2760 C.3       2 UNK        -0.1800 
     64 N           1.3633  -12.3270  -46.6428 N.am      2 UNK        -0.5000 
     65 C           0.9561  -13.1822  -47.5840 C.2       1 UNK         0.5000 
     66 O           0.6823  -12.8529  -48.7397 O.2       1 UNK        -0.5000 
     67 C          -0.7667  -22.3857  -48.4423 C.2       11 UNK         0.5000 
     68 O          -1.7280  -22.1382  -49.1717 O.2       11 UNK        -0.5000 
     69 N          -0.7093  -22.0354  -47.1505 N.am      12 UNK        -0.5000 
     70 CA         -1.7728  -21.3391  -46.4329 C.3       12 UNK         0.1400 
     71 CB         -1.1485  -20.4213  -45.3683 C.3       12 UNK        -0.1800 
     72 C          -2.7494  -22.3243  -45.7750 C.2       12 UNK         0.5000 
     73 O          -3.9495  -22.0569  -45.7548 O.2       12 UNK        -0.5000 
     74 N          -2.2159  -23.4258  -45.2316 N.am      13 UNK        -0.5000 
     75 CA         -2.9613  -24.4495  -44.5074 C.3       13 UNK         0.1400 
     76 CB         -2.0160  -25.1500  -43.5130 C.3       13 UNK        -0.1800 
     77 C          -3.6602  -25.4295  -45.4678 C.2       13 UNK         0.5000 
     78 O          -4.8341  -25.2370  -45.7824 O.2       13 UNK        -0.5000 
     79 N          -2.9372  -26.4720  -45.8985 N.am      14 UNK        -0.5000 
     80 CA         -3.4419  -27.5963  -46.6918 C.3       14 UNK         0.1400 
     81 CB         -2.3278  -28.6440  -46.8430 C.3       14 UNK        -0.1800 
     82 C          -4.0038  -27.1997  -48.0693 C.2       14 UNK         0.5000 
     83 O          -5.0562  -27.7039  -48.4629 O.2       14 UNK        -0.5000 
     84 N          -3.3060  -26.2944  -48.7665 N.am      15 UNK        -0.5000 
     85 CA         -3.7206  -25.7521  -50.0634 C.3       15 UNK         0.1400 
     86 CB         -2.4769  -25.2629  -50.8160 C.3       15 UNK        -0.1800 
     87 C          -4.7643  -24.6233  -49.9394 C.2       15 UNK         0.5000 
     88 O          -5.3445  -24.2258  -50.9520 O.2       15 UNK        -0.5000 
     89 N          -4.9810  -24.1280  -48.7107 N.am      16 UNK        -0.5000 
     90 CA         -5.9893  -23.1432  -48.3078 C.3       16 UNK         0.1400 
     91 CB         -7.3948  -23.7746  -48.3939 C.3       16 UNK        -0.1800 
     92 C          -5.8998  -21.8017  -49.0658 C.2       16 UNK         0.5000 
     93 O          -6.9323  -21.1687  -49.2931 O.2       16 UNK        -0.5000 
     94 N          -4.6880  -21.4172  -49.5018 N.am      17 UNK        -0.5000 
     95 CA         -4.3435  -20.2847  -50.3765 C.3       17 UNK         0.1400 
     96 CB         -4.7805  -18.9430  -49.7578 C.3       17 UNK        -0.1800 
     97 C          -4.8569  -20.4234  -51.8276 C.2       17 UNK         0.5000 
     98 O          -4.1496  -20.0389  -52.7599 O.2       17 UNK        -0.5000 
     99 N          -6.0606  -20.9816  -52.0002 N.am      18 UNK        -0.5000 
    100 CA        -6.7528  -21.2016  -53.2661 C.3       18 UNK         0.1400 
    101 CB        -8.1544  -21.7637  -52.9838 C.3       18 UNK        -0.1800 
    102 C         -5.9791  -22.1139  -54.2306 C.2       18 UNK         0.5000 
    103 O         -5.7262  -21.7126  -55.3672 O.2       18 UNK        -0.5000 
    104 N         -5.5719  -23.3014  -53.7573 N.am      19 UNK        -0.5000 
    105 CA        -4.8093  -24.2702  -54.5540 C.3       19 UNK         0.1400 
    106 CB        -4.9670  -25.6781  -53.9605 C.3       19 UNK        -0.1800 
    107 C         -3.3256  -23.8807  -54.7099 C.2       19 UNK         0.5000 
    108 O         -2.6509  -24.4088  -55.5937 O.2       19 UNK        -0.5000 
    109 N         -2.8596  -22.9308  -53.8867 N.am      20 UNK        -0.5000 
    110 CA        -1.5663  -22.2583  -54.0205 C.3       20 UNK         0.1400 
    111 CB        -1.0837  -21.8217  -52.6272 C.3       20 UNK        -0.1800 
    112 C         -1.6101  -21.0782  -55.0210 C.2       20 UNK         0.5000 
    113 O         -0.5860  -20.4249  -55.2184 O.2       20 UNK        -0.5000 
    114 N         -2.7752  -20.8452  -55.6471 N.am      21 UNK        -0.5000 
    115 CA        -3.0610  -19.8752  -56.7085 C.3       21 UNK         0.1400 
    116 CB        -2.1216  -20.0572  -57.9205 C.3       21 UNK        -0.1800 
    117 C         -3.1663  -18.4130  -56.2303 C.2       21 UNK         0.5000 
    118 O         -2.9885  -17.4994  -57.0384 O.2       21 UNK        -0.5000 
    119 N         -3.5086  -18.2092  -54.9521 N.am      22 UNK        -0.5000 
    120 CA        -3.8592  -16.8963  -54.3772 C.3       22 UNK         0.1400 
    121 C         -5.3976  -16.6803  -54.2560 C.2       22 UNK         0.5000 
    122 N         -6.2424  -17.5950  -54.7179 N.am      22 UNK        -0.7600 
    123 O         -5.8394  -15.6509  -53.7530 O.2       22 UNK        -0.5000 
    124 C124       -3.1466  -16.6507  -53.0235 C.3       23 UNK        -0.0398 
    125 S125       -1.3356  -16.5085  -53.2035 S.3       23 UNK        -0.2404 
    126 C126       -0.8013  -18.1798  -52.7222 C.3       23 UNK        -0.0205 
    127 H127        3.8364  -13.7979  -47.2515 H         1 UNK         0.0600 
    128 H128        3.4286  -15.0375  -46.0488 H         1 UNK         0.0600 
    129 H129        4.8259  -15.2445  -47.0898 H         1 UNK         0.0600 
    130 H130        1.0752  -16.0179  -48.7335 H         1 UNK         0.3000 
    131 H131        1.1916  -14.7646  -46.1402 H         1 UNK         0.0600 
    132 H132       -1.0997  -15.0214  -48.1469 H         1 UNK         0.0800 
    133 H133       -1.2595  -14.3499  -46.5442 H         1 UNK         0.0800 
    134 H134       -2.5822  -16.9582  -48.1687 H         1 UNK         0.0800 
    135 H135       -2.2699  -18.4716  -47.3693 H         1 UNK         0.0800 
    136 H136       -2.1680  -17.4202  -50.4537 H         1 UNK         0.1150 
    137 H137        1.5104  -19.2010  -51.7432 H         1 UNK         0.1150 
    138 H138        0.6894  -18.7667  -47.5708 H         1 UNK         0.1150 
    139 H139        3.1831  -19.8229  -50.1934 H         1 UNK         0.0800 
    140 H140        3.1644  -18.9810  -48.6667 H         1 UNK         0.0800 
    141 H141        1.0642  -21.6379  -50.3929 H         1 UNK         0.0800 
    142 H142        2.2444  -22.8857  -50.1620 H         1 UNK         0.0800 
    143 H143        0.0531  -23.8042  -49.8123 H         1 UNK         0.0600 
    144 H144        1.9313  -23.8638  -47.6707 H         1 UNK         0.3000 
    145 H145        0.3475  -26.3004  -45.6906 H         1 UNK         0.0600 
    146 H146        2.2855  -27.7534  -46.1546 H         1 UNK         0.0600 
    147 H147        1.1928  -27.7695  -47.5283 H         1 UNK         0.0600 
    148 H148        2.6768  -26.8270  -47.6043 H         1 UNK         0.0600 
    149 H149        2.9826  -25.4873  -45.4845 H         1 UNK         0.3000 
    150 H150        3.2490  -24.1179  -43.3948 H         1 UNK         0.0600 
    151 H151        4.8125  -22.4059  -44.3914 H         1 UNK         0.0600 
    152 H152        3.6712  -22.1148  -45.6987 H         1 UNK         0.0600 
    153 H153        4.4678  -23.6781  -45.5495 H         1 UNK         0.0600 
    154 H154        1.6142  -21.7114  -43.8199 H         1 UNK         0.3000 
    155 H155        0.9667  -20.8051  -41.4058 H         1 UNK         0.0600 
    156 H156        2.1051  -19.1587  -39.9078 H         1 UNK         0.0600 
    157 H157        3.6719  -19.8466  -40.3297 H         1 UNK         0.0600 
    158 H158        2.4872  -20.8144  -39.4631 H         1 UNK         0.0600 
    159 H159        1.1301  -19.1508  -42.8819 H         1 UNK         0.3000 
    160 H160        3.7046  -17.2312  -44.3030 H         1 UNK         0.0600 
    161 H161        1.9731  -19.3558  -45.6777 H         1 UNK         0.0600 
    162 H162        3.7042  -19.1408  -45.8764 H         1 UNK         0.0600 
    163 H163        2.6036  -17.9019  -46.4514 H         1 UNK         0.0600 
    164 H164        0.8920  -17.2590  -44.7456 H         1 UNK         0.3000 
    165 H165       -0.2013  -15.3166  -44.0762 H         1 UNK         0.0600 
    166 H166       -1.9046  -15.8592  -42.3398 H         1 UNK         0.0600 
    167 H167       -1.0658  -17.3147  -42.8473 H         1 UNK         0.0600 
    168 H168       -0.6574  -16.5624  -41.3089 H         1 UNK         0.0600 
    169 H169       -0.2706  -14.1099  -41.5066 H         1 UNK         0.3000 
    170 H170        0.8047  -12.1890  -40.9404 H         1 UNK         0.0600 
    171 H171        3.0001  -11.5725  -41.9757 H         1 UNK         0.0600 
    172 H172        2.1591  -10.5787  -43.1576 H         1 UNK         0.0600 
    173 H173        2.0815  -10.1693  -41.4499 H         1 UNK         0.0600 
    174 H174       -0.2527  -10.4375  -43.0776 H         1 UNK         0.3000 
    175 H175       -3.6221  -11.1251  -42.3565 H         1 UNK         0.0600 
    176 H176       -2.1816   -8.6124  -41.3495 H         1 UNK         0.0600 
    177 H177       -3.9022   -8.7433  -41.7178 H         1 UNK         0.0600 
    178 H178       -3.2182   -9.6523  -40.3801 H         1 UNK         0.0600 
    179 H179       -2.3533   -8.9756  -43.7749 H         1 UNK         0.3000 
    180 H180       -2.9514  -10.3466  -46.8422 H         1 UNK         0.0600 
    181 H181       -3.3173   -8.1516  -45.7134 H         1 UNK         0.0600 
    182 H182       -1.5896   -7.9978  -45.4014 H         1 UNK         0.0600 
    183 H183       -2.1942   -8.0066  -47.0512 H         1 UNK         0.0600 
    184 H184       -0.9248  -10.8895  -47.5431 H         1 UNK         0.3000 
    185 H185        1.4162  -10.5955  -47.8599 H         1 UNK         0.0600 
    186 H186        3.6547  -10.8255  -46.8900 H         1 UNK         0.0600 
    187 H187        2.9330   -9.3392  -46.2916 H         1 UNK         0.0600 
    188 H188        3.0183  -10.7594  -45.2531 H         1 UNK         0.0600 
    189 H189        1.4991  -12.6629  -45.6888 H         1 UNK         0.3000 
    190 H190        0.0819  -22.3416  -46.5979 H         1 UNK         0.3000 
    191 H191       -2.3412  -20.7237  -47.1320 H         1 UNK         0.0600 
    192 H192       -1.9170  -19.8431  -44.8539 H         1 UNK         0.0600 
    193 H193       -0.4563  -19.7114  -45.8159 H         1 UNK         0.0600 
    194 H194       -0.6025  -20.9873  -44.6131 H         1 UNK         0.0600 
    195 H195       -1.2056  -23.5311  -45.2556 H         1 UNK         0.3000 
    196 H196       -3.7442  -23.9642  -43.9204 H         1 UNK         0.0600 
    197 H197       -2.5260  -25.9597  -42.9893 H         1 UNK         0.0600 
    198 H198       -1.6631  -24.4488  -42.7564 H         1 UNK         0.0600 
    199 H199       -1.1370  -25.5699  -44.0003 H         1 UNK         0.0600 
    200 H200       -1.9698  -26.5267  -45.6220 H         1 UNK         0.3000 
    201 H201       -4.2582  -28.0511  -46.1267 H         1 UNK         0.0600 
    202 H202       -1.9917  -29.0071  -45.8717 H         1 UNK         0.0600 
    203 H203       -1.4622  -28.2388  -47.3684 H         1 UNK         0.0600 
    204 H204       -2.6788  -29.5086  -47.4080 H         1 UNK         0.0600 
    205 H205       -2.4244  -25.9549  -48.3837 H         1 UNK         0.3000 
    206 H206       -4.1751  -26.5528  -50.6501 H         1 UNK         0.0600 
    207 H207       -1.7334  -26.0538  -50.9159 H         1 UNK         0.0600 
    208 H208       -2.7239  -24.9170  -51.8183 H         1 UNK         0.0600 
    209 H209       -2.0153  -24.4300  -50.2956 H         1 UNK         0.0600 
    210 H210       -4.4656  -24.5429  -47.9457 H         1 UNK         0.3000 
    211 H211       -5.8036  -22.9176  -47.2591 H         1 UNK         0.0600 
    212 H212       -7.6839  -23.9774  -49.4257 H         1 UNK         0.0600 
    213 H213       -8.1500  -23.1156  -47.9642 H         1 UNK         0.0600 
    214 H214       -7.4369  -24.7142  -47.8426 H         1 UNK         0.0600 
    215 H215       -3.9000  -22.0160  -49.2812 H         1 UNK         0.3000 
    216 H216       -3.2543  -20.2752  -50.4315 H         1 UNK         0.0600 
    217 H217       -5.8650  -18.8442  -49.7125 H         1 UNK         0.0600 
    218 H218       -4.4123  -18.1018  -50.3426 H         1 UNK         0.0600 
    219 H219       -4.3923  -18.8323  -48.7459 H         1 UNK         0.0600 
    220 H220       -6.5679  -21.2310  -51.1568 H         1 UNK         0.3000 
    221 H221       -6.8689  -20.2303  -53.7493 H         1 UNK         0.0600 
    222 H222       -8.1085  -22.7093  -52.4416 H         1 UNK         0.0600 
    223 H223       -8.7441  -21.0668  -52.3880 H         1 UNK         0.0600 
    224 H224       -8.7002  -21.9408  -53.9114 H         1 UNK         0.0600 
    225 H225       -5.7509  -23.5481  -52.7872 H         1 UNK         0.3000 
    226 H226       -5.2358  -24.2948  -55.5592 H         1 UNK         0.0600 
    227 H227       -6.0172  -25.9635  -53.8988 H         1 UNK         0.0600 
    228 H228       -4.4648  -26.4208  -54.5815 H         1 UNK         0.0600 
    229 H229       -4.5433  -25.7508  -52.9620 H         1 UNK         0.0600 
    230 H230       -3.4962  -22.5421  -53.2060 H         1 UNK         0.3000 
    231 H231       -0.8359  -22.9698  -54.4106 H         1 UNK         0.0600 
    232 H232       -1.7803  -21.1353  -52.1496 H         1 UNK         0.0600 
    233 H233       -0.9645  -22.6812  -51.9681 H         1 UNK         0.0600 
    234 H234       -0.1163  -21.3218  -52.6835 H         1 UNK         0.0600 
    235 H235       -3.5704  -21.4121  -55.3803 H         1 UNK         0.3000 
    236 H236       -4.0639  -20.1290  -57.0543 H         1 UNK         0.0600 
    237 H237       -2.0759  -21.1007  -58.2324 H         1 UNK         0.0600 
    238 H238       -2.4728  -19.4804  -58.7768 H         1 UNK         0.0600 
    239 H239       -1.1064  -19.7252  -57.7023 H         1 UNK         0.0600 
    240 H240       -3.6463  -19.0063  -54.3368 H         1 UNK         0.3000 
    241 H241       -3.5276  -16.1062  -55.0529 H         1 UNK         0.0600 
    242 H242       -7.2342  -17.4312  -54.6466 H         1 UNK         0.3800 
    243 H243       -5.8992  -18.4326  -55.1580 H         1 UNK         0.3800 
    244 H244       -3.3989  -17.4446  -52.3231 H         1 UNK         0.0800 
    245 H245       -3.4889  -15.7213  -52.5654 H         1 UNK         0.0800 
    246 H246        0.0233  -18.4626  -53.3779 H         1 UNK         0.0800 
    247 H247       -1.5987  -18.8949  -52.9184 H         1 UNK         0.0800 
@<TRIPOS>BOND
     1    1    2 1    
     2    1  127 1    
     3    1  128 1    
     4    1  129 1    
     5    2    3 2    
     6    2    4 am   BACKBONE|DICT|INTERRES
     7    4    5 1    
     8    4  130 1    
     9    5    6 1    
    10    5   65 1    
    11    5  131 1    
    12    6    7 1    
    13    6  132 1    
    14    6  133 1    
    15    7    8 1    
    16    8    9 1    
    17    8  134 1    
    18    8  135 1    
    19    9   10 ar   
    20    9   14 ar   
    21   10   11 ar   
    22   10  136 1    
    23   11   12 ar   
    24   11  126 1    
    25   12   13 ar   
    26   12  137 1    
    27   13   14 ar   
    28   13   15 1    
    29   14  138 1    
    30   15   16 1    
    31   15  139 1    
    32   15  140 1    
    33   16   17 1    
    34   17   18 1    
    35   17  141 1    
    36   17  142 1    
    37   18   19 1    
    38   18   67 1    
    39   18  143 1    
    40   19   20 am   BACKBONE|DICT|INTERRES
    41   19  144 1    
    42   20   21 2    
    43   20   22 1    
    44   22   23 1    
    45   22   24 1    
    46   22  145 1    
    47   23  146 1    
    48   23  147 1    
    49   23  148 1    
    50   24   25 am   BACKBONE|DICT|INTERRES
    51   24  149 1    
    52   25   26 2    
    53   25   27 1    
    54   27   28 1    
    55   27   29 1    
    56   27  150 1    
    57   28  151 1    
    58   28  152 1    
    59   28  153 1    
    60   29   30 am   BACKBONE|DICT|INTERRES
    61   29  154 1    
    62   30   31 2    
    63   30   32 1    
    64   32   33 1    
    65   32   34 1    
    66   32  155 1    
    67   33  156 1    
    68   33  157 1    
    69   33  158 1    
    70   34   35 am   BACKBONE|DICT|INTERRES
    71   34  159 1    
    72   35   36 2    
    73   35   37 1    
    74   37   38 1    
    75   37   39 1    
    76   37  160 1    
    77   38  161 1    
    78   38  162 1    
    79   38  163 1    
    80   39   40 am   BACKBONE|DICT|INTERRES
    81   39  164 1    
    82   40   41 2    
    83   40   42 1    
    84   42   43 1    
    85   42   44 1    
    86   42  165 1    
    87   43  166 1    
    88   43  167 1    
    89   43  168 1    
    90   44   45 am   BACKBONE|DICT|INTERRES
    91   44  169 1    
    92   45   46 2    
    93   45   47 1    
    94   47   48 1    
    95   47   49 1    
    96   47  170 1    
    97   48  171 1    
    98   48  172 1    
    99   48  173 1    
   100   49   50 am   BACKBONE|DICT|INTERRES
   101   49  174 1    
   102   50   51 2    
   103   50   52 1    
   104   52   53 1    
   105   52   54 1    
   106   52  175 1    
   107   53  176 1    
   108   53  177 1    
   109   53  178 1    
   110   54   55 am   BACKBONE|DICT|INTERRES
   111   54  179 1    
   112   55   56 2    
   113   55   57 1    
   114   57   58 1    
   115   57   59 1    
   116   57  180 1    
   117   58  181 1    
   118   58  182 1    
   119   58  183 1    
   120   59   60 am   BACKBONE|DICT|INTERRES
   121   59  184 1    
   122   60   61 2    
   123   60   62 1    
   124   62   63 1    
   125   62   64 1    
   126   62  185 1    
   127   63  186 1    
   128   63  187 1    
   129   63  188 1    
   130   64   65 am   BACKBONE|DICT|INTERRES
   131   64  189 1    
   132   65   66 2    
   133   67   68 2    
   134   67   69 am   BACKBONE|DICT|INTERRES
   135   69   70 1    
   136   69  190 1    
   137   70   71 1    
   138   70   72 1    
   139   70  191 1    
   140   71  192 1    
   141   71  193 1    
   142   71  194 1    
   143   72   73 2    
   144   72   74 am   BACKBONE|DICT|INTERRES
   145   74   75 1    
   146   74  195 1    
   147   75   76 1    
   148   75   77 1    
   149   75  196 1    
   150   76  197 1    
   151   76  198 1    
   152   76  199 1    
   153   77   78 2    
   154   77   79 am   BACKBONE|DICT|INTERRES
   155   79   80 1    
   156   79  200 1    
   157   80   81 1    
   158   80   82 1    
   159   80  201 1    
   160   81  202 1    
   161   81  203 1    
   162   81  204 1    
   163   82   83 2    
   164   82   84 am   BACKBONE|DICT|INTERRES
   165   84   85 1    
   166   84  205 1    
   167   85   86 1    
   168   85   87 1    
   169   85  206 1    
   170   86  207 1    
   171   86  208 1    
   172   86  209 1    
   173   87   88 2    
   174   87   89 am   BACKBONE|DICT|INTERRES
   175   89   90 1    
   176   89  210 1    
   177   90   91 1    
   178   90   92 1    
   179   90  211 1    
   180   91  212 1    
   181   91  213 1    
   182   91  214 1    
   183   92   93 2    
   184   92   94 am   BACKBONE|DICT|INTERRES
   185   94   95 1    
   186   94  215 1    
   187   95   96 1    
   188   95   97 1    
   189   95  216 1    
   190   96  217 1    
   191   96  218 1    
   192   96  219 1    
   193   97   98 2    
   194   97   99 am   BACKBONE|DICT|INTERRES
   195   99  100 1    
   196   99  220 1    
   197  100  101 1    
   198  100  102 1    
   199  100  221 1    
   200  101  222 1    
   201  101  223 1    
   202  101  224 1    
   203  102  103 2    
   204  102  104 am   BACKBONE|DICT|INTERRES
   205  104  105 1    
   206  104  225 1    
   207  105  106 1    
   208  105  107 1    
   209  105  226 1    
   210  106  227 1    
   211  106  228 1    
   212  106  229 1    
   213  107  108 2    
   214  107  109 am   BACKBONE|DICT|INTERRES
   215  109  110 1    
   216  109  230 1    
   217  110  111 1    
   218  110  112 1    
   219  110  231 1    
   220  111  232 1    
   221  111  233 1    
   222  111  234 1    
   223  112  113 2    
   224  112  114 am   BACKBONE|DICT|INTERRES
   225  114  115 1    
   226  114  235 1    
   227  115  116 1    
   228  115  117 1    
   229  115  236 1    
   230  116  237 1    
   231  116  238 1    
   232  116  239 1    
   233  117  118 2    
   234  117  119 am   BACKBONE|DICT|INTERRES
   235  119  120 1    
   236  119  240 1    
   237  120  121 1    
   238  120  124 1    
   239  120  241 1    
   240  121  122 am   BACKBONE|DICT|INTERRES
   241  121  123 2    
   242  122  242 1    
   243  122  243 1    
   244  124  125 1    
   245  124  244 1    
   246  124  245 1    
   247  125  126 1    
   248  126  246 1    
   249  126  247 1    
@<TRIPOS>SUBSTRUCTURE
     1 UNK         1 GROUP             0       ****    0 ROOT    
