@<TRIPOS>MOLECULE
3R540
247   249    1
SMALL
USER_CHARGES


@<TRIPOS>ATOM
      1 CA         -0.6971   -9.7693  -47.7100 C.3       0 UNK        -0.1800 
      2 C          -0.6502  -11.2896  -47.7488 C.2       0 UNK         0.5000 
      3 O          -1.6990  -11.9342  -47.7754 O.2       0 UNK        -0.5000 
      4 N           0.5611  -11.8633  -47.7360 N.am      1 UNK        -0.5000 
      5 CA          0.8487  -13.3024  -47.7440 C.3       1 UNK         0.1400 
      6 C6          0.5226  -13.9691  -49.1116 C.3       23 UNK        -0.0398 
      7 S7          1.6407  -15.3584  -49.4937 S.3       23 UNK        -0.2404 
      8 C8          0.6021  -16.8211  -49.1861 C.3       23 UNK        -0.0205 
      9 C9          1.2083  -18.0460  -49.8534 C.ar      23 UNK        -0.0193 
     10 C10         0.7141  -18.4842  -51.0839 C.ar      23 UNK        -0.1150 
     11 C11         1.2930  -19.5753  -51.7346 C.ar      23 UNK        -0.0193 
     12 C12         2.3726  -20.2374  -51.1443 C.ar      23 UNK        -0.1150 
     13 C13         2.8809  -19.8084  -49.9146 C.ar      23 UNK        -0.0193 
     14 C14         2.2883  -18.7165  -49.2696 C.ar      23 UNK        -0.1150 
     15 C15         4.1092  -20.4875  -49.3223 C.3       23 UNK        -0.0205 
     16 S16         3.7398  -22.1197  -48.6043 S.3       23 UNK        -0.2404 
     17 C17         2.8717  -21.6396  -47.0755 C.3       23 UNK        -0.0398 
     18 CA          1.7236  -22.5946  -46.6750 C.3       11 UNK         0.1400 
     19 N           1.2419  -22.2949  -45.3242 N.am      11 UNK        -0.5000 
     20 C           0.3601  -23.0298  -44.6332 C.2       10 UNK         0.5000 
     21 O          -0.1063  -24.0943  -45.0343 O.2       10 UNK        -0.5000 
     22 CA         -0.1239  -22.4502  -43.2909 C.3       10 UNK         0.1400 
     23 CB          0.8691  -22.7676  -42.1633 C.3       10 UNK        -0.1800 
     24 N          -0.3545  -21.0064  -43.3546 N.am      10 UNK        -0.5000 
     25 C          -1.2622  -20.4159  -44.1449 C.2       9 UNK         0.5000 
     26 O          -2.0476  -21.0311  -44.8633 O.2       9 UNK        -0.5000 
     27 CA         -1.2504  -18.8799  -44.1898 C.3       9 UNK         0.1400 
     28 CB         -1.9788  -18.2875  -42.9751 C.3       9 UNK        -0.1800 
     29 N           0.1076  -18.3405  -44.2833 N.am      9 UNK        -0.5000 
     30 C           0.9212  -18.5363  -45.3314 C.2       8 UNK         0.5000 
     31 O           0.5762  -19.1239  -46.3553 O.2       8 UNK        -0.5000 
     32 CA          2.3777  -18.0559  -45.1930 C.3       8 UNK         0.1400 
     33 CB          2.5375  -16.5945  -45.6238 C.3       8 UNK        -0.1800 
     34 N           2.8747  -18.2100  -43.8291 N.am      8 UNK        -0.5000 
     35 C           3.1631  -19.3883  -43.2617 C.2       7 UNK         0.5000 
     36 O           3.0927  -20.4657  -43.8526 O.2       7 UNK        -0.5000 
     37 CA          3.5396  -19.3508  -41.7694 C.3       7 UNK         0.1400 
     38 CB          5.0298  -19.0238  -41.5934 C.3       7 UNK        -0.1800 
     39 N           2.7355  -18.3795  -41.0230 N.am      7 UNK        -0.5000 
     40 C           1.4157  -18.4968  -40.8174 C.2       6 UNK         0.5000 
     41 O           0.7574  -19.4683  -41.1857 O.2       6 UNK        -0.5000 
     42 CA          0.7049  -17.3189  -40.1258 C.3       6 UNK         0.1400 
     43 CB          0.6784  -17.5260  -38.6044 C.3       6 UNK        -0.1800 
     44 N           1.3144  -16.0215  -40.4283 N.am      6 UNK        -0.5000 
     45 C           1.2895  -15.4250  -41.6276 C.2       5 UNK         0.5000 
     46 O           0.7571  -15.9123  -42.6268 O.2       5 UNK        -0.5000 
     47 CA          2.0523  -14.0991  -41.7317 C.3       5 UNK         0.1400 
     48 CB          3.4570  -14.3307  -42.3141 C.3       5 UNK        -0.1800 
     49 N           1.3326  -13.1413  -42.5693 N.am      5 UNK        -0.5000 
     50 C           1.2962  -11.8221  -42.3332 C.2       4 UNK         0.5000 
     51 O           1.8208  -11.2930  -41.3518 O.2       4 UNK        -0.5000 
     52 CA          0.5710  -10.9259  -43.3507 C.3       4 UNK         0.1400 
     53 CB          1.5255  -10.5267  -44.4876 C.3       4 UNK        -0.1800 
     54 N          -0.6154  -11.5655  -43.9172 N.am      4 UNK        -0.5000 
     55 C          -1.8716  -11.3375  -43.5065 C.2       3 UNK         0.5000 
     56 O          -2.1538  -10.5883  -42.5704 O.2       3 UNK        -0.5000 
     57 CA         -3.0170  -12.0341  -44.2704 C.3       3 UNK         0.1400 
     58 CB         -3.7826  -11.0233  -45.1388 C.3       3 UNK        -0.1800 
     59 N          -2.5485  -13.1306  -45.1181 N.am      3 UNK        -0.5000 
     60 C          -2.3122  -14.3705  -44.6678 C.2       2 UNK         0.5000 
     61 O          -2.5614  -14.7300  -43.5180 O.2       2 UNK        -0.5000 
     62 CA         -1.6692  -15.3703  -45.6512 C.3       2 UNK         0.1400 
     63 CB         -2.7426  -16.2535  -46.3055 C.3       2 UNK        -0.1800 
     64 N          -0.8752  -14.7430  -46.7084 N.am      2 UNK        -0.5000 
     65 C           0.2087  -13.9807  -46.5128 C.2       1 UNK         0.5000 
     66 O           0.6682  -13.7396  -45.3961 O.2       1 UNK        -0.5000 
     67 C           0.5718  -22.6087  -47.7060 C.2       11 UNK         0.5000 
     68 O           0.4470  -23.5749  -48.4594 O.2       11 UNK        -0.5000 
     69 N          -0.2810  -21.5736  -47.6831 N.am      12 UNK        -0.5000 
     70 CA         -1.4722  -21.4746  -48.5277 C.3       12 UNK         0.1400 
     71 CB         -2.0868  -20.0730  -48.3956 C.3       12 UNK        -0.1800 
     72 C          -2.5141  -22.5690  -48.2213 C.2       12 UNK         0.5000 
     73 O          -3.0798  -23.1396  -49.1544 O.2       12 UNK        -0.5000 
     74 N          -2.7264  -22.8665  -46.9305 N.am      13 UNK        -0.5000 
     75 CA         -3.6123  -23.9256  -46.4375 C.3       13 UNK         0.1400 
     76 CB         -3.7564  -23.8166  -44.9128 C.3       13 UNK        -0.1800 
     77 C          -3.1582  -25.3392  -46.8404 C.2       13 UNK         0.5000 
     78 O          -4.0014  -26.1720  -47.1730 O.2       13 UNK        -0.5000 
     79 N          -1.8396  -25.5780  -46.8268 N.am      14 UNK        -0.5000 
     80 CA         -1.2117  -26.8189  -47.2865 C.3       14 UNK         0.1400 
     81 CB          0.2525  -26.8482  -46.8214 C.3       14 UNK        -0.1800 
     82 C          -1.3010  -27.0144  -48.8133 C.2       14 UNK         0.5000 
     83 O          -1.2232  -28.1522  -49.2794 O.2       14 UNK        -0.5000 
     84 N          -1.4646  -25.9116  -49.5551 N.am      15 UNK        -0.5000 
     85 CA         -1.7267  -25.8824  -50.9881 C.3       15 UNK         0.1400 
     86 CB         -1.0771  -24.6179  -51.5852 C.3       15 UNK        -0.1800 
     87 C          -3.2449  -26.0041  -51.2453 C.2       15 UNK         0.5000 
     88 O          -3.8390  -27.0267  -50.8995 O.2       15 UNK        -0.5000 
     89 N          -3.8490  -24.9854  -51.8691 N.am      16 UNK        -0.5000 
     90 CA         -5.2559  -24.9800  -52.2793 C.3       16 UNK         0.1400 
     91 CB         -5.3879  -24.1238  -53.5499 C.3       16 UNK        -0.1800 
     92 C          -6.2216  -24.4558  -51.2002 C.2       16 UNK         0.5000 
     93 O          -7.4329  -24.5738  -51.3880 O.2       16 UNK        -0.5000 
     94 N          -5.6900  -23.8353  -50.1344 N.am      17 UNK        -0.5000 
     95 CA         -6.4139  -23.0252  -49.1428 C.3       17 UNK         0.1400 
     96 CB         -7.4057  -23.8731  -48.3202 C.3       17 UNK        -0.1800 
     97 C          -7.0406  -21.7574  -49.7621 C.2       17 UNK         0.5000 
     98 O          -8.0624  -21.2612  -49.2852 O.2       17 UNK        -0.5000 
     99 N          -6.3861  -21.2531  -50.8125 N.am      18 UNK        -0.5000 
    100 CA        -6.7288  -20.0669  -51.5758 C.3       18 UNK         0.1400 
    101 CB        -7.8340  -20.3904  -52.5985 C.3       18 UNK        -0.1800 
    102 C         -5.4274  -19.6271  -52.2495 C.2       18 UNK         0.5000 
    103 O         -5.0472  -20.2073  -53.2683 O.2       18 UNK        -0.5000 
    104 N         -4.7389  -18.6543  -51.6391 N.am      19 UNK        -0.5000 
    105 CA        -3.4144  -18.1616  -52.0384 C.3       19 UNK         0.1400 
    106 CB        -2.9637  -17.0932  -51.0293 C.3       19 UNK        -0.1800 
    107 C         -3.3392  -17.6015  -53.4729 C.2       19 UNK         0.5000 
    108 O         -2.2735  -17.6472  -54.0869 O.2       19 UNK        -0.5000 
    109 N         -4.4706  -17.0938  -53.9805 N.am      20 UNK        -0.5000 
    110 CA        -4.6222  -16.5931  -55.3469 C.3       20 UNK         0.1400 
    111 CB        -5.9171  -15.7704  -55.4322 C.3       20 UNK        -0.1800 
    112 C         -4.6247  -17.7102  -56.4100 C.2       20 UNK         0.5000 
    113 O         -4.2824  -17.4401  -57.5620 O.2       20 UNK        -0.5000 
    114 N         -5.0132  -18.9301  -56.0147 N.am      21 UNK        -0.5000 
    115 CA        -5.0154  -20.1175  -56.8645 C.3       21 UNK         0.1400 
    116 CB        -6.2750  -20.9537  -56.5742 C.3       21 UNK        -0.1800 
    117 C         -3.7312  -20.9220  -56.6202 C.2       21 UNK         0.5000 
    118 O         -2.9159  -21.0658  -57.5312 O.2       21 UNK        -0.5000 
    119 N         -3.5732  -21.4034  -55.3805 N.am      22 UNK        -0.5000 
    120 CA        -2.4099  -22.1335  -54.8518 C.3       22 UNK         0.1400 
    121 C         -2.0585  -23.4857  -55.5508 C.2       22 UNK         0.5000 
    122 N         -2.9348  -24.0603  -56.3650 N.am      22 UNK        -0.7600 
    123 O         -0.9885  -24.0448  -55.3296 O.2       22 UNK        -0.5000 
    124 C124       -1.1806  -21.1984  -54.6592 C.3       23 UNK        -0.0398 
    125 S125       -0.6057  -21.1750  -52.9307 S.3       23 UNK        -0.2404 
    126 C126        0.7711  -20.0055  -53.0935 C.3       23 UNK        -0.0205 
    127 H127       -1.3319   -9.3925  -48.5118 H         1 UNK         0.0600 
    128 H128        0.2941   -9.3307  -47.8273 H         1 UNK         0.0600 
    129 H129       -1.1084   -9.4310  -46.7592 H         1 UNK         0.0600 
    130 H130        1.3769  -11.2689  -47.6910 H         1 UNK         0.3000 
    131 H131        1.9270  -13.3671  -47.5884 H         1 UNK         0.0600 
    132 H132        0.6888  -13.2416  -49.9075 H         1 UNK         0.0800 
    133 H133       -0.5240  -14.2543  -49.2202 H         1 UNK         0.0800 
    134 H134       -0.4029  -16.6459  -49.5684 H         1 UNK         0.0800 
    135 H135        0.4951  -16.9924  -48.1152 H         1 UNK         0.0800 
    136 H136       -0.1091  -17.9646  -51.5518 H         1 UNK         0.1150 
    137 H137        2.8308  -21.0758  -51.6501 H         1 UNK         0.1150 
    138 H138        2.6838  -18.3661  -48.3277 H         1 UNK         0.1150 
    139 H139        4.8559  -20.6146  -50.1075 H         1 UNK         0.0800 
    140 H140        4.5749  -19.8546  -48.5651 H         1 UNK         0.0800 
    141 H141        2.4969  -20.6232  -47.1742 H         1 UNK         0.0800 
    142 H142        3.6187  -21.6074  -46.2813 H         1 UNK         0.0800 
    143 H143        2.1335  -23.6063  -46.6393 H         1 UNK         0.0600 
    144 H144        1.6172  -21.4613  -44.8857 H         1 UNK         0.3000 
    145 H145       -1.0749  -22.9264  -43.0458 H         1 UNK         0.0600 
    146 H146        0.4989  -22.4123  -41.2015 H         1 UNK         0.0600 
    147 H147        1.8410  -22.3061  -42.3373 H         1 UNK         0.0600 
    148 H148        1.0273  -23.8431  -42.0748 H         1 UNK         0.0600 
    149 H149        0.2098  -20.4253  -42.7406 H         1 UNK         0.3000 
    150 H150       -1.7869  -18.5777  -45.0893 H         1 UNK         0.0600 
    151 H151       -3.0424  -18.5251  -43.0112 H         1 UNK         0.0600 
    152 H152       -1.8871  -17.2031  -42.9444 H         1 UNK         0.0600 
    153 H153       -1.5927  -18.6797  -42.0355 H         1 UNK         0.0600 
    154 H154        0.4400  -17.7864  -43.5026 H         1 UNK         0.3000 
    155 H155        2.9953  -18.6678  -45.8529 H         1 UNK         0.0600 
    156 H156        2.1998  -16.4442  -46.6475 H         1 UNK         0.0600 
    157 H157        3.5807  -16.2816  -45.5798 H         1 UNK         0.0600 
    158 H158        1.9629  -15.9292  -44.9825 H         1 UNK         0.0600 
    159 H159        2.9193  -17.3752  -43.2648 H         1 UNK         0.3000 
    160 H160        3.3539  -20.3431  -41.3526 H         1 UNK         0.0600 
    161 H161        5.2740  -18.0304  -41.9719 H         1 UNK         0.0600 
    162 H162        5.6521  -19.7417  -42.1293 H         1 UNK         0.0600 
    163 H163        5.3203  -19.0639  -40.5434 H         1 UNK         0.0600 
    164 H164        3.2091  -17.5588  -40.6760 H         1 UNK         0.3000 
    165 H165       -0.3262  -17.2975  -40.4837 H         1 UNK         0.0600 
    166 H166        0.1094  -16.7390  -38.1091 H         1 UNK         0.0600 
    167 H167        0.2068  -18.4759  -38.3484 H         1 UNK         0.0600 
    168 H168        1.6831  -17.5334  -38.1800 H         1 UNK         0.0600 
    169 H169        1.7827  -15.5597  -39.6617 H         1 UNK         0.3000 
    170 H170        2.1576  -13.7002  -40.7205 H         1 UNK         0.0600 
    171 H171        3.4106  -14.6948  -43.3409 H         1 UNK         0.0600 
    172 H172        4.0380  -13.4083  -42.3154 H         1 UNK         0.0600 
    173 H173        4.0132  -15.0629  -41.7275 H         1 UNK         0.0600 
    174 H174        0.8969  -13.5223  -43.4044 H         1 UNK         0.3000 
    175 H175        0.2846  -10.0082  -42.8325 H         1 UNK         0.0600 
    176 H176        1.8812  -11.3936  -45.0445 H         1 UNK         0.0600 
    177 H177        1.0398   -9.8499  -45.1900 H         1 UNK         0.0600 
    178 H178        2.4024  -10.0104  -44.0951 H         1 UNK         0.0600 
    179 H179       -0.4468  -12.2571  -44.6382 H         1 UNK         0.3000 
    180 H180       -3.7141  -12.4266  -43.5269 H         1 UNK         0.0600 
    181 H181       -4.6125  -11.5002  -45.6603 H         1 UNK         0.0600 
    182 H182       -3.1385  -10.5614  -45.8865 H         1 UNK         0.0600 
    183 H183       -4.2009  -10.2219  -44.5285 H         1 UNK         0.0600 
    184 H184       -2.3213  -12.8977  -46.0799 H         1 UNK         0.3000 
    185 H185       -0.9981  -16.0017  -45.0690 H         1 UNK         0.0600 
    186 H186       -3.4156  -15.6682  -46.9333 H         1 UNK         0.0600 
    187 H187       -2.2923  -17.0278  -46.9275 H         1 UNK         0.0600 
    188 H188       -3.3525  -16.7530  -45.5515 H         1 UNK         0.0600 
    189 H189       -1.2393  -14.8317  -47.6445 H         1 UNK         0.3000 
    190 H190       -0.0930  -20.7903  -47.0633 H         1 UNK         0.3000 
    191 H191       -1.1530  -21.6034  -49.5644 H         1 UNK         0.0600 
    192 H192       -2.4041  -19.8654  -47.3733 H         1 UNK         0.0600 
    193 H193       -2.9591  -19.9668  -49.0417 H         1 UNK         0.0600 
    194 H194       -1.3710  -19.3032  -48.6848 H         1 UNK         0.0600 
    195 H195       -2.2668  -22.3001  -46.2211 H         1 UNK         0.3000 
    196 H196       -4.5992  -23.7688  -46.8700 H         1 UNK         0.0600 
    197 H197       -4.1567  -22.8452  -44.6225 H         1 UNK         0.0600 
    198 H198       -2.8000  -23.9503  -44.4083 H         1 UNK         0.0600 
    199 H199       -4.4384  -24.5766  -44.5295 H         1 UNK         0.0600 
    200 H200       -1.2157  -24.8634  -46.4630 H         1 UNK         0.3000 
    201 H201       -1.7335  -27.6560  -46.8184 H         1 UNK         0.0600 
    202 H202        0.3218  -26.7960  -45.7348 H         1 UNK         0.0600 
    203 H203        0.8216  -26.0144  -47.2335 H         1 UNK         0.0600 
    204 H204        0.7450  -27.7696  -47.1344 H         1 UNK         0.0600 
    205 H205       -1.5100  -25.0215  -49.0768 H         1 UNK         0.3000 
    206 H206       -1.2543  -26.7458  -51.4607 H         1 UNK         0.0600 
    207 H207       -1.2062  -24.5810  -52.6667 H         1 UNK         0.0600 
    208 H208       -1.4874  -23.7001  -51.1653 H         1 UNK         0.0600 
    209 H209       -0.0037  -24.6066  -51.3944 H         1 UNK         0.0600 
    210 H210       -3.3018  -24.1686  -52.0947 H         1 UNK         0.3000 
    211 H211       -5.5664  -25.9973  -52.5271 H         1 UNK         0.0600 
    212 H212       -5.0974  -23.0881  -53.3725 H         1 UNK         0.0600 
    213 H213       -6.4159  -24.1143  -53.9145 H         1 UNK         0.0600 
    214 H214       -4.7691  -24.5207  -54.3529 H         1 UNK         0.0600 
    215 H215       -4.6778  -23.8073  -50.0431 H         1 UNK         0.3000 
    216 H216       -5.6610  -22.6466  -48.4543 H         1 UNK         0.0600 
    217 H217       -7.8049  -23.3006  -47.4824 H         1 UNK         0.0600 
    218 H218       -6.9182  -24.7560  -47.9063 H         1 UNK         0.0600 
    219 H219       -8.2538  -24.2057  -48.9186 H         1 UNK         0.0600 
    220 H220       -5.5442  -21.7216  -51.1168 H         1 UNK         0.3000 
    221 H221       -7.0763  -19.2781  -50.9054 H         1 UNK         0.0600 
    222 H222       -7.5558  -21.2238  -53.2450 H         1 UNK         0.0600 
    223 H223       -8.7659  -20.6563  -52.0994 H         1 UNK         0.0600 
    224 H224       -8.0398  -19.5307  -53.2371 H         1 UNK         0.0600 
    225 H225       -5.1234  -18.2486  -50.7981 H         1 UNK         0.3000 
    226 H226       -2.7181  -19.0013  -51.9853 H         1 UNK         0.0600 
    227 H227       -2.8217  -17.5205  -50.0367 H         1 UNK         0.0600 
    228 H228       -2.0186  -16.6406  -51.3298 H         1 UNK         0.0600 
    229 H229       -3.6932  -16.2866  -50.9470 H         1 UNK         0.0600 
    230 H230       -5.2942  -17.0828  -53.3975 H         1 UNK         0.3000 
    231 H231       -3.7814  -15.9312  -55.5655 H         1 UNK         0.0600 
    232 H232       -6.0506  -15.3547  -56.4318 H         1 UNK         0.0600 
    233 H233       -5.9001  -14.9335  -54.7338 H         1 UNK         0.0600 
    234 H234       -6.7954  -16.3776  -55.2094 H         1 UNK         0.0600 
    235 H235       -5.2063  -19.0835  -55.0326 H         1 UNK         0.3000 
    236 H236       -5.0416  -19.8334  -57.9187 H         1 UNK         0.0600 
    237 H237       -6.3449  -21.2479  -55.5265 H         1 UNK         0.0600 
    238 H238       -7.1780  -20.3948  -56.8199 H         1 UNK         0.0600 
    239 H239       -6.2848  -21.8651  -57.1732 H         1 UNK         0.0600 
    240 H240       -4.2722  -21.1589  -54.6841 H         1 UNK         0.3000 
    241 H241       -2.7514  -22.4507  -53.8666 H         1 UNK         0.0600 
    242 H242       -2.7001  -24.9360  -56.8051 H         1 UNK         0.3800 
    243 H243       -3.8122  -23.6130  -56.5727 H         1 UNK         0.3800 
    244 H244       -0.3495  -21.4704  -55.3123 H         1 UNK         0.0800 
    245 H245       -1.4293  -20.1705  -54.9276 H         1 UNK         0.0800 
    246 H246        0.4404  -19.1279  -53.6519 H         1 UNK         0.0800 
    247 H247        1.5688  -20.4635  -53.6803 H         1 UNK         0.0800 
@<TRIPOS>BOND
     1    1    2 1    
     2    1  127 1    
     3    1  128 1    
     4    1  129 1    
     5    2    3 2    
     6    2    4 am   BACKBONE|DICT|INTERRES
     7    4    5 1    
     8    4  130 1    
     9    5    6 1    
    10    5   65 1    
    11    5  131 1    
    12    6    7 1    
    13    6  132 1    
    14    6  133 1    
    15    7    8 1    
    16    8    9 1    
    17    8  134 1    
    18    8  135 1    
    19    9   10 ar   
    20    9   14 ar   
    21   10   11 ar   
    22   10  136 1    
    23   11   12 ar   
    24   11  126 1    
    25   12   13 ar   
    26   12  137 1    
    27   13   14 ar   
    28   13   15 1    
    29   14  138 1    
    30   15   16 1    
    31   15  139 1    
    32   15  140 1    
    33   16   17 1    
    34   17   18 1    
    35   17  141 1    
    36   17  142 1    
    37   18   19 1    
    38   18   67 1    
    39   18  143 1    
    40   19   20 am   BACKBONE|DICT|INTERRES
    41   19  144 1    
    42   20   21 2    
    43   20   22 1    
    44   22   23 1    
    45   22   24 1    
    46   22  145 1    
    47   23  146 1    
    48   23  147 1    
    49   23  148 1    
    50   24   25 am   BACKBONE|DICT|INTERRES
    51   24  149 1    
    52   25   26 2    
    53   25   27 1    
    54   27   28 1    
    55   27   29 1    
    56   27  150 1    
    57   28  151 1    
    58   28  152 1    
    59   28  153 1    
    60   29   30 am   BACKBONE|DICT|INTERRES
    61   29  154 1    
    62   30   31 2    
    63   30   32 1    
    64   32   33 1    
    65   32   34 1    
    66   32  155 1    
    67   33  156 1    
    68   33  157 1    
    69   33  158 1    
    70   34   35 am   BACKBONE|DICT|INTERRES
    71   34  159 1    
    72   35   36 2    
    73   35   37 1    
    74   37   38 1    
    75   37   39 1    
    76   37  160 1    
    77   38  161 1    
    78   38  162 1    
    79   38  163 1    
    80   39   40 am   BACKBONE|DICT|INTERRES
    81   39  164 1    
    82   40   41 2    
    83   40   42 1    
    84   42   43 1    
    85   42   44 1    
    86   42  165 1    
    87   43  166 1    
    88   43  167 1    
    89   43  168 1    
    90   44   45 am   BACKBONE|DICT|INTERRES
    91   44  169 1    
    92   45   46 2    
    93   45   47 1    
    94   47   48 1    
    95   47   49 1    
    96   47  170 1    
    97   48  171 1    
    98   48  172 1    
    99   48  173 1    
   100   49   50 am   BACKBONE|DICT|INTERRES
   101   49  174 1    
   102   50   51 2    
   103   50   52 1    
   104   52   53 1    
   105   52   54 1    
   106   52  175 1    
   107   53  176 1    
   108   53  177 1    
   109   53  178 1    
   110   54   55 am   BACKBONE|DICT|INTERRES
   111   54  179 1    
   112   55   56 2    
   113   55   57 1    
   114   57   58 1    
   115   57   59 1    
   116   57  180 1    
   117   58  181 1    
   118   58  182 1    
   119   58  183 1    
   120   59   60 am   BACKBONE|DICT|INTERRES
   121   59  184 1    
   122   60   61 2    
   123   60   62 1    
   124   62   63 1    
   125   62   64 1    
   126   62  185 1    
   127   63  186 1    
   128   63  187 1    
   129   63  188 1    
   130   64   65 am   BACKBONE|DICT|INTERRES
   131   64  189 1    
   132   65   66 2    
   133   67   68 2    
   134   67   69 am   BACKBONE|DICT|INTERRES
   135   69   70 1    
   136   69  190 1    
   137   70   71 1    
   138   70   72 1    
   139   70  191 1    
   140   71  192 1    
   141   71  193 1    
   142   71  194 1    
   143   72   73 2    
   144   72   74 am   BACKBONE|DICT|INTERRES
   145   74   75 1    
   146   74  195 1    
   147   75   76 1    
   148   75   77 1    
   149   75  196 1    
   150   76  197 1    
   151   76  198 1    
   152   76  199 1    
   153   77   78 2    
   154   77   79 am   BACKBONE|DICT|INTERRES
   155   79   80 1    
   156   79  200 1    
   157   80   81 1    
   158   80   82 1    
   159   80  201 1    
   160   81  202 1    
   161   81  203 1    
   162   81  204 1    
   163   82   83 2    
   164   82   84 am   BACKBONE|DICT|INTERRES
   165   84   85 1    
   166   84  205 1    
   167   85   86 1    
   168   85   87 1    
   169   85  206 1    
   170   86  207 1    
   171   86  208 1    
   172   86  209 1    
   173   87   88 2    
   174   87   89 am   BACKBONE|DICT|INTERRES
   175   89   90 1    
   176   89  210 1    
   177   90   91 1    
   178   90   92 1    
   179   90  211 1    
   180   91  212 1    
   181   91  213 1    
   182   91  214 1    
   183   92   93 2    
   184   92   94 am   BACKBONE|DICT|INTERRES
   185   94   95 1    
   186   94  215 1    
   187   95   96 1    
   188   95   97 1    
   189   95  216 1    
   190   96  217 1    
   191   96  218 1    
   192   96  219 1    
   193   97   98 2    
   194   97   99 am   BACKBONE|DICT|INTERRES
   195   99  100 1    
   196   99  220 1    
   197  100  101 1    
   198  100  102 1    
   199  100  221 1    
   200  101  222 1    
   201  101  223 1    
   202  101  224 1    
   203  102  103 2    
   204  102  104 am   BACKBONE|DICT|INTERRES
   205  104  105 1    
   206  104  225 1    
   207  105  106 1    
   208  105  107 1    
   209  105  226 1    
   210  106  227 1    
   211  106  228 1    
   212  106  229 1    
   213  107  108 2    
   214  107  109 am   BACKBONE|DICT|INTERRES
   215  109  110 1    
   216  109  230 1    
   217  110  111 1    
   218  110  112 1    
   219  110  231 1    
   220  111  232 1    
   221  111  233 1    
   222  111  234 1    
   223  112  113 2    
   224  112  114 am   BACKBONE|DICT|INTERRES
   225  114  115 1    
   226  114  235 1    
   227  115  116 1    
   228  115  117 1    
   229  115  236 1    
   230  116  237 1    
   231  116  238 1    
   232  116  239 1    
   233  117  118 2    
   234  117  119 am   BACKBONE|DICT|INTERRES
   235  119  120 1    
   236  119  240 1    
   237  120  121 1    
   238  120  124 1    
   239  120  241 1    
   240  121  122 am   BACKBONE|DICT|INTERRES
   241  121  123 2    
   242  122  242 1    
   243  122  243 1    
   244  124  125 1    
   245  124  244 1    
   246  124  245 1    
   247  125  126 1    
   248  126  246 1    
   249  126  247 1    
@<TRIPOS>SUBSTRUCTURE
     1 UNK         1 GROUP             0       ****    0 ROOT    
