@<TRIPOS>MOLECULE
3R540
247   249    1
SMALL
USER_CHARGES


@<TRIPOS>ATOM
      1 CA         -0.6808  -13.5506  -40.3977 C.3       0 UNK        -0.1800 
      2 C          -0.7269  -13.3459  -41.9049 C.2       0 UNK         0.5000 
      3 O           0.0003  -14.0268  -42.6282 O.2       0 UNK        -0.5000 
      4 N          -1.5741  -12.4122  -42.3651 N.am      1 UNK        -0.5000 
      5 CA         -1.7920  -12.0335  -43.7707 C.3       1 UNK         0.1400 
      6 C6         -2.4161  -13.1675  -44.6284 C.3       23 UNK        -0.0398 
      7 S7         -4.0560  -13.6564  -43.9979 S.3       23 UNK        -0.2404 
      8 C8         -4.9217  -14.1187  -45.5360 C.3       23 UNK        -0.0205 
      9 C9         -4.4288  -15.4275  -46.1467 C.ar      23 UNK        -0.0193 
     10 C10        -4.2300  -15.5249  -47.5287 C.ar      23 UNK        -0.1150 
     11 C11        -3.8339  -16.7314  -48.1177 C.ar      23 UNK        -0.0193 
     12 C12        -3.6417  -17.8498  -47.2970 C.ar      23 UNK        -0.1150 
     13 C13        -3.8186  -17.7646  -45.9159 C.ar      23 UNK        -0.0193 
     14 C14        -4.2209  -16.5559  -45.3466 C.ar      23 UNK        -0.1150 
     15 C15        -3.5860  -18.9905  -45.0517 C.3       23 UNK        -0.0205 
     16 S16        -1.8206  -19.4245  -44.9959 S.3       23 UNK        -0.2404 
     17 C17        -1.9202  -21.0489  -44.1800 C.3       23 UNK        -0.0398 
     18 CA         -2.0993  -22.2005  -45.1968 C.3       11 UNK         0.1400 
     19 N          -0.9767  -22.3117  -46.1371 N.am      11 UNK        -0.5000 
     20 C          -0.9561  -23.1121  -47.2147 C.2       10 UNK         0.5000 
     21 O          -1.8912  -23.8484  -47.5276 O.2       10 UNK        -0.5000 
     22 CA          0.3176  -23.1293  -48.0800 C.3       10 UNK         0.1400 
     23 CB          0.1624  -22.1731  -49.2731 C.3       10 UNK        -0.1800 
     24 N           1.5322  -22.7839  -47.3431 N.am      10 UNK        -0.5000 
     25 C           2.0221  -23.4501  -46.2868 C.2       9 UNK         0.5000 
     26 O           1.5281  -24.4862  -45.8423 O.2       9 UNK        -0.5000 
     27 CA          3.2380  -22.8210  -45.5786 C.3       9 UNK         0.1400 
     28 CB          4.5389  -23.4865  -46.0512 C.3       9 UNK        -0.1800 
     29 N           3.3410  -21.3700  -45.7738 N.am      9 UNK        -0.5000 
     30 C           2.4457  -20.4730  -45.3371 C.2       8 UNK         0.5000 
     31 O           1.4178  -20.7749  -44.7275 O.2       8 UNK        -0.5000 
     32 CA          2.7174  -19.0058  -45.7151 C.3       8 UNK         0.1400 
     33 CB          1.9159  -18.6277  -46.9724 C.3       8 UNK        -0.1800 
     34 N           2.4086  -18.0590  -44.6427 N.am      8 UNK        -0.5000 
     35 C           2.9822  -18.0452  -43.4297 C.2       7 UNK         0.5000 
     36 O           3.8163  -18.8752  -43.0604 O.2       7 UNK        -0.5000 
     37 CA          2.5869  -16.8787  -42.4921 C.3       7 UNK         0.1400 
     38 CB          3.5450  -16.7158  -41.2942 C.3       7 UNK        -0.1800 
     39 N           2.4332  -15.5977  -43.1901 N.am      7 UNK        -0.5000 
     40 C           3.3205  -14.9968  -43.9968 C.2       6 UNK         0.5000 
     41 O           4.4589  -15.4165  -44.2172 O.2       6 UNK        -0.5000 
     42 CA          2.8273  -13.7190  -44.7023 C.3       6 UNK         0.1400 
     43 CB          3.9584  -12.6837  -44.8266 C.3       6 UNK        -0.1800 
     44 N           2.2538  -13.9505  -46.0333 N.am      6 UNK        -0.5000 
     45 C           1.3222  -14.8520  -46.3882 C.2       5 UNK         0.5000 
     46 O           0.8814  -15.7258  -45.6417 O.2       5 UNK        -0.5000 
     47 CA          0.7484  -14.7620  -47.8172 C.3       5 UNK         0.1400 
     48 CB         -0.7853  -14.6580  -47.7801 C.3       5 UNK        -0.1800 
     49 N           1.2555  -13.6301  -48.5909 N.am      5 UNK        -0.5000 
     50 C           2.3833  -13.6161  -49.3124 C.2       4 UNK         0.5000 
     51 O           3.1818  -14.5522  -49.3558 O.2       4 UNK        -0.5000 
     52 CA          2.6724  -12.3231  -50.1054 C.3       4 UNK         0.1400 
     53 CB          2.1994  -12.4704  -51.5597 C.3       4 UNK        -0.1800 
     54 N           2.0419  -11.1355  -49.5156 N.am      4 UNK        -0.5000 
     55 C           2.4202  -10.5843  -48.3546 C.2       3 UNK         0.5000 
     56 O           3.3935  -10.9842  -47.7136 O.2       3 UNK        -0.5000 
     57 CA          1.5668   -9.4360  -47.7832 C.3       3 UNK         0.1400 
     58 CB          0.2469   -9.1860  -48.5401 C.3       3 UNK        -0.1800 
     59 N           1.2640   -9.7811  -46.3999 N.am      3 UNK        -0.5000 
     60 C           1.5068   -9.0479  -45.3138 C.2       2 UNK         0.5000 
     61 O           1.8770   -7.8730  -45.3576 O.2       2 UNK        -0.5000 
     62 CA          1.3321   -9.7660  -43.9519 C.3       2 UNK         0.1400 
     63 CB          1.6223   -8.8402  -42.7564 C.3       2 UNK        -0.1800 
     64 N           0.0330  -10.4116  -43.7270 N.am      2 UNK        -0.5000 
     65 C          -0.5027  -11.4506  -44.3859 C.2       1 UNK         0.5000 
     66 O          -0.0077  -11.9608  -45.3911 O.2       1 UNK        -0.5000 
     67 C          -2.3847  -23.5237  -44.4598 C.2       11 UNK         0.5000 
     68 O          -3.5512  -23.8527  -44.2418 O.2       11 UNK        -0.5000 
     69 N          -1.3287  -24.2903  -44.1498 N.am      12 UNK        -0.5000 
     70 CA         -1.4198  -25.6211  -43.5405 C.3       12 UNK         0.1400 
     71 CB         -0.0275  -26.0428  -43.0469 C.3       12 UNK        -0.1800 
     72 C          -2.0038  -26.6853  -44.4929 C.2       12 UNK         0.5000 
     73 O          -2.4787  -27.7212  -44.0270 O.2       12 UNK        -0.5000 
     74 N          -1.9742  -26.3999  -45.8002 N.am      13 UNK        -0.5000 
     75 CA         -2.5268  -27.2191  -46.8741 C.3       13 UNK         0.1400 
     76 CB         -1.4537  -27.3615  -47.9679 C.3       13 UNK        -0.1800 
     77 C          -3.8354  -26.6222  -47.4328 C.2       13 UNK         0.5000 
     78 O          -4.2371  -27.0002  -48.5323 O.2       13 UNK        -0.5000 
     79 N          -4.4720  -25.6978  -46.6940 N.am      14 UNK        -0.5000 
     80 CA         -5.7186  -24.9990  -47.0354 C.3       14 UNK         0.1400 
     81 CB         -6.9076  -25.9824  -47.0672 C.3       14 UNK        -0.1800 
     82 C          -5.5898  -24.1679  -48.3289 C.2       14 UNK         0.5000 
     83 O          -6.3405  -24.3722  -49.2852 O.2       14 UNK        -0.5000 
     84 N          -4.5914  -23.2735  -48.3386 N.am      15 UNK        -0.5000 
     85 CA         -4.1655  -22.4292  -49.4616 C.3       15 UNK         0.1400 
     86 CB         -5.2553  -21.4032  -49.8332 C.3       15 UNK        -0.1800 
     87 C          -3.6802  -23.2724  -50.6583 C.2       15 UNK         0.5000 
     88 O          -3.9855  -22.9528  -51.8091 O.2       15 UNK        -0.5000 
     89 N          -2.9478  -24.3515  -50.3396 N.am      16 UNK        -0.5000 
     90 CA         -2.4576  -25.3968  -51.2434 C.3       16 UNK         0.1400 
     91 CB         -1.3508  -24.8418  -52.1609 C.3       16 UNK        -0.1800 
     92 C          -3.6062  -26.0774  -52.0150 C.2       16 UNK         0.5000 
     93 O          -3.6166  -26.0715  -53.2450 O.2       16 UNK        -0.5000 
     94 N          -4.5794  -26.6120  -51.2643 N.am      17 UNK        -0.5000 
     95 CA         -5.8259  -27.2270  -51.7330 C.3       17 UNK         0.1400 
     96 CB         -5.5387  -28.5672  -52.4412 C.3       17 UNK        -0.1800 
     97 C          -6.6745  -26.2577  -52.5831 C.2       17 UNK         0.5000 
     98 O          -7.1874  -26.6363  -53.6379 O.2       17 UNK        -0.5000 
     99 N          -6.7756  -25.0096  -52.1042 N.am      18 UNK        -0.5000 
    100 CA        -7.4575  -23.8664  -52.7165 C.3       18 UNK         0.1400 
    101 CB        -8.9800  -24.1080  -52.7814 C.3       18 UNK        -0.1800 
    102 C         -6.8671  -23.4101  -54.0708 C.2       18 UNK         0.5000 
    103 O         -7.5521  -22.7130  -54.8217 O.2       18 UNK        -0.5000 
    104 N         -5.6057  -23.7669  -54.3591 N.am      19 UNK        -0.5000 
    105 CA        -4.8667  -23.2952  -55.5355 C.3       19 UNK         0.1400 
    106 CB        -3.6609  -24.2104  -55.7912 C.3       19 UNK        -0.1800 
    107 C         -4.4014  -21.8321  -55.4019 C.2       19 UNK         0.5000 
    108 O         -4.1201  -21.1976  -56.4192 O.2       19 UNK        -0.5000 
    109 N         -4.3308  -21.3330  -54.1586 N.am      20 UNK        -0.5000 
    110 CA        -3.9219  -19.9860  -53.7593 C.3       20 UNK         0.1400 
    111 CB        -4.8620  -18.9090  -54.3391 C.3       20 UNK        -0.1800 
    112 C         -2.4308  -19.7189  -54.0358 C.2       20 UNK         0.5000 
    113 O         -2.0620  -18.6300  -54.4802 O.2       20 UNK        -0.5000 
    114 N         -1.5848  -20.7097  -53.7108 N.am      21 UNK        -0.5000 
    115 CA        -0.1172  -20.6247  -53.7706 C.3       21 UNK         0.1400 
    116 CB         0.4770  -22.0026  -53.4467 C.3       21 UNK        -0.1800 
    117 C          0.4775  -19.5488  -52.8343 C.2       21 UNK         0.5000 
    118 O          1.5896  -19.0751  -53.0669 O.2       21 UNK        -0.5000 
    119 N         -0.3020  -19.1681  -51.8171 N.am      22 UNK        -0.5000 
    120 CA        -0.1304  -17.9898  -50.9596 C.3       22 UNK         0.1400 
    121 C         -0.2230  -16.6149  -51.6917 C.2       22 UNK         0.5000 
    122 N         -0.7391  -16.5295  -52.9129 N.am      22 UNK        -0.7600 
    123 O          0.1887  -15.6016  -51.1384 O.2       22 UNK        -0.5000 
    124 C124       -1.1184  -18.0566  -49.7655 C.3       23 UNK        -0.0398 
    125 S125       -2.8591  -18.2937  -50.2900 S.3       23 UNK        -0.2404 
    126 C126       -3.6535  -16.7830  -49.6373 C.3       23 UNK        -0.0205 
    127 H127       -1.3665  -12.8832  -39.8751 H         1 UNK         0.0600 
    128 H128        0.3265  -13.3639  -40.0254 H         1 UNK         0.0600 
    129 H129       -0.9512  -14.5774  -40.1515 H         1 UNK         0.0600 
    130 H130       -2.1395  -11.9065  -41.6979 H         1 UNK         0.3000 
    131 H131       -2.5071  -11.2093  -43.7574 H         1 UNK         0.0600 
    132 H132       -1.7686  -14.0457  -44.6628 H         1 UNK         0.0800 
    133 H133       -2.5342  -12.8311  -45.6591 H         1 UNK         0.0800 
    134 H134       -4.8415  -13.2990  -46.2516 H         1 UNK         0.0800 
    135 H135       -5.9840  -14.2269  -45.3140 H         1 UNK         0.0800 
    136 H136       -4.3969  -14.6592  -48.1544 H         1 UNK         0.1150 
    137 H137       -3.3468  -18.8008  -47.7143 H         1 UNK         0.1150 
    138 H138       -4.3779  -16.4948  -44.2791 H         1 UNK         0.1150 
    139 H139       -3.9495  -18.8257  -44.0361 H         1 UNK         0.0800 
    140 H140       -4.1603  -19.8240  -45.4584 H         1 UNK         0.0800 
    141 H141       -2.7425  -21.0278  -43.4619 H         1 UNK         0.0800 
    142 H142       -1.0114  -21.1933  -43.5935 H         1 UNK         0.0800 
    143 H143       -2.9886  -21.9826  -45.7917 H         1 UNK         0.0600 
    144 H144       -0.1653  -21.7437  -45.9230 H         1 UNK         0.3000 
    145 H145        0.4371  -24.1445  -48.4640 H         1 UNK         0.0600 
    146 H146        0.0664  -21.1371  -48.9476 H         1 UNK         0.0600 
    147 H147        1.0203  -22.2354  -49.9429 H         1 UNK         0.0600 
    148 H148       -0.7229  -22.4161  -49.8614 H         1 UNK         0.0600 
    149 H149        2.0144  -21.9475  -47.6349 H         1 UNK         0.3000 
    150 H150        3.1248  -23.0080  -44.5087 H         1 UNK         0.0600 
    151 H151        4.5044  -24.5657  -45.8955 H         1 UNK         0.0600 
    152 H152        5.3994  -23.1081  -45.4991 H         1 UNK         0.0600 
    153 H153        4.7173  -23.3138  -47.1133 H         1 UNK         0.0600 
    154 H154        4.1567  -21.0446  -46.2726 H         1 UNK         0.3000 
    155 H155        3.7800  -18.8990  -45.9419 H         1 UNK         0.0600 
    156 H156        2.0882  -19.3372  -47.7827 H         1 UNK         0.0600 
    157 H157        2.2082  -17.6450  -47.3410 H         1 UNK         0.0600 
    158 H158        0.8431  -18.6081  -46.7739 H         1 UNK         0.0600 
    159 H159        1.7502  -17.3189  -44.8710 H         1 UNK         0.3000 
    160 H160        1.6016  -17.1294  -42.0970 H         1 UNK         0.0600 
    161 H161        3.2205  -15.9082  -40.6379 H         1 UNK         0.0600 
    162 H162        4.5625  -16.4959  -41.6191 H         1 UNK         0.0600 
    163 H163        3.5809  -17.6253  -40.6936 H         1 UNK         0.0600 
    164 H164        1.5124  -15.1700  -43.1134 H         1 UNK         0.3000 
    165 H165        2.0459  -13.2740  -44.0860 H         1 UNK         0.0600 
    166 H166        4.7466  -13.0268  -45.4980 H         1 UNK         0.0600 
    167 H167        3.5886  -11.7352  -45.2114 H         1 UNK         0.0600 
    168 H168        4.4147  -12.4831  -43.8565 H         1 UNK         0.0600 
    169 H169        2.5402  -13.2939  -46.7444 H         1 UNK         0.3000 
    170 H170        1.0117  -15.6891  -48.3299 H         1 UNK         0.0600 
    171 H171       -1.1098  -13.7338  -47.3038 H         1 UNK         0.0600 
    172 H172       -1.2062  -14.6799  -48.7851 H         1 UNK         0.0600 
    173 H173       -1.2273  -15.4867  -47.2252 H         1 UNK         0.0600 
    174 H174        0.6726  -12.8072  -48.6053 H         1 UNK         0.3000 
    175 H175        3.7542  -12.1731  -50.1115 H         1 UNK         0.0600 
    176 H176        1.1201  -12.6177  -51.6185 H         1 UNK         0.0600 
    177 H177        2.4536  -11.5902  -52.1503 H         1 UNK         0.0600 
    178 H178        2.6713  -13.3301  -52.0375 H         1 UNK         0.0600 
    179 H179        1.2404  -10.7571  -49.9996 H         1 UNK         0.3000 
    180 H180        2.1766   -8.5317  -47.8286 H         1 UNK         0.0600 
    181 H181       -0.3915  -10.0706  -48.5496 H         1 UNK         0.0600 
    182 H182        0.4302   -8.8865  -49.5726 H         1 UNK         0.0600 
    183 H183       -0.3188   -8.3800  -48.0723 H         1 UNK         0.0600 
    184 H184        0.9318  -10.7312  -46.2390 H         1 UNK         0.3000 
    185 H185        2.0825  -10.5562  -43.9270 H         1 UNK         0.0600 
    186 H186        0.8983   -8.0268  -42.6942 H         1 UNK         0.0600 
    187 H187        1.5934   -9.3891  -41.8149 H         1 UNK         0.0600 
    188 H188        2.6145   -8.3937  -42.8349 H         1 UNK         0.0600 
    189 H189       -0.4742  -10.0707  -42.9235 H         1 UNK         0.3000 
    190 H190       -0.4030  -23.9778  -44.4117 H         1 UNK         0.3000 
    191 H191       -2.0832  -25.5553  -42.6757 H         1 UNK         0.0600 
    192 H192        0.6779  -26.1464  -43.8720 H         1 UNK         0.0600 
    193 H193        0.3805  -25.3160  -42.3445 H         1 UNK         0.0600 
    194 H194       -0.0708  -27.0032  -42.5316 H         1 UNK         0.0600 
    195 H195       -1.5942  -25.5075  -46.0881 H         1 UNK         0.3000 
    196 H196       -2.7683  -28.2177  -46.5055 H         1 UNK         0.0600 
    197 H197       -0.5502  -27.8239  -47.5701 H         1 UNK         0.0600 
    198 H198       -1.1737  -26.3938  -48.3843 H         1 UNK         0.0600 
    199 H199       -1.8012  -27.9909  -48.7880 H         1 UNK         0.0600 
    200 H200       -4.0521  -25.4268  -45.8139 H         1 UNK         0.3000 
    201 H201       -5.9040  -24.2877  -46.2292 H         1 UNK         0.0600 
    202 H202       -7.8474  -25.4503  -47.2185 H         1 UNK         0.0600 
    203 H203       -6.9916  -26.5289  -46.1279 H         1 UNK         0.0600 
    204 H204       -6.8148  -26.7120  -47.8722 H         1 UNK         0.0600 
    205 H205       -3.9568  -23.2801  -47.5506 H         1 UNK         0.3000 
    206 H206       -3.2965  -21.8680  -49.1151 H         1 UNK         0.0600 
    207 H207       -6.1500  -21.8814  -50.2303 H         1 UNK         0.0600 
    208 H208       -4.8952  -20.7063  -50.5893 H         1 UNK         0.0600 
    209 H209       -5.5480  -20.8114  -48.9660 H         1 UNK         0.0600 
    210 H210       -2.7563  -24.4958  -49.3551 H         1 UNK         0.3000 
    211 H211       -2.0089  -26.1708  -50.6213 H         1 UNK         0.0600 
    212 H212       -0.5223  -24.4453  -51.5748 H         1 UNK         0.0600 
    213 H213       -0.9466  -25.6243  -52.8038 H         1 UNK         0.0600 
    214 H214       -1.7203  -24.0464  -52.8076 H         1 UNK         0.0600 
    215 H215       -4.4705  -26.5929  -50.2506 H         1 UNK         0.3000 
    216 H216       -6.4127  -27.4438  -50.8392 H         1 UNK         0.0600 
    217 H217       -6.4663  -29.0855  -52.6867 H         1 UNK         0.0600 
    218 H218       -4.9875  -28.4250  -53.3711 H         1 UNK         0.0600 
    219 H219       -4.9555  -29.2315  -51.8035 H         1 UNK         0.0600 
    220 H220       -6.3537  -24.8171  -51.1993 H         1 UNK         0.3000 
    221 H221       -7.2925  -23.0326  -52.0337 H         1 UNK         0.0600 
    222 H222       -9.2372  -24.8837  -53.5029 H         1 UNK         0.0600 
    223 H223       -9.3726  -24.4085  -51.8099 H         1 UNK         0.0600 
    224 H224       -9.5095  -23.2011  -53.0754 H         1 UNK         0.0600 
    225 H225       -5.0935  -24.3411  -53.7001 H         1 UNK         0.3000 
    226 H226       -5.5254  -23.3557  -56.4043 H         1 UNK         0.0600 
    227 H227       -3.9690  -25.2506  -55.8980 H         1 UNK         0.0600 
    228 H228       -3.1447  -23.9283  -56.7096 H         1 UNK         0.0600 
    229 H229       -2.9354  -24.1541  -54.9794 H         1 UNK         0.0600 
    230 H230       -4.5031  -21.9760  -53.3896 H         1 UNK         0.3000 
    231 H231       -4.0313  -19.9529  -52.6755 H         1 UNK         0.0600 
    232 H232       -4.6431  -17.9314  -53.9079 H         1 UNK         0.0600 
    233 H233       -5.9047  -19.1353  -54.1161 H         1 UNK         0.0600 
    234 H234       -4.7612  -18.8170  -55.4206 H         1 UNK         0.0600 
    235 H235       -1.9756  -21.5739  -53.3637 H         1 UNK         0.3000 
    236 H236        0.1599  -20.3597  -54.7928 H         1 UNK         0.0600 
    237 H237        0.1038  -22.7666  -54.1291 H         1 UNK         0.0600 
    238 H238        1.5638  -21.9902  -53.5376 H         1 UNK         0.0600 
    239 H239        0.2382  -22.3096  -52.4287 H         1 UNK         0.0600 
    240 H240       -1.1977  -19.6227  -51.7265 H         1 UNK         0.3000 
    241 H241        0.8812  -18.0402  -50.5529 H         1 UNK         0.0600 
    242 H242       -0.7813  -15.6287  -53.3608 H         1 UNK         0.3800 
    243 H243       -1.1142  -17.3413  -53.3934 H         1 UNK         0.3800 
    244 H244       -0.8534  -18.8943  -49.1200 H         1 UNK         0.0800 
    245 H245       -1.0299  -17.1724  -49.1342 H         1 UNK         0.0800 
    246 H246       -4.6382  -16.6959  -50.0979 H         1 UNK         0.0800 
    247 H247       -3.0809  -15.9157  -49.9694 H         1 UNK         0.0800 
@<TRIPOS>BOND
     1    1    2 1    
     2    1  127 1    
     3    1  128 1    
     4    1  129 1    
     5    2    3 2    
     6    2    4 am   BACKBONE|DICT|INTERRES
     7    4    5 1    
     8    4  130 1    
     9    5    6 1    
    10    5   65 1    
    11    5  131 1    
    12    6    7 1    
    13    6  132 1    
    14    6  133 1    
    15    7    8 1    
    16    8    9 1    
    17    8  134 1    
    18    8  135 1    
    19    9   10 ar   
    20    9   14 ar   
    21   10   11 ar   
    22   10  136 1    
    23   11   12 ar   
    24   11  126 1    
    25   12   13 ar   
    26   12  137 1    
    27   13   14 ar   
    28   13   15 1    
    29   14  138 1    
    30   15   16 1    
    31   15  139 1    
    32   15  140 1    
    33   16   17 1    
    34   17   18 1    
    35   17  141 1    
    36   17  142 1    
    37   18   19 1    
    38   18   67 1    
    39   18  143 1    
    40   19   20 am   BACKBONE|DICT|INTERRES
    41   19  144 1    
    42   20   21 2    
    43   20   22 1    
    44   22   23 1    
    45   22   24 1    
    46   22  145 1    
    47   23  146 1    
    48   23  147 1    
    49   23  148 1    
    50   24   25 am   BACKBONE|DICT|INTERRES
    51   24  149 1    
    52   25   26 2    
    53   25   27 1    
    54   27   28 1    
    55   27   29 1    
    56   27  150 1    
    57   28  151 1    
    58   28  152 1    
    59   28  153 1    
    60   29   30 am   BACKBONE|DICT|INTERRES
    61   29  154 1    
    62   30   31 2    
    63   30   32 1    
    64   32   33 1    
    65   32   34 1    
    66   32  155 1    
    67   33  156 1    
    68   33  157 1    
    69   33  158 1    
    70   34   35 am   BACKBONE|DICT|INTERRES
    71   34  159 1    
    72   35   36 2    
    73   35   37 1    
    74   37   38 1    
    75   37   39 1    
    76   37  160 1    
    77   38  161 1    
    78   38  162 1    
    79   38  163 1    
    80   39   40 am   BACKBONE|DICT|INTERRES
    81   39  164 1    
    82   40   41 2    
    83   40   42 1    
    84   42   43 1    
    85   42   44 1    
    86   42  165 1    
    87   43  166 1    
    88   43  167 1    
    89   43  168 1    
    90   44   45 am   BACKBONE|DICT|INTERRES
    91   44  169 1    
    92   45   46 2    
    93   45   47 1    
    94   47   48 1    
    95   47   49 1    
    96   47  170 1    
    97   48  171 1    
    98   48  172 1    
    99   48  173 1    
   100   49   50 am   BACKBONE|DICT|INTERRES
   101   49  174 1    
   102   50   51 2    
   103   50   52 1    
   104   52   53 1    
   105   52   54 1    
   106   52  175 1    
   107   53  176 1    
   108   53  177 1    
   109   53  178 1    
   110   54   55 am   BACKBONE|DICT|INTERRES
   111   54  179 1    
   112   55   56 2    
   113   55   57 1    
   114   57   58 1    
   115   57   59 1    
   116   57  180 1    
   117   58  181 1    
   118   58  182 1    
   119   58  183 1    
   120   59   60 am   BACKBONE|DICT|INTERRES
   121   59  184 1    
   122   60   61 2    
   123   60   62 1    
   124   62   63 1    
   125   62   64 1    
   126   62  185 1    
   127   63  186 1    
   128   63  187 1    
   129   63  188 1    
   130   64   65 am   BACKBONE|DICT|INTERRES
   131   64  189 1    
   132   65   66 2    
   133   67   68 2    
   134   67   69 am   BACKBONE|DICT|INTERRES
   135   69   70 1    
   136   69  190 1    
   137   70   71 1    
   138   70   72 1    
   139   70  191 1    
   140   71  192 1    
   141   71  193 1    
   142   71  194 1    
   143   72   73 2    
   144   72   74 am   BACKBONE|DICT|INTERRES
   145   74   75 1    
   146   74  195 1    
   147   75   76 1    
   148   75   77 1    
   149   75  196 1    
   150   76  197 1    
   151   76  198 1    
   152   76  199 1    
   153   77   78 2    
   154   77   79 am   BACKBONE|DICT|INTERRES
   155   79   80 1    
   156   79  200 1    
   157   80   81 1    
   158   80   82 1    
   159   80  201 1    
   160   81  202 1    
   161   81  203 1    
   162   81  204 1    
   163   82   83 2    
   164   82   84 am   BACKBONE|DICT|INTERRES
   165   84   85 1    
   166   84  205 1    
   167   85   86 1    
   168   85   87 1    
   169   85  206 1    
   170   86  207 1    
   171   86  208 1    
   172   86  209 1    
   173   87   88 2    
   174   87   89 am   BACKBONE|DICT|INTERRES
   175   89   90 1    
   176   89  210 1    
   177   90   91 1    
   178   90   92 1    
   179   90  211 1    
   180   91  212 1    
   181   91  213 1    
   182   91  214 1    
   183   92   93 2    
   184   92   94 am   BACKBONE|DICT|INTERRES
   185   94   95 1    
   186   94  215 1    
   187   95   96 1    
   188   95   97 1    
   189   95  216 1    
   190   96  217 1    
   191   96  218 1    
   192   96  219 1    
   193   97   98 2    
   194   97   99 am   BACKBONE|DICT|INTERRES
   195   99  100 1    
   196   99  220 1    
   197  100  101 1    
   198  100  102 1    
   199  100  221 1    
   200  101  222 1    
   201  101  223 1    
   202  101  224 1    
   203  102  103 2    
   204  102  104 am   BACKBONE|DICT|INTERRES
   205  104  105 1    
   206  104  225 1    
   207  105  106 1    
   208  105  107 1    
   209  105  226 1    
   210  106  227 1    
   211  106  228 1    
   212  106  229 1    
   213  107  108 2    
   214  107  109 am   BACKBONE|DICT|INTERRES
   215  109  110 1    
   216  109  230 1    
   217  110  111 1    
   218  110  112 1    
   219  110  231 1    
   220  111  232 1    
   221  111  233 1    
   222  111  234 1    
   223  112  113 2    
   224  112  114 am   BACKBONE|DICT|INTERRES
   225  114  115 1    
   226  114  235 1    
   227  115  116 1    
   228  115  117 1    
   229  115  236 1    
   230  116  237 1    
   231  116  238 1    
   232  116  239 1    
   233  117  118 2    
   234  117  119 am   BACKBONE|DICT|INTERRES
   235  119  120 1    
   236  119  240 1    
   237  120  121 1    
   238  120  124 1    
   239  120  241 1    
   240  121  122 am   BACKBONE|DICT|INTERRES
   241  121  123 2    
   242  122  242 1    
   243  122  243 1    
   244  124  125 1    
   245  124  244 1    
   246  124  245 1    
   247  125  126 1    
   248  126  246 1    
   249  126  247 1    
@<TRIPOS>SUBSTRUCTURE
     1 UNK         1 GROUP             0       ****    0 ROOT    
