@<TRIPOS>MOLECULE
3R540
247   249    1
SMALL
USER_CHARGES


@<TRIPOS>ATOM
      1 CA         -5.1095  -20.7044  -43.4974 C.3       0 UNK        -0.1800 
      2 C          -4.3911  -19.5473  -44.1737 C.2       0 UNK         0.5000 
      3 O          -4.5923  -18.3954  -43.7914 O.2       0 UNK        -0.5000 
      4 N          -3.5415  -19.8391  -45.1655 N.am      1 UNK        -0.5000 
      5 CA         -2.7827  -18.8464  -45.9366 C.3       1 UNK         0.1400 
      6 C6         -2.0733  -19.4865  -47.1520 C.3       23 UNK        -0.0398 
      7 S7         -1.9155  -18.3041  -48.5302 S.3       23 UNK        -0.2404 
      8 C8         -2.1408  -19.3741  -49.9764 C.3       23 UNK        -0.0205 
      9 C9         -0.8196  -19.9557  -50.4434 C.ar      23 UNK        -0.0193 
     10 C10        -0.1426  -19.3890  -51.5243 C.ar      23 UNK        -0.1150 
     11 C11         1.0827  -19.9105  -51.9458 C.ar      23 UNK        -0.0193 
     12 C12         1.6492  -20.9852  -51.2525 C.ar      23 UNK        -0.1150 
     13 C13         0.9822  -21.5573  -50.1640 C.ar      23 UNK        -0.0193 
     14 C14        -0.2674  -21.0562  -49.7882 C.ar      23 UNK        -0.1150 
     15 C15         1.6106  -22.7151  -49.3997 C.3       23 UNK        -0.0205 
     16 S16         2.6842  -22.1369  -48.0419 S.3       23 UNK        -0.2404 
     17 C17         1.4637  -21.6569  -46.7715 C.3       23 UNK        -0.0398 
     18 CA          1.4015  -22.6572  -45.5932 C.3       11 UNK         0.1400 
     19 N           2.6464  -22.6533  -44.8255 N.am      11 UNK        -0.5000 
     20 C           3.2814  -23.7313  -44.3494 C.2       10 UNK         0.5000 
     21 O           2.8614  -24.8811  -44.4795 O.2       10 UNK        -0.5000 
     22 CA          4.5973  -23.4861  -43.5800 C.3       10 UNK         0.1400 
     23 CB          5.8048  -23.7464  -44.4933 C.3       10 UNK        -0.1800 
     24 N           4.7088  -22.1337  -43.0264 N.am      10 UNK        -0.5000 
     25 C           3.9263  -21.6343  -42.0598 C.2       9 UNK         0.5000 
     26 O           3.0694  -22.2948  -41.4731 O.2       9 UNK        -0.5000 
     27 CA          4.0956  -20.1388  -41.7215 C.3       9 UNK         0.1400 
     28 CB          5.0268  -19.9683  -40.5121 C.3       9 UNK        -0.1800 
     29 N           4.5875  -19.3015  -42.8247 N.am      9 UNK        -0.5000 
     30 C           4.0191  -19.1724  -44.0325 C.2       8 UNK         0.5000 
     31 O           3.0278  -19.8102  -44.3902 O.2       8 UNK        -0.5000 
     32 CA          4.7267  -18.2187  -45.0154 C.3       8 UNK         0.1400 
     33 CB          6.0345  -18.8521  -45.5189 C.3       8 UNK        -0.1800 
     34 N           3.9080  -17.8774  -46.1805 N.am      8 UNK        -0.5000 
     35 C           2.7951  -17.1335  -46.1638 C.2       7 UNK         0.5000 
     36 O           2.3325  -16.6058  -45.1482 O.2       7 UNK        -0.5000 
     37 CA          2.1060  -16.9266  -47.5232 C.3       7 UNK         0.1400 
     38 CB          1.6440  -18.2541  -48.1483 C.3       7 UNK        -0.1800 
     39 N           0.9656  -16.0312  -47.3595 N.am      7 UNK        -0.5000 
     40 C           0.4527  -15.2327  -48.3032 C.2       6 UNK         0.5000 
     41 O           0.8692  -15.1957  -49.4619 O.2       6 UNK        -0.5000 
     42 CA         -0.6921  -14.2873  -47.8879 C.3       6 UNK         0.1400 
     43 CB         -2.0293  -14.6819  -48.5358 C.3       6 UNK        -0.1800 
     44 N          -0.8765  -14.2400  -46.4387 N.am      6 UNK        -0.5000 
     45 C          -0.3720  -13.3026  -45.6277 C.2       5 UNK         0.5000 
     46 O           0.3252  -12.3647  -46.0190 O.2       5 UNK        -0.5000 
     47 CA         -0.7066  -13.4485  -44.1285 C.3       5 UNK         0.1400 
     48 CB         -0.5918  -12.1230  -43.3478 C.3       5 UNK        -0.1800 
     49 N          -2.0064  -14.0856  -43.8932 N.am      5 UNK        -0.5000 
     50 C          -3.2253  -13.6425  -44.2406 C.2       4 UNK         0.5000 
     51 O          -3.4341  -12.5620  -44.7930 O.2       4 UNK        -0.5000 
     52 CA         -4.4197  -14.5727  -43.9341 C.3       4 UNK         0.1400 
     53 CB         -4.9470  -15.2093  -45.2304 C.3       4 UNK        -0.1800 
     54 N          -4.0922  -15.6418  -42.9885 N.am      4 UNK        -0.5000 
     55 C          -3.8583  -15.4723  -41.6799 C.2       3 UNK         0.5000 
     56 O          -4.0108  -14.4037  -41.0877 O.2       3 UNK        -0.5000 
     57 CA         -3.3010  -16.6918  -40.9238 C.3       3 UNK         0.1400 
     58 CB         -4.4354  -17.5863  -40.4006 C.3       3 UNK        -0.1800 
     59 N          -2.3917  -17.4841  -41.7569 N.am      3 UNK        -0.5000 
     60 C          -1.1554  -17.1001  -42.1089 C.2       2 UNK         0.5000 
     61 O          -0.6406  -16.0437  -41.7453 O.2       2 UNK        -0.5000 
     62 CA         -0.3706  -18.0415  -43.0405 C.3       2 UNK         0.1400 
     63 CB          0.3444  -19.1126  -42.2091 C.3       2 UNK        -0.1800 
     64 N          -1.2230  -18.6808  -44.0444 N.am      2 UNK        -0.5000 
     65 C          -1.7973  -18.0319  -45.0678 C.2       1 UNK         0.5000 
     66 O          -1.6148  -16.8359  -45.3055 O.2       1 UNK        -0.5000 
     67 C           0.1734  -22.4062  -44.6881 C.2       11 UNK         0.5000 
     68 O          -0.8911  -22.0552  -45.1963 O.2       11 UNK        -0.5000 
     69 N           0.3003  -22.6186  -43.3693 N.am      12 UNK        -0.5000 
     70 CA         -0.8105  -22.5527  -42.4120 C.3       12 UNK         0.1400 
     71 CB         -0.2539  -22.6307  -40.9827 C.3       12 UNK        -0.1800 
     72 C          -1.8765  -23.6443  -42.6328 C.2       12 UNK         0.5000 
     73 O          -3.0445  -23.4255  -42.3130 O.2       12 UNK        -0.5000 
     74 N          -1.4565  -24.7902  -43.1849 N.am      13 UNK        -0.5000 
     75 CA         -2.3245  -25.9139  -43.5378 C.3       13 UNK         0.1400 
     76 CB         -1.4852  -27.2015  -43.5169 C.3       13 UNK        -0.1800 
     77 C          -3.0118  -25.7442  -44.9084 C.2       13 UNK         0.5000 
     78 O          -3.9529  -26.4838  -45.1997 O.2       13 UNK        -0.5000 
     79 N          -2.5295  -24.8053  -45.7332 N.am      14 UNK        -0.5000 
     80 CA         -3.0634  -24.5140  -47.0604 C.3       14 UNK         0.1400 
     81 CB         -1.9106  -24.0661  -47.9704 C.3       14 UNK        -0.1800 
     82 C          -4.1289  -23.4139  -46.9670 C.2       14 UNK         0.5000 
     83 O          -3.9555  -22.4614  -46.2044 O.2       14 UNK        -0.5000 
     84 N          -5.1969  -23.5458  -47.7618 N.am      15 UNK        -0.5000 
     85 CA         -6.2599  -22.5490  -47.8789 C.3       15 UNK         0.1400 
     86 CB         -7.4502  -23.1667  -48.6284 C.3       15 UNK        -0.1800 
     87 C          -5.7624  -21.2922  -48.6118 C.2       15 UNK         0.5000 
     88 O          -5.0361  -21.4125  -49.6009 O.2       15 UNK        -0.5000 
     89 N          -6.1988  -20.1151  -48.1433 N.am      16 UNK        -0.5000 
     90 CA         -5.7956  -18.7992  -48.6531 C.3       16 UNK         0.1400 
     91 CB         -6.3941  -17.7061  -47.7561 C.3       16 UNK        -0.1800 
     92 C          -6.1379  -18.5470  -50.1357 C.2       16 UNK         0.5000 
     93 O          -5.4758  -17.7345  -50.7804 O.2       16 UNK        -0.5000 
     94 N          -7.1278  -19.2811  -50.6642 N.am      17 UNK        -0.5000 
     95 CA         -7.5482  -19.2742  -52.0677 C.3       17 UNK         0.1400 
     96 CB         -8.7605  -20.2043  -52.2249 C.3       17 UNK        -0.1800 
     97 C          -6.4393  -19.6652  -53.0674 C.2       17 UNK         0.5000 
     98 O          -6.5071  -19.2573  -54.2277 O.2       17 UNK        -0.5000 
     99 N          -5.4181  -20.4061  -52.6072 N.am      18 UNK        -0.5000 
    100 CA        -4.2429  -20.7842  -53.3977 C.3       18 UNK         0.1400 
    101 CB        -3.4247  -21.8330  -52.6299 C.3       18 UNK        -0.1800 
    102 C         -3.3600  -19.5917  -53.8259 C.2       18 UNK         0.5000 
    103 O         -2.5721  -19.7388  -54.7588 O.2       18 UNK        -0.5000 
    104 N         -3.5378  -18.4181  -53.1973 N.am      19 UNK        -0.5000 
    105 CA        -2.8629  -17.1631  -53.5462 C.3       19 UNK         0.1400 
    106 CB        -3.1356  -16.1212  -52.4502 C.3       19 UNK        -0.1800 
    107 C         -3.2433  -16.6103  -54.9361 C.2       19 UNK         0.5000 
    108 O         -2.5440  -15.7347  -55.4459 O.2       19 UNK        -0.5000 
    109 N         -4.3201  -17.1377  -55.5377 N.am      20 UNK        -0.5000 
    110 CA        -4.6942  -16.9003  -56.9323 C.3       20 UNK         0.1400 
    111 CB        -6.1412  -17.3721  -57.1421 C.3       20 UNK        -0.1800 
    112 C         -3.7494  -17.5916  -57.9407 C.2       20 UNK         0.5000 
    113 O         -3.7229  -17.1898  -59.1051 O.2       20 UNK        -0.5000 
    114 N         -3.0045  -18.6107  -57.4891 N.am      21 UNK        -0.5000 
    115 CA        -1.9873  -19.3272  -58.2540 C.3       21 UNK         0.1400 
    116 CB        -2.1963  -20.8421  -58.0515 C.3       21 UNK        -0.1800 
    117 C         -0.5843  -18.8313  -57.8407 C.2       21 UNK         0.5000 
    118 O         -0.4064  -17.6334  -57.6097 O.2       21 UNK        -0.5000 
    119 N          0.3910  -19.7483  -57.7752 N.am      22 UNK        -0.5000 
    120 CA         1.7967  -19.5111  -57.3859 C.3       22 UNK         0.1400 
    121 C          2.6305  -18.6828  -58.4132 C.2       22 UNK         0.5000 
    122 N          2.1803  -18.5153  -59.6508 N.am      22 UNK        -0.7600 
    123 O          3.7206  -18.2109  -58.1003 O.2       22 UNK        -0.5000 
    124 C124        1.9569  -18.9826  -55.9298 C.3       23 UNK        -0.0398 
    125 S125        1.1676  -20.0625  -54.6902 S.3       23 UNK        -0.2404 
    126 C126        1.7826  -19.3101  -53.1532 C.3       23 UNK        -0.0205 
    127 H127       -6.1679  -20.6909  -43.7562 H         1 UNK         0.0600 
    128 H128       -5.0192  -20.6209  -42.4144 H         1 UNK         0.0600 
    129 H129       -4.6953  -21.6676  -43.7947 H         1 UNK         0.0600 
    130 H130       -3.4487  -20.8100  -45.4619 H         1 UNK         0.3000 
    131 H131       -3.5268  -18.1399  -46.3098 H         1 UNK         0.0600 
    132 H132       -2.6478  -20.3450  -47.5019 H         1 UNK         0.0800 
    133 H133       -1.0915  -19.8775  -46.8866 H         1 UNK         0.0800 
    134 H134       -2.8453  -20.1720  -49.7535 H         1 UNK         0.0800 
    135 H135       -2.5942  -18.7812  -50.7668 H         1 UNK         0.0800 
    136 H136       -0.5711  -18.5447  -52.0424 H         1 UNK         0.1150 
    137 H137        2.6065  -21.3796  -51.5628 H         1 UNK         0.1150 
    138 H138       -0.8107  -21.5010  -48.9707 H         1 UNK         0.1150 
    139 H139        0.8401  -23.3787  -49.0056 H         1 UNK         0.0800 
    140 H140        2.2083  -23.3204  -50.0827 H         1 UNK         0.0800 
    141 H141        0.4919  -21.5649  -47.2452 H         1 UNK         0.0800 
    142 H142        1.7122  -20.6594  -46.4118 H         1 UNK         0.0800 
    143 H143        1.2448  -23.6492  -46.0218 H         1 UNK         0.0600 
    144 H144        3.0263  -21.7302  -44.6354 H         1 UNK         0.3000 
    145 H145        4.6316  -24.1963  -42.7513 H         1 UNK         0.0600 
    146 H146        6.7428  -23.6469  -43.9469 H         1 UNK         0.0600 
    147 H147        5.7744  -24.7570  -44.9030 H         1 UNK         0.0600 
    148 H148        5.8291  -23.0521  -45.3345 H         1 UNK         0.0600 
    149 H149        5.3864  -21.5216  -43.4558 H         1 UNK         0.3000 
    150 H150        3.1111  -19.7637  -41.4425 H         1 UNK         0.0600 
    151 H151        6.0436  -20.2914  -40.7389 H         1 UNK         0.0600 
    152 H152        4.6771  -20.5568  -39.6625 H         1 UNK         0.0600 
    153 H153        5.0681  -18.9282  -40.1882 H         1 UNK         0.0600 
    154 H154        5.4143  -18.7574  -42.6243 H         1 UNK         0.3000 
    155 H155        4.9616  -17.2947  -44.4830 H         1 UNK         0.0600 
    156 H156        5.8490  -19.7855  -46.0526 H         1 UNK         0.0600 
    157 H157        6.7130  -19.0751  -44.6946 H         1 UNK         0.0600 
    158 H158        6.5637  -18.1797  -46.1945 H         1 UNK         0.0600 
    159 H159        4.1973  -18.2899  -47.0547 H         1 UNK         0.3000 
    160 H160        2.8353  -16.4550  -48.1850 H         1 UNK         0.0600 
    161 H161        0.9123  -18.7523  -47.5148 H         1 UNK         0.0600 
    162 H162        2.4748  -18.9428  -48.3021 H         1 UNK         0.0600 
    163 H163        1.1831  -18.0917  -49.1225 H         1 UNK         0.0600 
    164 H164        0.6051  -15.9769  -46.4152 H         1 UNK         0.3000 
    165 H165       -0.4271  -13.2968  -48.2633 H         1 UNK         0.0600 
    166 H166       -1.9141  -14.8886  -49.6005 H         1 UNK         0.0600 
    167 H167       -2.4583  -15.5666  -48.0678 H         1 UNK         0.0600 
    168 H168       -2.7585  -13.8777  -48.4377 H         1 UNK         0.0600 
    169 H169       -1.3819  -15.0180  -46.0236 H         1 UNK         0.3000 
    170 H170        0.0402  -14.1327  -43.7232 H         1 UNK         0.0600 
    171 H171        0.4232  -11.7270  -43.3969 H         1 UNK         0.0600 
    172 H172       -1.2598  -11.3583  -43.7447 H         1 UNK         0.0600 
    173 H173       -0.8322  -12.2657  -42.2941 H         1 UNK         0.0600 
    174 H174       -1.9588  -14.9965  -43.4583 H         1 UNK         0.3000 
    175 H175       -5.2138  -13.9611  -43.5013 H         1 UNK         0.0600 
    176 H176       -5.8114  -15.8442  -45.0353 H         1 UNK         0.0600 
    177 H177       -5.2585  -14.4457  -45.9441 H         1 UNK         0.0600 
    178 H178       -4.1862  -15.8199  -45.7171 H         1 UNK         0.0600 
    179 H179       -4.0284  -16.5819  -43.3694 H         1 UNK         0.3000 
    180 H180       -2.7401  -16.3215  -40.0629 H         1 UNK         0.0600 
    181 H181       -5.0494  -17.9818  -41.2098 H         1 UNK         0.0600 
    182 H182       -5.0944  -17.0268  -39.7356 H         1 UNK         0.0600 
    183 H183       -4.0428  -18.4304  -39.8336 H         1 UNK         0.0600 
    184 H184       -2.7657  -18.3376  -42.1445 H         1 UNK         0.3000 
    185 H185        0.3851  -17.4516  -43.5618 H         1 UNK         0.0600 
    186 H186        0.8830  -19.8176  -42.8407 H         1 UNK         0.0600 
    187 H187        1.0690  -18.6510  -41.5383 H         1 UNK         0.0600 
    188 H188       -0.3553  -19.6726  -41.5897 H         1 UNK         0.0600 
    189 H189       -1.4161  -19.6659  -43.9358 H         1 UNK         0.3000 
    190 H190        1.2071  -22.8705  -42.9994 H         1 UNK         0.3000 
    191 H191       -1.3109  -21.5914  -42.5375 H         1 UNK         0.0600 
    192 H192        0.2729  -23.5696  -40.8079 H         1 UNK         0.0600 
    193 H193       -1.0548  -22.5596  -40.2457 H         1 UNK         0.0600 
    194 H194        0.4432  -21.8175  -40.7822 H         1 UNK         0.0600 
    195 H195       -0.4754  -24.8892  -43.4012 H         1 UNK         0.3000 
    196 H196       -3.1108  -26.0091  -42.7859 H         1 UNK         0.0600 
    197 H197       -2.0998  -28.0739  -43.7426 H         1 UNK         0.0600 
    198 H198       -1.0396  -27.3659  -42.5356 H         1 UNK         0.0600 
    199 H199       -0.6792  -27.1688  -44.2512 H         1 UNK         0.0600 
    200 H200       -1.8482  -24.1486  -45.3787 H         1 UNK         0.3000 
    201 H201       -3.5102  -25.4133  -47.4901 H         1 UNK         0.0600 
    202 H202       -2.2717  -23.8099  -48.9675 H         1 UNK         0.0600 
    203 H203       -1.4067  -23.1890  -47.5669 H         1 UNK         0.0600 
    204 H204       -1.1682  -24.8560  -48.0836 H         1 UNK         0.0600 
    205 H205       -5.2482  -24.3313  -48.3934 H         1 UNK         0.3000 
    206 H206       -6.5852  -22.2724  -46.8735 H         1 UNK         0.0600 
    207 H207       -7.8302  -24.0464  -48.1087 H         1 UNK         0.0600 
    208 H208       -8.2743  -22.4565  -48.7077 H         1 UNK         0.0600 
    209 H209       -7.1772  -23.4665  -49.6413 H         1 UNK         0.0600 
    210 H210       -6.8156  -20.1092  -47.3440 H         1 UNK         0.3000 
    211 H211       -4.7122  -18.7427  -48.5678 H         1 UNK         0.0600 
    212 H212       -7.4843  -17.7176  -47.7808 H         1 UNK         0.0600 
    213 H213       -6.0673  -16.7157  -48.0764 H         1 UNK         0.0600 
    214 H214       -6.0789  -17.8296  -46.7197 H         1 UNK         0.0600 
    215 H215       -7.6070  -19.9280  -50.0563 H         1 UNK         0.3000 
    216 H216       -7.8600  -18.2570  -52.3128 H         1 UNK         0.0600 
    217 H217       -9.1208  -20.2071  -53.2546 H         1 UNK         0.0600 
    218 H218       -9.5895  -19.8836  -51.5938 H         1 UNK         0.0600 
    219 H219       -8.5139  -21.2335  -51.9604 H         1 UNK         0.0600 
    220 H220       -5.4216  -20.6969  -51.6358 H         1 UNK         0.3000 
    221 H221       -4.6020  -21.2522  -54.3166 H         1 UNK         0.0600 
    222 H222       -3.0751  -21.4525  -51.6726 H         1 UNK         0.0600 
    223 H223       -4.0159  -22.7278  -52.4347 H         1 UNK         0.0600 
    224 H224       -2.5464  -22.1404  -53.1993 H         1 UNK         0.0600 
    225 H225       -4.2268  -18.3612  -52.4560 H         1 UNK         0.3000 
    226 H226       -1.7895  -17.3572  -53.5724 H         1 UNK         0.0600 
    227 H227       -2.6021  -15.1915  -52.6515 H         1 UNK         0.0600 
    228 H228       -4.1973  -15.8818  -52.3810 H         1 UNK         0.0600 
    229 H229       -2.8073  -16.4755  -51.4730 H         1 UNK         0.0600 
    230 H230       -4.8607  -17.8338  -55.0397 H         1 UNK         0.3000 
    231 H231       -4.6529  -15.8260  -57.1230 H         1 UNK         0.0600 
    232 H232       -6.2429  -18.4441  -56.9675 H         1 UNK         0.0600 
    233 H233       -6.4746  -17.1718  -58.1611 H         1 UNK         0.0600 
    234 H234       -6.8265  -16.8570  -56.4686 H         1 UNK         0.0600 
    235 H235       -3.0360  -18.8404  -56.5013 H         1 UNK         0.3000 
    236 H236       -2.0977  -19.1155  -59.3191 H         1 UNK         0.0600 
    237 H237       -1.5502  -21.4256  -58.7080 H         1 UNK         0.0600 
    238 H238       -1.9943  -21.1461  -57.0235 H         1 UNK         0.0600 
    239 H239       -3.2223  -21.1284  -58.2839 H         1 UNK         0.0600 
    240 H240        0.1568  -20.7083  -57.9820 H         1 UNK         0.3000 
    241 H241        2.2616  -20.4972  -57.4098 H         1 UNK         0.0600 
    242 H242        2.7297  -17.9888  -60.3121 H         1 UNK         0.3800 
    243 H243        1.2950  -18.9048  -59.9320 H         1 UNK         0.3800 
    244 H244        1.5440  -17.9775  -55.8352 H         1 UNK         0.0800 
    245 H245        3.0139  -18.9036  -55.6702 H         1 UNK         0.0800 
    246 H246        2.8614  -19.4557  -53.0803 H         1 UNK         0.0800 
    247 H247        1.6138  -18.2324  -53.1795 H         1 UNK         0.0800 
@<TRIPOS>BOND
     1    1    2 1    
     2    1  127 1    
     3    1  128 1    
     4    1  129 1    
     5    2    3 2    
     6    2    4 am   BACKBONE|DICT|INTERRES
     7    4    5 1    
     8    4  130 1    
     9    5    6 1    
    10    5   65 1    
    11    5  131 1    
    12    6    7 1    
    13    6  132 1    
    14    6  133 1    
    15    7    8 1    
    16    8    9 1    
    17    8  134 1    
    18    8  135 1    
    19    9   10 ar   
    20    9   14 ar   
    21   10   11 ar   
    22   10  136 1    
    23   11   12 ar   
    24   11  126 1    
    25   12   13 ar   
    26   12  137 1    
    27   13   14 ar   
    28   13   15 1    
    29   14  138 1    
    30   15   16 1    
    31   15  139 1    
    32   15  140 1    
    33   16   17 1    
    34   17   18 1    
    35   17  141 1    
    36   17  142 1    
    37   18   19 1    
    38   18   67 1    
    39   18  143 1    
    40   19   20 am   BACKBONE|DICT|INTERRES
    41   19  144 1    
    42   20   21 2    
    43   20   22 1    
    44   22   23 1    
    45   22   24 1    
    46   22  145 1    
    47   23  146 1    
    48   23  147 1    
    49   23  148 1    
    50   24   25 am   BACKBONE|DICT|INTERRES
    51   24  149 1    
    52   25   26 2    
    53   25   27 1    
    54   27   28 1    
    55   27   29 1    
    56   27  150 1    
    57   28  151 1    
    58   28  152 1    
    59   28  153 1    
    60   29   30 am   BACKBONE|DICT|INTERRES
    61   29  154 1    
    62   30   31 2    
    63   30   32 1    
    64   32   33 1    
    65   32   34 1    
    66   32  155 1    
    67   33  156 1    
    68   33  157 1    
    69   33  158 1    
    70   34   35 am   BACKBONE|DICT|INTERRES
    71   34  159 1    
    72   35   36 2    
    73   35   37 1    
    74   37   38 1    
    75   37   39 1    
    76   37  160 1    
    77   38  161 1    
    78   38  162 1    
    79   38  163 1    
    80   39   40 am   BACKBONE|DICT|INTERRES
    81   39  164 1    
    82   40   41 2    
    83   40   42 1    
    84   42   43 1    
    85   42   44 1    
    86   42  165 1    
    87   43  166 1    
    88   43  167 1    
    89   43  168 1    
    90   44   45 am   BACKBONE|DICT|INTERRES
    91   44  169 1    
    92   45   46 2    
    93   45   47 1    
    94   47   48 1    
    95   47   49 1    
    96   47  170 1    
    97   48  171 1    
    98   48  172 1    
    99   48  173 1    
   100   49   50 am   BACKBONE|DICT|INTERRES
   101   49  174 1    
   102   50   51 2    
   103   50   52 1    
   104   52   53 1    
   105   52   54 1    
   106   52  175 1    
   107   53  176 1    
   108   53  177 1    
   109   53  178 1    
   110   54   55 am   BACKBONE|DICT|INTERRES
   111   54  179 1    
   112   55   56 2    
   113   55   57 1    
   114   57   58 1    
   115   57   59 1    
   116   57  180 1    
   117   58  181 1    
   118   58  182 1    
   119   58  183 1    
   120   59   60 am   BACKBONE|DICT|INTERRES
   121   59  184 1    
   122   60   61 2    
   123   60   62 1    
   124   62   63 1    
   125   62   64 1    
   126   62  185 1    
   127   63  186 1    
   128   63  187 1    
   129   63  188 1    
   130   64   65 am   BACKBONE|DICT|INTERRES
   131   64  189 1    
   132   65   66 2    
   133   67   68 2    
   134   67   69 am   BACKBONE|DICT|INTERRES
   135   69   70 1    
   136   69  190 1    
   137   70   71 1    
   138   70   72 1    
   139   70  191 1    
   140   71  192 1    
   141   71  193 1    
   142   71  194 1    
   143   72   73 2    
   144   72   74 am   BACKBONE|DICT|INTERRES
   145   74   75 1    
   146   74  195 1    
   147   75   76 1    
   148   75   77 1    
   149   75  196 1    
   150   76  197 1    
   151   76  198 1    
   152   76  199 1    
   153   77   78 2    
   154   77   79 am   BACKBONE|DICT|INTERRES
   155   79   80 1    
   156   79  200 1    
   157   80   81 1    
   158   80   82 1    
   159   80  201 1    
   160   81  202 1    
   161   81  203 1    
   162   81  204 1    
   163   82   83 2    
   164   82   84 am   BACKBONE|DICT|INTERRES
   165   84   85 1    
   166   84  205 1    
   167   85   86 1    
   168   85   87 1    
   169   85  206 1    
   170   86  207 1    
   171   86  208 1    
   172   86  209 1    
   173   87   88 2    
   174   87   89 am   BACKBONE|DICT|INTERRES
   175   89   90 1    
   176   89  210 1    
   177   90   91 1    
   178   90   92 1    
   179   90  211 1    
   180   91  212 1    
   181   91  213 1    
   182   91  214 1    
   183   92   93 2    
   184   92   94 am   BACKBONE|DICT|INTERRES
   185   94   95 1    
   186   94  215 1    
   187   95   96 1    
   188   95   97 1    
   189   95  216 1    
   190   96  217 1    
   191   96  218 1    
   192   96  219 1    
   193   97   98 2    
   194   97   99 am   BACKBONE|DICT|INTERRES
   195   99  100 1    
   196   99  220 1    
   197  100  101 1    
   198  100  102 1    
   199  100  221 1    
   200  101  222 1    
   201  101  223 1    
   202  101  224 1    
   203  102  103 2    
   204  102  104 am   BACKBONE|DICT|INTERRES
   205  104  105 1    
   206  104  225 1    
   207  105  106 1    
   208  105  107 1    
   209  105  226 1    
   210  106  227 1    
   211  106  228 1    
   212  106  229 1    
   213  107  108 2    
   214  107  109 am   BACKBONE|DICT|INTERRES
   215  109  110 1    
   216  109  230 1    
   217  110  111 1    
   218  110  112 1    
   219  110  231 1    
   220  111  232 1    
   221  111  233 1    
   222  111  234 1    
   223  112  113 2    
   224  112  114 am   BACKBONE|DICT|INTERRES
   225  114  115 1    
   226  114  235 1    
   227  115  116 1    
   228  115  117 1    
   229  115  236 1    
   230  116  237 1    
   231  116  238 1    
   232  116  239 1    
   233  117  118 2    
   234  117  119 am   BACKBONE|DICT|INTERRES
   235  119  120 1    
   236  119  240 1    
   237  120  121 1    
   238  120  124 1    
   239  120  241 1    
   240  121  122 am   BACKBONE|DICT|INTERRES
   241  121  123 2    
   242  122  242 1    
   243  122  243 1    
   244  124  125 1    
   245  124  244 1    
   246  124  245 1    
   247  125  126 1    
   248  126  246 1    
   249  126  247 1    
@<TRIPOS>SUBSTRUCTURE
     1 UNK         1 GROUP             0       ****    0 ROOT    
