@<TRIPOS>MOLECULE
3R540
247   249    1
SMALL
USER_CHARGES


@<TRIPOS>ATOM
      1 CA          5.7313  -11.0054  -46.9013 C.3       0 UNK        -0.1800 
      2 C           4.7584  -12.0105  -46.3038 C.2       0 UNK         0.5000 
      3 O           4.2978  -11.8219  -45.1785 O.2       0 UNK        -0.5000 
      4 N           4.4269  -13.0676  -47.0561 N.am      1 UNK        -0.5000 
      5 CA          3.5036  -14.1400  -46.6617 C.3       1 UNK         0.1400 
      6 C6          3.4497  -15.2941  -47.6975 C.3       23 UNK        -0.0398 
      7 S7          3.2713  -14.7408  -49.4354 S.3       23 UNK        -0.2404 
      8 C8          1.5308  -15.1523  -49.8151 C.3       23 UNK        -0.0205 
      9 C9          1.1962  -16.6379  -49.9769 C.ar      23 UNK        -0.0193 
     10 C10        -0.1360  -16.9883  -50.2178 C.ar      23 UNK        -0.1150 
     11 C11        -0.5139  -18.3255  -50.3824 C.ar      23 UNK        -0.0193 
     12 C12         0.4667  -19.3186  -50.3234 C.ar      23 UNK        -0.1150 
     13 C13         1.8071  -18.9947  -50.0856 C.ar      23 UNK        -0.0193 
     14 C14         2.1600  -17.6535  -49.9166 C.ar      23 UNK        -0.1150 
     15 C15         2.9057  -20.0579  -50.0368 C.3       23 UNK        -0.0205 
     16 S16         2.3767  -21.7028  -49.4479 S.3       23 UNK        -0.2404 
     17 C17         1.7706  -21.2921  -47.7767 C.3       23 UNK        -0.0398 
     18 CA          1.0379  -22.4560  -47.0719 C.3       11 UNK         0.1400 
     19 N           0.7116  -22.1080  -45.6895 N.am      11 UNK        -0.5000 
     20 C           0.2355  -22.9623  -44.7741 C.2       10 UNK         0.5000 
     21 O           0.0750  -24.1666  -44.9753 O.2       10 UNK        -0.5000 
     22 CA         -0.1698  -22.3554  -43.4198 C.3       10 UNK         0.1400 
     23 CB          1.0640  -22.1414  -42.5305 C.3       10 UNK        -0.1800 
     24 N          -0.8968  -21.0927  -43.5675 N.am      10 UNK        -0.5000 
     25 C          -2.0977  -20.9760  -44.1526 C.2       9 UNK         0.5000 
     26 O          -2.7350  -21.9318  -44.5942 O.2       9 UNK        -0.5000 
     27 CA         -2.6694  -19.5543  -44.3056 C.3       9 UNK         0.1400 
     28 CB         -3.2683  -19.0598  -42.9809 C.3       9 UNK        -0.1800 
     29 N          -1.6870  -18.5856  -44.7943 N.am      9 UNK        -0.5000 
     30 C          -1.0704  -18.6598  -45.9827 C.2       8 UNK         0.5000 
     31 O          -1.2574  -19.5603  -46.7964 O.2       8 UNK        -0.5000 
     32 CA         -0.0240  -17.5779  -46.2924 C.3       8 UNK         0.1400 
     33 CB         -0.7056  -16.2654  -46.7060 C.3       8 UNK        -0.1800 
     34 N           0.8780  -17.3456  -45.1636 N.am      8 UNK        -0.5000 
     35 C           1.7049  -18.2734  -44.6565 C.2       7 UNK         0.5000 
     36 O           1.8421  -19.4032  -45.1260 O.2       7 UNK        -0.5000 
     37 CA          2.4669  -17.8906  -43.3763 C.3       7 UNK         0.1400 
     38 CB          3.6452  -16.9613  -43.6976 C.3       7 UNK        -0.1800 
     39 N           1.6000  -17.2497  -42.3884 N.am      7 UNK        -0.5000 
     40 C           0.5774  -17.8522  -41.7644 C.2       6 UNK         0.5000 
     41 O           0.2791  -19.0349  -41.9210 O.2       6 UNK        -0.5000 
     42 CA         -0.2856  -16.9683  -40.8465 C.3       6 UNK         0.1400 
     43 CB          0.3109  -16.9103  -39.4329 C.3       6 UNK        -0.1800 
     44 N          -0.4397  -15.6080  -41.3616 N.am      6 UNK        -0.5000 
     45 C          -1.0363  -15.2798  -42.5136 C.2       5 UNK         0.5000 
     46 O          -1.5670  -16.1022  -43.2600 O.2       5 UNK        -0.5000 
     47 CA         -0.9893  -13.7999  -42.9305 C.3       5 UNK         0.1400 
     48 CB         -2.0689  -12.9731  -42.2092 C.3       5 UNK        -0.1800 
     49 N           0.3390  -13.1882  -42.8044 N.am      5 UNK        -0.5000 
     50 C           1.0490  -12.8884  -41.7063 C.2       4 UNK         0.5000 
     51 O           0.6847  -13.1379  -40.5567 O.2       4 UNK        -0.5000 
     52 CA          2.4063  -12.1992  -41.9402 C.3       4 UNK         0.1400 
     53 CB          3.5085  -13.2468  -42.1580 C.3       4 UNK        -0.1800 
     54 N           2.3770  -11.2888  -43.0853 N.am      4 UNK        -0.5000 
     55 C           1.6862  -10.1402  -43.1296 C.2       3 UNK         0.5000 
     56 O           1.0879   -9.6602  -42.1662 O.2       3 UNK        -0.5000 
     57 CA          1.6204   -9.4333  -44.4944 C.3       3 UNK         0.1400 
     58 CB          2.8885   -8.6047  -44.7528 C.3       3 UNK        -0.1800 
     59 N           1.4231  -10.3910  -45.5837 N.am      3 UNK        -0.5000 
     60 C           0.2632  -11.0120  -45.8450 C.2       2 UNK         0.5000 
     61 O          -0.7832  -10.7907  -45.2361 O.2       2 UNK        -0.5000 
     62 CA          0.2717  -12.0699  -46.9639 C.3       2 UNK         0.1400 
     63 CB         -0.1662  -11.4517  -48.2997 C.3       2 UNK        -0.1800 
     64 N           1.5801  -12.6993  -47.1382 N.am      2 UNK        -0.5000 
     65 C           2.0919  -13.6257  -46.3177 C.2       1 UNK         0.5000 
     66 O           1.5152  -14.0510  -45.3158 O.2       1 UNK        -0.5000 
     67 C          -0.2145  -22.9335  -47.8393 C.2       11 UNK         0.5000 
     68 O          -0.1700  -23.9948  -48.4603 O.2       11 UNK        -0.5000 
     69 N          -1.3211  -22.1839  -47.7346 N.am      12 UNK        -0.5000 
     70 CA         -2.6176  -22.5130  -48.3264 C.3       12 UNK         0.1400 
     71 CB         -3.6158  -21.3801  -48.0558 C.3       12 UNK        -0.1800 
     72 C          -3.1857  -23.8485  -47.8237 C.2       12 UNK         0.5000 
     73 O          -3.6645  -24.6375  -48.6348 O.2       12 UNK        -0.5000 
     74 N          -3.0916  -24.0970  -46.5105 N.am      13 UNK        -0.5000 
     75 CA         -3.5141  -25.3459  -45.8752 C.3       13 UNK         0.1400 
     76 CB         -3.4287  -25.1976  -44.3486 C.3       13 UNK        -0.1800 
     77 C          -2.7085  -26.5706  -46.3495 C.2       13 UNK         0.5000 
     78 O          -3.2825  -27.6498  -46.5005 O.2       13 UNK        -0.5000 
     79 N          -1.4034  -26.3815  -46.5838 N.am      14 UNK        -0.5000 
     80 CA         -0.4999  -27.4132  -47.0859 C.3       14 UNK         0.1400 
     81 CB          0.9509  -27.0153  -46.7699 C.3       14 UNK        -0.1800 
     82 C          -0.6816  -27.6752  -48.5923 C.2       14 UNK         0.5000 
     83 O          -0.7917  -28.8328  -48.9985 O.2       14 UNK        -0.5000 
     84 N          -0.6806  -26.6028  -49.3942 N.am      15 UNK        -0.5000 
     85 CA         -0.6726  -26.6667  -50.8562 C.3       15 UNK         0.1400 
     86 CB         -0.0536  -25.3729  -51.4018 C.3       15 UNK        -0.1800 
     87 C          -2.0604  -26.8852  -51.4814 C.2       15 UNK         0.5000 
     88 O          -2.1366  -27.4250  -52.5861 O.2       15 UNK        -0.5000 
     89 N          -3.1213  -26.4323  -50.7984 N.am      16 UNK        -0.5000 
     90 CA         -4.5406  -26.4372  -51.1795 C.3       16 UNK         0.1400 
     91 CB         -5.0622  -27.8681  -51.4144 C.3       16 UNK        -0.1800 
     92 C          -4.8855  -25.5099  -52.3628 C.2       16 UNK         0.5000 
     93 O          -5.8080  -24.7030  -52.2506 O.2       16 UNK        -0.5000 
     94 N          -4.1495  -25.6435  -53.4711 N.am      17 UNK        -0.5000 
     95 CA         -4.3890  -24.9577  -54.7419 C.3       17 UNK         0.1400 
     96 CB         -4.0195  -25.9217  -55.8814 C.3       17 UNK        -0.1800 
     97 C          -3.6201  -23.6299  -54.8888 C.2       17 UNK         0.5000 
     98 O          -3.7809  -22.9622  -55.9128 O.2       17 UNK        -0.5000 
     99 N          -2.7831  -23.2726  -53.9021 N.am      18 UNK        -0.5000 
    100 CA        -1.9846  -22.0434  -53.8881 C.3       18 UNK         0.1400 
    101 CB        -1.0608  -22.0288  -52.6617 C.3       18 UNK        -0.1800 
    102 C         -2.8717  -20.7869  -53.9210 C.2       18 UNK         0.5000 
    103 O         -3.6798  -20.5944  -53.0113 O.2       18 UNK        -0.5000 
    104 N         -2.7185  -19.9872  -54.9879 N.am      19 UNK        -0.5000 
    105 CA        -3.5315  -18.8149  -55.3363 C.3       19 UNK         0.1400 
    106 CB        -3.2402  -17.6438  -54.3779 C.3       19 UNK        -0.1800 
    107 C         -5.0332  -19.1594  -55.4376 C.2       19 UNK         0.5000 
    108 O         -5.8757  -18.4498  -54.8810 O.2       19 UNK        -0.5000 
    109 N         -5.3223  -20.2929  -56.0955 N.am      20 UNK        -0.5000 
    110 CA        -6.6154  -20.9659  -56.2709 C.3       20 UNK         0.1400 
    111 CB        -7.6323  -20.0728  -57.0080 C.3       20 UNK        -0.1800 
    112 C         -7.1933  -21.5266  -54.9577 C.2       20 UNK         0.5000 
    113 O         -7.4767  -22.7221  -54.8802 O.2       20 UNK        -0.5000 
    114 N         -7.3401  -20.6561  -53.9565 N.am      21 UNK        -0.5000 
    115 CA        -7.7867  -20.9691  -52.6019 C.3       21 UNK         0.1400 
    116 CB        -9.3249  -20.9235  -52.5484 C.3       21 UNK        -0.1800 
    117 C         -7.1597  -20.0397  -51.5427 C.2       21 UNK         0.5000 
    118 O         -7.4099  -20.2505  -50.3553 O.2       21 UNK        -0.5000 
    119 N         -6.3711  -19.0344  -51.9598 N.am      22 UNK        -0.5000 
    120 CA        -5.7042  -18.0508  -51.0846 C.3       22 UNK         0.1400 
    121 C         -6.6664  -17.0191  -50.4144 C.2       22 UNK         0.5000 
    122 N         -7.8912  -16.8511  -50.8993 N.am      22 UNK        -0.7600 
    123 O         -6.3006  -16.3382  -49.4606 O.2       22 UNK        -0.5000 
    124 C124       -4.7203  -18.7269  -50.0849 C.3       23 UNK        -0.0398 
    125 S125       -3.2050  -17.7603  -49.7519 S.3       23 UNK        -0.2404 
    126 C126       -1.9581  -18.7248  -50.6732 C.3       23 UNK        -0.0205 
    127 H127        5.2636  -10.0229  -46.9633 H         1 UNK         0.0600 
    128 H128        6.0501  -11.2955  -47.9027 H         1 UNK         0.0600 
    129 H129        6.6172  -10.9232  -46.2717 H         1 UNK         0.0600 
    130 H130        4.8233  -13.1620  -47.9810 H         1 UNK         0.3000 
    131 H131        3.9072  -14.5560  -45.7378 H         1 UNK         0.0600 
    132 H132        4.3814  -15.8584  -47.6408 H         1 UNK         0.0800 
    133 H133        2.6670  -16.0133  -47.4474 H         1 UNK         0.0800 
    134 H134        1.2720  -14.6484  -50.7473 H         1 UNK         0.0800 
    135 H135        0.8876  -14.7173  -49.0509 H         1 UNK         0.0800 
    136 H136       -0.8838  -16.2106  -50.2817 H         1 UNK         0.1150 
    137 H137        0.1813  -20.3504  -50.4655 H         1 UNK         0.1150 
    138 H138        3.1991  -17.4133  -49.7498 H         1 UNK         0.1150 
    139 H139        3.3211  -20.1673  -51.0391 H         1 UNK         0.0800 
    140 H140        3.7238  -19.7192  -49.3990 H         1 UNK         0.0800 
    141 H141        1.1210  -20.4180  -47.8248 H         1 UNK         0.0800 
    142 H142        2.6345  -20.9905  -47.1831 H         1 UNK         0.0800 
    143 H143        1.7285  -23.3011  -47.0296 H         1 UNK         0.0600 
    144 H144        0.8391  -21.1349  -45.4300 H         1 UNK         0.3000 
    145 H145       -0.8305  -23.0674  -42.9209 H         1 UNK         0.0600 
    146 H146        0.7767  -21.8011  -41.5355 H         1 UNK         0.0600 
    147 H147        1.6245  -23.0690  -42.4079 H         1 UNK         0.0600 
    148 H148        1.7416  -21.3990  -42.9542 H         1 UNK         0.0600 
    149 H149       -0.4515  -20.2643  -43.1811 H         1 UNK         0.3000 
    150 H150       -3.4740  -19.6010  -45.0423 H         1 UNK         0.0600 
    151 H151       -4.0386  -19.7434  -42.6220 H         1 UNK         0.0600 
    152 H152       -3.7308  -18.0796  -43.0982 H         1 UNK         0.0600 
    153 H153       -2.5107  -18.9810  -42.2015 H         1 UNK         0.0600 
    154 H154       -1.4981  -17.7860  -44.1960 H         1 UNK         0.3000 
    155 H155        0.5750  -17.9279  -47.1360 H         1 UNK         0.0600 
    156 H156       -1.2649  -15.8170  -45.8855 H         1 UNK         0.0600 
    157 H157        0.0237  -15.5369  -47.0506 H         1 UNK         0.0600 
    158 H158       -1.4048  -16.4319  -47.5261 H         1 UNK         0.0600 
    159 H159        0.8143  -16.4444  -44.7119 H         1 UNK         0.3000 
    160 H160        2.8634  -18.8085  -42.9369 H         1 UNK         0.0600 
    161 H161        4.2510  -16.7712  -42.8114 H         1 UNK         0.0600 
    162 H162        4.2992  -17.4009  -44.4519 H         1 UNK         0.0600 
    163 H163        3.2989  -16.0017  -44.0777 H         1 UNK         0.0600 
    164 H164        1.7619  -16.2717  -42.2028 H         1 UNK         0.3000 
    165 H165       -1.2779  -17.4186  -40.7831 H         1 UNK         0.0600 
    166 H166       -0.3334  -16.3481  -38.7567 H         1 UNK         0.0600 
    167 H167        0.4247  -17.9117  -39.0156 H         1 UNK         0.0600 
    168 H168        1.2940  -16.4377  -39.4292 H         1 UNK         0.0600 
    169 H169       -0.0277  -14.8525  -40.8198 H         1 UNK         0.3000 
    170 H170       -1.2182  -13.7712  -43.9972 H         1 UNK         0.0600 
    171 H171       -3.0621  -13.3799  -42.4031 H         1 UNK         0.0600 
    172 H172       -1.9265  -12.9644  -41.1285 H         1 UNK         0.0600 
    173 H173       -2.0667  -11.9397  -42.5568 H         1 UNK         0.0600 
    174 H174        0.8022  -13.0394  -43.6940 H         1 UNK         0.3000 
    175 H175        2.6491  -11.6221  -41.0456 H         1 UNK         0.0600 
    176 H176        3.3413  -13.8194  -43.0704 H         1 UNK         0.0600 
    177 H177        4.4879  -12.7749  -42.2385 H         1 UNK         0.0600 
    178 H178        3.5530  -13.9517  -41.3268 H         1 UNK         0.0600 
    179 H179        2.9095  -11.5700  -43.9047 H         1 UNK         0.3000 
    180 H180        0.7696   -8.7486  -44.4773 H         1 UNK         0.0600 
    181 H181        3.7853   -9.2239  -44.7677 H         1 UNK         0.0600 
    182 H182        3.0249   -7.8528  -43.9746 H         1 UNK         0.0600 
    183 H183        2.8283   -8.0784  -45.7056 H         1 UNK         0.0600 
    184 H184        2.2434  -10.6596  -46.1062 H         1 UNK         0.3000 
    185 H185       -0.4516  -12.8427  -46.6937 H         1 UNK         0.0600 
    186 H186       -0.2273  -12.2078  -49.0827 H         1 UNK         0.0600 
    187 H187       -1.1527  -10.9943  -48.2133 H         1 UNK         0.0600 
    188 H188        0.5268  -10.6780  -48.6324 H         1 UNK         0.0600 
    189 H189        2.1274  -12.4068  -47.9351 H         1 UNK         0.3000 
    190 H190       -1.2722  -21.2975  -47.2338 H         1 UNK         0.3000 
    191 H191       -2.4734  -22.5924  -49.4056 H         1 UNK         0.0600 
    192 H192       -3.8449  -21.2855  -46.9945 H         1 UNK         0.0600 
    193 H193       -4.5555  -21.5519  -48.5824 H         1 UNK         0.0600 
    194 H194       -3.2199  -20.4239  -48.3900 H         1 UNK         0.0600 
    195 H195       -2.7325  -23.3702  -45.8973 H         1 UNK         0.3000 
    196 H196       -4.5593  -25.5160  -46.1415 H         1 UNK         0.0600 
    197 H197       -3.7531  -26.1105  -43.8476 H         1 UNK         0.0600 
    198 H198       -4.0675  -24.3880  -43.9953 H         1 UNK         0.0600 
    199 H199       -2.4102  -24.9863  -44.0215 H         1 UNK         0.0600 
    200 H200       -1.0022  -25.4684  -46.4041 H         1 UNK         0.3000 
    201 H201       -0.7108  -28.3453  -46.5572 H         1 UNK         0.0600 
    202 H202        1.1033  -26.9087  -45.6957 H         1 UNK         0.0600 
    203 H203        1.2236  -26.0690  -47.2386 H         1 UNK         0.0600 
    204 H204        1.6506  -27.7727  -47.1252 H         1 UNK         0.0600 
    205 H205       -0.5653  -25.6777  -48.9819 H         1 UNK         0.3000 
    206 H206       -0.0377  -27.4989  -51.1676 H         1 UNK         0.0600 
    207 H207        0.9644  -25.2363  -51.0362 H         1 UNK         0.0600 
    208 H208       -0.0111  -25.3832  -52.4918 H         1 UNK         0.0600 
    209 H209       -0.6349  -24.5020  -51.0989 H         1 UNK         0.0600 
    210 H210       -2.9464  -25.9557  -49.9185 H         1 UNK         0.3000 
    211 H211       -5.0788  -26.0460  -50.3154 H         1 UNK         0.0600 
    212 H212       -4.6013  -28.3384  -52.2832 H         1 UNK         0.0600 
    213 H213       -6.1397  -27.8638  -51.5831 H         1 UNK         0.0600 
    214 H214       -4.8713  -28.5024  -50.5488 H         1 UNK         0.0600 
    215 H215       -3.3964  -26.3269  -53.4489 H         1 UNK         0.3000 
    216 H216       -5.4517  -24.7231  -54.8313 H         1 UNK         0.0600 
    217 H217       -4.2245  -25.4779  -56.8565 H         1 UNK         0.0600 
    218 H218       -4.5977  -26.8439  -55.8198 H         1 UNK         0.0600 
    219 H219       -2.9618  -26.1868  -55.8557 H         1 UNK         0.0600 
    220 H220       -2.7348  -23.8615  -53.0853 H         1 UNK         0.3000 
    221 H221       -1.3533  -22.0507  -54.7791 H         1 UNK         0.0600 
    222 H222       -1.6172  -22.1397  -51.7304 H         1 UNK         0.0600 
    223 H223       -0.3216  -22.8261  -52.7194 H         1 UNK         0.0600 
    224 H224       -0.5091  -21.0899  -52.6074 H         1 UNK         0.0600 
    225 H225       -2.0332  -20.2528  -55.6815 H         1 UNK         0.3000 
    226 H226       -3.2219  -18.5063  -56.3357 H         1 UNK         0.0600 
    227 H227       -2.1749  -17.4161  -54.3435 H         1 UNK         0.0600 
    228 H228       -3.7571  -16.7382  -54.6972 H         1 UNK         0.0600 
    229 H229       -3.5673  -17.8662  -53.3648 H         1 UNK         0.0600 
    230 H230       -4.5345  -20.8448  -56.4127 H         1 UNK         0.3000 
    231 H231       -6.4120  -21.8240  -56.9138 H         1 UNK         0.0600 
    232 H232       -8.5522  -20.6222  -57.2115 H         1 UNK         0.0600 
    233 H233       -7.2368  -19.7355  -57.9660 H         1 UNK         0.0600 
    234 H234       -7.9045  -19.1902  -56.4290 H         1 UNK         0.0600 
    235 H235       -7.0589  -19.6992  -54.1446 H         1 UNK         0.3000 
    236 H236       -7.4584  -21.9797  -52.3487 H         1 UNK         0.0600 
    237 H237       -9.7659  -21.6428  -53.2386 H         1 UNK         0.0600 
    238 H238       -9.6925  -21.1676  -51.5510 H         1 UNK         0.0600 
    239 H239       -9.7043  -19.9344  -52.8071 H         1 UNK         0.0600 
    240 H240       -6.1770  -18.9207  -52.9466 H         1 UNK         0.3000 
    241 H241       -5.1116  -17.4466  -51.7695 H         1 UNK         0.0600 
    242 H242       -8.5065  -16.1782  -50.4696 H         1 UNK         0.3800 
    243 H243       -8.2086  -17.3893  -51.6892 H         1 UNK         0.3800 
    244 H244       -5.2167  -18.9382  -49.1364 H         1 UNK         0.0800 
    245 H245       -4.4167  -19.7008  -50.4700 H         1 UNK         0.0800 
    246 H246       -2.0961  -19.7821  -50.4432 H         1 UNK         0.0800 
    247 H247       -2.1368  -18.6156  -51.7414 H         1 UNK         0.0800 
@<TRIPOS>BOND
     1    1    2 1    
     2    1  127 1    
     3    1  128 1    
     4    1  129 1    
     5    2    3 2    
     6    2    4 am   BACKBONE|DICT|INTERRES
     7    4    5 1    
     8    4  130 1    
     9    5    6 1    
    10    5   65 1    
    11    5  131 1    
    12    6    7 1    
    13    6  132 1    
    14    6  133 1    
    15    7    8 1    
    16    8    9 1    
    17    8  134 1    
    18    8  135 1    
    19    9   10 ar   
    20    9   14 ar   
    21   10   11 ar   
    22   10  136 1    
    23   11   12 ar   
    24   11  126 1    
    25   12   13 ar   
    26   12  137 1    
    27   13   14 ar   
    28   13   15 1    
    29   14  138 1    
    30   15   16 1    
    31   15  139 1    
    32   15  140 1    
    33   16   17 1    
    34   17   18 1    
    35   17  141 1    
    36   17  142 1    
    37   18   19 1    
    38   18   67 1    
    39   18  143 1    
    40   19   20 am   BACKBONE|DICT|INTERRES
    41   19  144 1    
    42   20   21 2    
    43   20   22 1    
    44   22   23 1    
    45   22   24 1    
    46   22  145 1    
    47   23  146 1    
    48   23  147 1    
    49   23  148 1    
    50   24   25 am   BACKBONE|DICT|INTERRES
    51   24  149 1    
    52   25   26 2    
    53   25   27 1    
    54   27   28 1    
    55   27   29 1    
    56   27  150 1    
    57   28  151 1    
    58   28  152 1    
    59   28  153 1    
    60   29   30 am   BACKBONE|DICT|INTERRES
    61   29  154 1    
    62   30   31 2    
    63   30   32 1    
    64   32   33 1    
    65   32   34 1    
    66   32  155 1    
    67   33  156 1    
    68   33  157 1    
    69   33  158 1    
    70   34   35 am   BACKBONE|DICT|INTERRES
    71   34  159 1    
    72   35   36 2    
    73   35   37 1    
    74   37   38 1    
    75   37   39 1    
    76   37  160 1    
    77   38  161 1    
    78   38  162 1    
    79   38  163 1    
    80   39   40 am   BACKBONE|DICT|INTERRES
    81   39  164 1    
    82   40   41 2    
    83   40   42 1    
    84   42   43 1    
    85   42   44 1    
    86   42  165 1    
    87   43  166 1    
    88   43  167 1    
    89   43  168 1    
    90   44   45 am   BACKBONE|DICT|INTERRES
    91   44  169 1    
    92   45   46 2    
    93   45   47 1    
    94   47   48 1    
    95   47   49 1    
    96   47  170 1    
    97   48  171 1    
    98   48  172 1    
    99   48  173 1    
   100   49   50 am   BACKBONE|DICT|INTERRES
   101   49  174 1    
   102   50   51 2    
   103   50   52 1    
   104   52   53 1    
   105   52   54 1    
   106   52  175 1    
   107   53  176 1    
   108   53  177 1    
   109   53  178 1    
   110   54   55 am   BACKBONE|DICT|INTERRES
   111   54  179 1    
   112   55   56 2    
   113   55   57 1    
   114   57   58 1    
   115   57   59 1    
   116   57  180 1    
   117   58  181 1    
   118   58  182 1    
   119   58  183 1    
   120   59   60 am   BACKBONE|DICT|INTERRES
   121   59  184 1    
   122   60   61 2    
   123   60   62 1    
   124   62   63 1    
   125   62   64 1    
   126   62  185 1    
   127   63  186 1    
   128   63  187 1    
   129   63  188 1    
   130   64   65 am   BACKBONE|DICT|INTERRES
   131   64  189 1    
   132   65   66 2    
   133   67   68 2    
   134   67   69 am   BACKBONE|DICT|INTERRES
   135   69   70 1    
   136   69  190 1    
   137   70   71 1    
   138   70   72 1    
   139   70  191 1    
   140   71  192 1    
   141   71  193 1    
   142   71  194 1    
   143   72   73 2    
   144   72   74 am   BACKBONE|DICT|INTERRES
   145   74   75 1    
   146   74  195 1    
   147   75   76 1    
   148   75   77 1    
   149   75  196 1    
   150   76  197 1    
   151   76  198 1    
   152   76  199 1    
   153   77   78 2    
   154   77   79 am   BACKBONE|DICT|INTERRES
   155   79   80 1    
   156   79  200 1    
   157   80   81 1    
   158   80   82 1    
   159   80  201 1    
   160   81  202 1    
   161   81  203 1    
   162   81  204 1    
   163   82   83 2    
   164   82   84 am   BACKBONE|DICT|INTERRES
   165   84   85 1    
   166   84  205 1    
   167   85   86 1    
   168   85   87 1    
   169   85  206 1    
   170   86  207 1    
   171   86  208 1    
   172   86  209 1    
   173   87   88 2    
   174   87   89 am   BACKBONE|DICT|INTERRES
   175   89   90 1    
   176   89  210 1    
   177   90   91 1    
   178   90   92 1    
   179   90  211 1    
   180   91  212 1    
   181   91  213 1    
   182   91  214 1    
   183   92   93 2    
   184   92   94 am   BACKBONE|DICT|INTERRES
   185   94   95 1    
   186   94  215 1    
   187   95   96 1    
   188   95   97 1    
   189   95  216 1    
   190   96  217 1    
   191   96  218 1    
   192   96  219 1    
   193   97   98 2    
   194   97   99 am   BACKBONE|DICT|INTERRES
   195   99  100 1    
   196   99  220 1    
   197  100  101 1    
   198  100  102 1    
   199  100  221 1    
   200  101  222 1    
   201  101  223 1    
   202  101  224 1    
   203  102  103 2    
   204  102  104 am   BACKBONE|DICT|INTERRES
   205  104  105 1    
   206  104  225 1    
   207  105  106 1    
   208  105  107 1    
   209  105  226 1    
   210  106  227 1    
   211  106  228 1    
   212  106  229 1    
   213  107  108 2    
   214  107  109 am   BACKBONE|DICT|INTERRES
   215  109  110 1    
   216  109  230 1    
   217  110  111 1    
   218  110  112 1    
   219  110  231 1    
   220  111  232 1    
   221  111  233 1    
   222  111  234 1    
   223  112  113 2    
   224  112  114 am   BACKBONE|DICT|INTERRES
   225  114  115 1    
   226  114  235 1    
   227  115  116 1    
   228  115  117 1    
   229  115  236 1    
   230  116  237 1    
   231  116  238 1    
   232  116  239 1    
   233  117  118 2    
   234  117  119 am   BACKBONE|DICT|INTERRES
   235  119  120 1    
   236  119  240 1    
   237  120  121 1    
   238  120  124 1    
   239  120  241 1    
   240  121  122 am   BACKBONE|DICT|INTERRES
   241  121  123 2    
   242  122  242 1    
   243  122  243 1    
   244  124  125 1    
   245  124  244 1    
   246  124  245 1    
   247  125  126 1    
   248  126  246 1    
   249  126  247 1    
@<TRIPOS>SUBSTRUCTURE
     1 UNK         1 GROUP             0       ****    0 ROOT    
