@<TRIPOS>MOLECULE
3R540
247   249    1
SMALL
USER_CHARGES


@<TRIPOS>ATOM
      1 CA          0.9076  -12.8396  -50.6752 C.3       0 UNK        -0.1800 
      2 C           2.1234  -12.7287  -49.7665 C.2       0 UNK         0.5000 
      3 O           3.0346  -11.9533  -50.0525 O.2       0 UNK        -0.5000 
      4 N           2.1339  -13.4949  -48.6685 N.am      1 UNK        -0.5000 
      5 CA          3.2164  -13.5388  -47.6734 C.3       1 UNK         0.1400 
      6 C6          3.3570  -14.9570  -47.0506 C.3       23 UNK        -0.0398 
      7 S7          5.0905  -15.4948  -46.8350 S.3       23 UNK        -0.2404 
      8 C8          5.6369  -15.8241  -48.5454 C.3       23 UNK        -0.0205 
      9 C9          4.7440  -16.8259  -49.2601 C.ar      23 UNK        -0.0193 
     10 C10         3.7422  -16.3743  -50.1237 C.ar      23 UNK        -0.1150 
     11 C11         2.8775  -17.2808  -50.7382 C.ar      23 UNK        -0.0193 
     12 C12         3.0499  -18.6497  -50.5264 C.ar      23 UNK        -0.1150 
     13 C13         4.0538  -19.1152  -49.6741 C.ar      23 UNK        -0.0193 
     14 C14         4.8994  -18.1981  -49.0418 C.ar      23 UNK        -0.1150 
     15 C15         4.2082  -20.6065  -49.4226 C.3       23 UNK        -0.0205 
     16 S16         3.1824  -21.1572  -48.0240 S.3       23 UNK        -0.2404 
     17 C17         1.5006  -21.0548  -48.7311 C.3       23 UNK        -0.0398 
     18 CA          0.5432  -22.0686  -48.0684 C.3       11 UNK         0.1400 
     19 N           0.2699  -21.7527  -46.6641 N.am      11 UNK        -0.5000 
     20 C          -0.3038  -22.6028  -45.8026 C.2       10 UNK         0.5000 
     21 O          -0.6269  -23.7542  -46.0951 O.2       10 UNK        -0.5000 
     22 CA         -0.6121  -22.0662  -44.3936 C.3       10 UNK         0.1400 
     23 CB          0.6495  -22.0669  -43.5179 C.3       10 UNK        -0.1800 
     24 N          -1.2051  -20.7278  -44.4192 N.am      10 UNK        -0.5000 
     25 C          -2.3963  -20.4437  -44.9657 C.2       9 UNK         0.5000 
     26 O          -3.1361  -21.2919  -45.4619 O.2       9 UNK        -0.5000 
     27 CA         -2.8237  -18.9658  -45.0012 C.3       9 UNK         0.1400 
     28 CB         -3.4210  -18.5388  -43.6524 C.3       9 UNK        -0.1800 
     29 N          -1.7312  -18.0640  -45.3608 N.am      9 UNK        -0.5000 
     30 C          -1.0789  -18.0729  -46.5325 C.2       8 UNK         0.5000 
     31 O          -1.3484  -18.8295  -47.4643 O.2       8 UNK        -0.5000 
     32 CA          0.1179  -17.1118  -46.6525 C.3       8 UNK         0.1400 
     33 CB         -0.3611  -15.6694  -46.8874 C.3       8 UNK        -0.1800 
     34 N           0.9785  -17.1653  -45.4679 N.am      8 UNK        -0.5000 
     35 C           1.6359  -18.2637  -45.0647 C.2       7 UNK         0.5000 
     36 O           1.6215  -19.3316  -45.6738 O.2       7 UNK        -0.5000 
     37 CA          2.3717  -18.1764  -43.7181 C.3       7 UNK         0.1400 
     38 CB          3.7708  -17.5663  -43.8872 C.3       7 UNK        -0.1800 
     39 N           1.6037  -17.4113  -42.7354 N.am      7 UNK        -0.5000 
     40 C           0.4949  -17.8715  -42.1357 C.2       6 UNK         0.5000 
     41 O           0.0397  -18.9993  -42.3228 O.2       6 UNK        -0.5000 
     42 CA         -0.2585  -16.9009  -41.2051 C.3       6 UNK         0.1400 
     43 CB          0.3192  -16.9588  -39.7834 C.3       6 UNK        -0.1800 
     44 N          -0.2321  -15.5178  -41.6811 N.am      6 UNK        -0.5000 
     45 C          -0.7738  -15.0983  -42.8328 C.2       5 UNK         0.5000 
     46 O          -1.4299  -15.8250  -43.5773 O.2       5 UNK        -0.5000 
     47 CA         -0.4925  -13.6431  -43.2552 C.3       5 UNK         0.1400 
     48 CB         -1.6732  -12.7336  -42.8883 C.3       5 UNK        -0.1800 
     49 N           0.7381  -13.0799  -42.6926 N.am      5 UNK        -0.5000 
     50 C           1.9772  -13.5509  -42.8851 C.2       4 UNK         0.5000 
     51 O           2.2127  -14.5710  -43.5340 O.2       4 UNK        -0.5000 
     52 CA          3.1219  -12.7372  -42.2422 C.3       4 UNK         0.1400 
     53 CB          4.4992  -13.4016  -42.4198 C.3       4 UNK        -0.1800 
     54 N           3.1638  -11.3669  -42.7658 N.am      4 UNK        -0.5000 
     55 C           2.3288  -10.3841  -42.3982 C.2       3 UNK         0.5000 
     56 O           1.4785  -10.5256  -41.5181 O.2       3 UNK        -0.5000 
     57 CA          2.3925   -9.0400  -43.1531 C.3       3 UNK         0.1400 
     58 CB          2.8371   -7.9184  -42.2009 C.3       3 UNK        -0.1800 
     59 N           3.2663   -9.0148  -44.3312 N.am      3 UNK        -0.5000 
     60 C           3.0542   -9.5331  -45.5506 C.2       2 UNK         0.5000 
     61 O           3.8355   -9.3039  -46.4748 O.2       2 UNK        -0.5000 
     62 CA          1.8118  -10.4188  -45.8283 C.3       2 UNK         0.1400 
     63 CB          0.6765   -9.5790  -46.4328 C.3       2 UNK        -0.1800 
     64 N           2.0979  -11.5390  -46.7307 N.am      2 UNK        -0.5000 
     65 C           3.0838  -12.4407  -46.5912 C.2       1 UNK         0.5000 
     66 O           3.8692  -12.4361  -45.6443 O.2       1 UNK        -0.5000 
     67 C          -0.7556  -22.2519  -48.8821 C.2       11 UNK         0.5000 
     68 O          -0.8210  -23.1760  -49.6922 O.2       11 UNK        -0.5000 
     69 N          -1.7852  -21.4330  -48.6162 N.am      12 UNK        -0.5000 
     70 CA         -3.1217  -21.5865  -49.1950 C.3       12 UNK         0.1400 
     71 CB         -4.0005  -20.3801  -48.8338 C.3       12 UNK        -0.1800 
     72 C          -3.7944  -22.9026  -48.7631 C.2       12 UNK         0.5000 
     73 O          -4.3491  -23.6039  -49.6061 O.2       12 UNK        -0.5000 
     74 N          -3.7000  -23.2487  -47.4712 N.am      13 UNK        -0.5000 
     75 CA         -4.1936  -24.5121  -46.9195 C.3       13 UNK         0.1400 
     76 CB         -4.0622  -24.5051  -45.3897 C.3       13 UNK        -0.1800 
     77 C          -3.4957  -25.7416  -47.5313 C.2       13 UNK         0.5000 
     78 O          -4.1724  -26.7119  -47.8765 O.2       13 UNK        -0.5000 
     79 N          -2.1684  -25.6565  -47.7044 N.am      14 UNK        -0.5000 
     80 CA         -1.3521  -26.6597  -48.3912 C.3       14 UNK         0.1400 
     81 CB          0.1359  -26.3197  -48.2219 C.3       14 UNK        -0.1800 
     82 C          -1.7153  -26.8132  -49.8814 C.2       14 UNK         0.5000 
     83 O          -1.6888  -27.9313  -50.3986 O.2       14 UNK        -0.5000 
     84 N          -2.1017  -25.7084  -50.5345 N.am      15 UNK        -0.5000 
     85 CA         -2.6401  -25.6578  -51.8944 C.3       15 UNK         0.1400 
     86 CB         -2.4640  -24.2382  -52.4620 C.3       15 UNK        -0.1800 
     87 C          -4.1047  -26.1446  -51.9491 C.2       15 UNK         0.5000 
     88 O          -5.0043  -25.3856  -52.3178 O.2       15 UNK        -0.5000 
     89 N          -4.2996  -27.4171  -51.5758 N.am      16 UNK        -0.5000 
     90 CA         -5.5336  -28.2038  -51.6378 C.3       16 UNK         0.1400 
     91 CB         -5.8354  -28.5895  -53.1000 C.3       16 UNK        -0.1800 
     92 C          -6.7323  -27.5486  -50.9209 C.2       16 UNK         0.5000 
     93 O          -7.8290  -27.4957  -51.4803 O.2       16 UNK        -0.5000 
     94 N          -6.4950  -27.0723  -49.6889 N.am      17 UNK        -0.5000 
     95 CA         -7.4644  -26.4291  -48.7965 C.3       17 UNK         0.1400 
     96 CB         -8.5434  -27.4341  -48.3397 C.3       17 UNK        -0.1800 
     97 C          -8.0486  -25.1352  -49.3986 C.2       17 UNK         0.5000 
     98 O          -9.2686  -24.9880  -49.4948 O.2       17 UNK        -0.5000 
     99 N          -7.1481  -24.2235  -49.7898 N.am      18 UNK        -0.5000 
    100 CA        -7.4151  -22.9133  -50.3847 C.3       18 UNK         0.1400 
    101 CB        -8.1802  -21.9939  -49.4095 C.3       18 UNK        -0.1800 
    102 C         -8.0493  -23.0044  -51.7846 C.2       18 UNK         0.5000 
    103 O         -8.9529  -22.2295  -52.1057 O.2       18 UNK        -0.5000 
    104 N         -7.5371  -23.9254  -52.6156 N.am      19 UNK        -0.5000 
    105 CA        -7.8274  -23.9657  -54.0520 C.3       19 UNK         0.1400 
    106 CB        -7.4356  -25.3336  -54.6273 C.3       19 UNK        -0.1800 
    107 C         -7.1012  -22.8289  -54.7983 C.2       19 UNK         0.5000 
    108 O         -7.6158  -22.3309  -55.8003 O.2       19 UNK        -0.5000 
    109 N         -5.9457  -22.4150  -54.2630 N.am      20 UNK        -0.5000 
    110 CA        -5.2578  -21.1719  -54.5884 C.3       20 UNK         0.1400 
    111 CB        -3.7835  -21.4759  -54.8962 C.3       20 UNK        -0.1800 
    112 C         -5.3650  -20.2405  -53.3711 C.2       20 UNK         0.5000 
    113 O         -5.3941  -20.7182  -52.2345 O.2       20 UNK        -0.5000 
    114 N         -5.3908  -18.9267  -53.6240 N.am      21 UNK        -0.5000 
    115 CA        -5.4917  -17.8865  -52.5933 C.3       21 UNK         0.1400 
    116 CB        -5.9021  -16.5662  -53.2644 C.3       21 UNK        -0.1800 
    117 C         -4.2003  -17.6931  -51.7708 C.2       21 UNK         0.5000 
    118 O         -4.2492  -17.0785  -50.7053 O.2       21 UNK        -0.5000 
    119 N         -3.0767  -18.2070  -52.2801 N.am      22 UNK        -0.5000 
    120 CA        -1.7542  -18.1779  -51.6492 C.3       22 UNK         0.1400 
    121 C         -0.8622  -19.3126  -52.2166 C.2       22 UNK         0.5000 
    122 N         -0.8172  -19.5078  -53.5306 N.am      22 UNK        -0.7600 
    123 O         -0.2204  -20.0373  -51.4651 O.2       22 UNK        -0.5000 
    124 C124       -1.0837  -16.7811  -51.7606 C.3       23 UNK        -0.0398 
    125 S125        0.2519  -16.5440  -50.5454 S.3       23 UNK        -0.2404 
    126 C126        1.7228  -16.7873  -51.5876 C.3       23 UNK        -0.0205 
    127 H127        0.5054  -11.8494  -50.8895 H         1 UNK         0.0600 
    128 H128        0.1151  -13.4349  -50.2212 H         1 UNK         0.0600 
    129 H129        1.1870  -13.3076  -51.6191 H         1 UNK         0.0600 
    130 H130        1.3517  -14.1095  -48.4972 H         1 UNK         0.3000 
    131 H131        4.1446  -13.3083  -48.1988 H         1 UNK         0.0600 
    132 H132        2.8664  -15.0136  -46.0782 H         1 UNK         0.0800 
    133 H133        2.8456  -15.7078  -47.6521 H         1 UNK         0.0800 
    134 H134        6.6594  -16.2034  -48.5194 H         1 UNK         0.0800 
    135 H135        5.6795  -14.8871  -49.1022 H         1 UNK         0.0800 
    136 H136        3.6092  -15.3146  -50.2858 H         1 UNK         0.1150 
    137 H137        2.3789  -19.3505  -51.0025 H         1 UNK         0.1150 
    138 H138        5.6664  -18.5501  -48.3662 H         1 UNK         0.1150 
    139 H139        3.9530  -21.1743  -50.3186 H         1 UNK         0.0800 
    140 H140        5.2519  -20.8375  -49.2045 H         1 UNK         0.0800 
    141 H141        1.5690  -21.2539  -49.8018 H         1 UNK         0.0800 
    142 H142        1.1241  -20.0353  -48.6263 H         1 UNK         0.0800 
    143 H143        1.0448  -23.0388  -48.0822 H         1 UNK         0.0600 
    144 H144        0.5612  -20.8343  -46.3399 H         1 UNK         0.3000 
    145 H145       -1.3383  -22.7408  -43.9355 H         1 UNK         0.0600 
    146 H146        0.4204  -21.7638  -42.4963 H         1 UNK         0.0600 
    147 H147        1.0898  -23.0636  -43.4701 H         1 UNK         0.0600 
    148 H148        1.4111  -21.3906  -43.9055 H         1 UNK         0.0600 
    149 H149       -0.6734  -19.9845  -43.9794 H         1 UNK         0.3000 
    150 H150       -3.5991  -18.8632  -45.7628 H         1 UNK         0.0600 
    151 H151       -4.2581  -19.1807  -43.3751 H         1 UNK         0.0600 
    152 H152       -3.7946  -17.5155  -43.6932 H         1 UNK         0.0600 
    153 H153       -2.6845  -18.5936  -42.8504 H         1 UNK         0.0600 
    154 H154       -1.4725  -17.3685  -44.6657 H         1 UNK         0.3000 
    155 H155        0.7173  -17.4208  -47.5118 H         1 UNK         0.0600 
    156 H156       -0.8774  -15.5866  -47.8443 H         1 UNK         0.0600 
    157 H157        0.4685  -14.9661  -46.8989 H         1 UNK         0.0600 
    158 H158       -1.0596  -15.3404  -46.1190 H         1 UNK         0.0600 
    159 H159        1.0237  -16.3402  -44.8868 H         1 UNK         0.3000 
    160 H160        2.4974  -19.1933  -43.3402 H         1 UNK         0.0600 
    161 H161        3.7280  -16.5447  -44.2624 H         1 UNK         0.0600 
    162 H162        4.3642  -18.1464  -44.5952 H         1 UNK         0.0600 
    163 H163        4.3125  -17.5523  -42.9416 H         1 UNK         0.0600 
    164 H164        1.8791  -16.4460  -42.6005 H         1 UNK         0.3000 
    165 H165       -1.3013  -17.2222  -41.1645 H         1 UNK         0.0600 
    166 H166       -0.2557  -16.3357  -39.0982 H         1 UNK         0.0600 
    167 H167        0.2939  -17.9774  -39.3937 H         1 UNK         0.0600 
    168 H168        1.3563  -16.6221  -39.7553 H         1 UNK         0.0600 
    169 H169        0.2872  -14.8531  -41.1274 H         1 UNK         0.3000 
    170 H170       -0.3842  -13.6387  -44.3415 H         1 UNK         0.0600 
    171 H171       -2.6040  -13.1087  -43.3160 H         1 UNK         0.0600 
    172 H172       -1.8096  -12.6689  -41.8081 H         1 UNK         0.0600 
    173 H173       -1.5257  -11.7229  -43.2696 H         1 UNK         0.0600 
    174 H174        0.6445  -12.2292  -42.1468 H         1 UNK         0.3000 
    175 H175        2.9217  -12.6973  -41.1695 H         1 UNK         0.0600 
    176 H176        5.2811  -12.8268  -41.9235 H         1 UNK         0.0600 
    177 H177        4.5069  -14.4021  -41.9855 H         1 UNK         0.0600 
    178 H178        4.7733  -13.5032  -43.4695 H         1 UNK         0.0600 
    179 H179        3.8002  -11.2082  -43.5359 H         1 UNK         0.3000 
    180 H180        1.3763   -8.8110  -43.4787 H         1 UNK         0.0600 
    181 H181        3.8548   -8.0762  -41.8412 H         1 UNK         0.0600 
    182 H182        2.1861   -7.8603  -41.3273 H         1 UNK         0.0600 
    183 H183        2.8014   -6.9456  -42.6920 H         1 UNK         0.0600 
    184 H184        4.1106   -8.4757  -44.2081 H         1 UNK         0.3000 
    185 H185        1.4438  -10.8658  -44.9080 H         1 UNK         0.0600 
    186 H186        0.4108   -8.7472  -45.7795 H         1 UNK         0.0600 
    187 H187        0.9599   -9.1585  -47.3987 H         1 UNK         0.0600 
    188 H188       -0.2241  -10.1762  -46.5776 H         1 UNK         0.0600 
    189 H189        1.5254  -11.6030  -47.5585 H         1 UNK         0.3000 
    190 H190       -1.6453  -20.6484  -47.9852 H         1 UNK         0.3000 
    191 H191       -3.0120  -21.6059  -50.2815 H         1 UNK         0.0600 
    192 H192       -4.1716  -20.3090  -47.7601 H         1 UNK         0.0600 
    193 H193       -4.9749  -20.4519  -49.3188 H         1 UNK         0.0600 
    194 H194       -3.5445  -19.4464  -49.1608 H         1 UNK         0.0600 
    195 H195       -3.2778  -22.5966  -46.8146 H         1 UNK         0.3000 
    196 H196       -5.2552  -24.5783  -47.1622 H         1 UNK         0.0600 
    197 H197       -4.4512  -25.4291  -44.9605 H         1 UNK         0.0600 
    198 H198       -4.6239  -23.6805  -44.9505 H         1 UNK         0.0600 
    199 H199       -3.0241  -24.4073  -45.0728 H         1 UNK         0.0600 
    200 H200       -1.6812  -24.8422  -47.3408 H         1 UNK         0.3000 
    201 H201       -1.5361  -27.6211  -47.9074 H         1 UNK         0.0600 
    202 H202        0.4102  -26.2608  -47.1684 H         1 UNK         0.0600 
    203 H203        0.3872  -25.3667  -48.6866 H         1 UNK         0.0600 
    204 H204        0.7648  -27.0837  -48.6804 H         1 UNK         0.0600 
    205 H205       -2.0635  -24.8225  -50.0423 H         1 UNK         0.3000 
    206 H206       -2.0541  -26.3320  -52.5222 H         1 UNK         0.0600 
    207 H207       -1.4189  -23.9292  -52.4388 H         1 UNK         0.0600 
    208 H208       -2.7936  -24.1947  -53.5005 H         1 UNK         0.0600 
    209 H209       -3.0410  -23.5015  -51.9037 H         1 UNK         0.0600 
    210 H210       -3.4820  -27.9126  -51.2327 H         1 UNK         0.3000 
    211 H211       -5.3325  -29.1278  -51.0938 H         1 UNK         0.0600 
    212 H212       -6.0285  -27.7128  -53.7163 H         1 UNK         0.0600 
    213 H213       -6.7097  -29.2382  -53.1656 H         1 UNK         0.0600 
    214 H214       -4.9995  -29.1300  -53.5438 H         1 UNK         0.0600 
    215 H215       -5.5511  -27.1317  -49.3188 H         1 UNK         0.3000 
    216 H216       -6.9119  -26.1299  -47.9059 H         1 UNK         0.0600 
    217 H217       -9.1982  -26.9871  -47.5909 H         1 UNK         0.0600 
    218 H218       -8.0921  -28.3179  -47.8889 H         1 UNK         0.0600 
    219 H219       -9.1728  -27.7637  -49.1668 H         1 UNK         0.0600 
    220 H220       -6.1588  -24.4394  -49.7076 H         1 UNK         0.3000 
    221 H221       -6.4410  -22.4533  -50.5441 H         1 UNK         0.0600 
    222 H222       -9.2014  -22.3358  -49.2404 H         1 UNK         0.0600 
    223 H223       -7.6772  -21.9401  -48.4440 H         1 UNK         0.0600 
    224 H224       -8.2374  -20.9774  -49.8004 H         1 UNK         0.0600 
    225 H225       -6.7809  -24.5234  -52.2924 H         1 UNK         0.3000 
    226 H226       -8.9019  -23.8344  -54.1953 H         1 UNK         0.0600 
    227 H227       -7.9167  -26.1441  -54.0796 H         1 UNK         0.0600 
    228 H228       -7.7419  -25.4171  -55.6706 H         1 UNK         0.0600 
    229 H229       -6.3577  -25.4918  -54.5917 H         1 UNK         0.0600 
    230 H230       -5.6396  -22.8613  -53.4087 H         1 UNK         0.3000 
    231 H231       -5.7137  -20.6895  -55.4554 H         1 UNK         0.0600 
    232 H232       -3.6901  -22.2196  -55.6878 H         1 UNK         0.0600 
    233 H233       -3.2558  -21.8511  -54.0188 H         1 UNK         0.0600 
    234 H234       -3.2624  -20.5784  -55.2305 H         1 UNK         0.0600 
    235 H235       -5.3587  -18.6070  -54.5817 H         1 UNK         0.3000 
    236 H236       -6.2804  -18.1723  -51.8937 H         1 UNK         0.0600 
    237 H237       -6.0232  -15.7725  -52.5259 H         1 UNK         0.0600 
    238 H238       -5.1550  -16.2320  -53.9854 H         1 UNK         0.0600 
    239 H239       -6.8533  -16.6678  -53.7872 H         1 UNK         0.0600 
    240 H240       -3.1413  -18.7430  -53.1320 H         1 UNK         0.3000 
    241 H241       -1.9008  -18.4010  -50.5900 H         1 UNK         0.0600 
    242 H242       -0.2416  -20.2565  -53.8821 H         1 UNK         0.3800 
    243 H243       -1.2632  -18.8846  -54.1834 H         1 UNK         0.3800 
    244 H244       -0.7224  -16.5912  -52.7725 H         1 UNK         0.0800 
    245 H245       -1.8169  -15.9991  -51.5611 H         1 UNK         0.0800 
    246 H246        1.9798  -15.8500  -52.0832 H         1 UNK         0.0800 
    247 H247        1.5164  -17.5112  -52.3771 H         1 UNK         0.0800 
@<TRIPOS>BOND
     1    1    2 1    
     2    1  127 1    
     3    1  128 1    
     4    1  129 1    
     5    2    3 2    
     6    2    4 am   BACKBONE|DICT|INTERRES
     7    4    5 1    
     8    4  130 1    
     9    5    6 1    
    10    5   65 1    
    11    5  131 1    
    12    6    7 1    
    13    6  132 1    
    14    6  133 1    
    15    7    8 1    
    16    8    9 1    
    17    8  134 1    
    18    8  135 1    
    19    9   10 ar   
    20    9   14 ar   
    21   10   11 ar   
    22   10  136 1    
    23   11   12 ar   
    24   11  126 1    
    25   12   13 ar   
    26   12  137 1    
    27   13   14 ar   
    28   13   15 1    
    29   14  138 1    
    30   15   16 1    
    31   15  139 1    
    32   15  140 1    
    33   16   17 1    
    34   17   18 1    
    35   17  141 1    
    36   17  142 1    
    37   18   19 1    
    38   18   67 1    
    39   18  143 1    
    40   19   20 am   BACKBONE|DICT|INTERRES
    41   19  144 1    
    42   20   21 2    
    43   20   22 1    
    44   22   23 1    
    45   22   24 1    
    46   22  145 1    
    47   23  146 1    
    48   23  147 1    
    49   23  148 1    
    50   24   25 am   BACKBONE|DICT|INTERRES
    51   24  149 1    
    52   25   26 2    
    53   25   27 1    
    54   27   28 1    
    55   27   29 1    
    56   27  150 1    
    57   28  151 1    
    58   28  152 1    
    59   28  153 1    
    60   29   30 am   BACKBONE|DICT|INTERRES
    61   29  154 1    
    62   30   31 2    
    63   30   32 1    
    64   32   33 1    
    65   32   34 1    
    66   32  155 1    
    67   33  156 1    
    68   33  157 1    
    69   33  158 1    
    70   34   35 am   BACKBONE|DICT|INTERRES
    71   34  159 1    
    72   35   36 2    
    73   35   37 1    
    74   37   38 1    
    75   37   39 1    
    76   37  160 1    
    77   38  161 1    
    78   38  162 1    
    79   38  163 1    
    80   39   40 am   BACKBONE|DICT|INTERRES
    81   39  164 1    
    82   40   41 2    
    83   40   42 1    
    84   42   43 1    
    85   42   44 1    
    86   42  165 1    
    87   43  166 1    
    88   43  167 1    
    89   43  168 1    
    90   44   45 am   BACKBONE|DICT|INTERRES
    91   44  169 1    
    92   45   46 2    
    93   45   47 1    
    94   47   48 1    
    95   47   49 1    
    96   47  170 1    
    97   48  171 1    
    98   48  172 1    
    99   48  173 1    
   100   49   50 am   BACKBONE|DICT|INTERRES
   101   49  174 1    
   102   50   51 2    
   103   50   52 1    
   104   52   53 1    
   105   52   54 1    
   106   52  175 1    
   107   53  176 1    
   108   53  177 1    
   109   53  178 1    
   110   54   55 am   BACKBONE|DICT|INTERRES
   111   54  179 1    
   112   55   56 2    
   113   55   57 1    
   114   57   58 1    
   115   57   59 1    
   116   57  180 1    
   117   58  181 1    
   118   58  182 1    
   119   58  183 1    
   120   59   60 am   BACKBONE|DICT|INTERRES
   121   59  184 1    
   122   60   61 2    
   123   60   62 1    
   124   62   63 1    
   125   62   64 1    
   126   62  185 1    
   127   63  186 1    
   128   63  187 1    
   129   63  188 1    
   130   64   65 am   BACKBONE|DICT|INTERRES
   131   64  189 1    
   132   65   66 2    
   133   67   68 2    
   134   67   69 am   BACKBONE|DICT|INTERRES
   135   69   70 1    
   136   69  190 1    
   137   70   71 1    
   138   70   72 1    
   139   70  191 1    
   140   71  192 1    
   141   71  193 1    
   142   71  194 1    
   143   72   73 2    
   144   72   74 am   BACKBONE|DICT|INTERRES
   145   74   75 1    
   146   74  195 1    
   147   75   76 1    
   148   75   77 1    
   149   75  196 1    
   150   76  197 1    
   151   76  198 1    
   152   76  199 1    
   153   77   78 2    
   154   77   79 am   BACKBONE|DICT|INTERRES
   155   79   80 1    
   156   79  200 1    
   157   80   81 1    
   158   80   82 1    
   159   80  201 1    
   160   81  202 1    
   161   81  203 1    
   162   81  204 1    
   163   82   83 2    
   164   82   84 am   BACKBONE|DICT|INTERRES
   165   84   85 1    
   166   84  205 1    
   167   85   86 1    
   168   85   87 1    
   169   85  206 1    
   170   86  207 1    
   171   86  208 1    
   172   86  209 1    
   173   87   88 2    
   174   87   89 am   BACKBONE|DICT|INTERRES
   175   89   90 1    
   176   89  210 1    
   177   90   91 1    
   178   90   92 1    
   179   90  211 1    
   180   91  212 1    
   181   91  213 1    
   182   91  214 1    
   183   92   93 2    
   184   92   94 am   BACKBONE|DICT|INTERRES
   185   94   95 1    
   186   94  215 1    
   187   95   96 1    
   188   95   97 1    
   189   95  216 1    
   190   96  217 1    
   191   96  218 1    
   192   96  219 1    
   193   97   98 2    
   194   97   99 am   BACKBONE|DICT|INTERRES
   195   99  100 1    
   196   99  220 1    
   197  100  101 1    
   198  100  102 1    
   199  100  221 1    
   200  101  222 1    
   201  101  223 1    
   202  101  224 1    
   203  102  103 2    
   204  102  104 am   BACKBONE|DICT|INTERRES
   205  104  105 1    
   206  104  225 1    
   207  105  106 1    
   208  105  107 1    
   209  105  226 1    
   210  106  227 1    
   211  106  228 1    
   212  106  229 1    
   213  107  108 2    
   214  107  109 am   BACKBONE|DICT|INTERRES
   215  109  110 1    
   216  109  230 1    
   217  110  111 1    
   218  110  112 1    
   219  110  231 1    
   220  111  232 1    
   221  111  233 1    
   222  111  234 1    
   223  112  113 2    
   224  112  114 am   BACKBONE|DICT|INTERRES
   225  114  115 1    
   226  114  235 1    
   227  115  116 1    
   228  115  117 1    
   229  115  236 1    
   230  116  237 1    
   231  116  238 1    
   232  116  239 1    
   233  117  118 2    
   234  117  119 am   BACKBONE|DICT|INTERRES
   235  119  120 1    
   236  119  240 1    
   237  120  121 1    
   238  120  124 1    
   239  120  241 1    
   240  121  122 am   BACKBONE|DICT|INTERRES
   241  121  123 2    
   242  122  242 1    
   243  122  243 1    
   244  124  125 1    
   245  124  244 1    
   246  124  245 1    
   247  125  126 1    
   248  126  246 1    
   249  126  247 1    
@<TRIPOS>SUBSTRUCTURE
     1 UNK         1 GROUP             0       ****    0 ROOT    
