@<TRIPOS>MOLECULE
3R540
247   249    1
SMALL
USER_CHARGES


@<TRIPOS>ATOM
      1 CA         -3.1112  -13.2339  -50.7143 C.3       0 UNK        -0.1800 
      2 C          -2.1067  -13.4733  -49.5967 C.2       0 UNK         0.5000 
      3 O          -1.6053  -12.5164  -49.0063 O.2       0 UNK        -0.5000 
      4 N          -1.8140  -14.7458  -49.2998 N.am      1 UNK        -0.5000 
      5 CA         -0.8877  -15.1573  -48.2364 C.3       1 UNK         0.1400 
      6 C6         -0.3407  -16.5921  -48.4402 C.3       23 UNK        -0.0398 
      7 S7         -1.6310  -17.8867  -48.4749 S.3       23 UNK        -0.2404 
      8 C8         -1.6940  -18.3037  -50.2399 C.3       23 UNK        -0.0205 
      9 C9         -0.7785  -19.4581  -50.6074 C.ar      23 UNK        -0.0193 
     10 C10        -1.3205  -20.7296  -50.8026 C.ar      23 UNK        -0.1150 
     11 C11        -0.5174  -21.7886  -51.2280 C.ar      23 UNK        -0.0193 
     12 C12         0.8454  -21.5714  -51.4477 C.ar      23 UNK        -0.1150 
     13 C13         1.4078  -20.3097  -51.2279 C.ar      23 UNK        -0.0193 
     14 C14         0.5878  -19.2547  -50.8168 C.ar      23 UNK        -0.1150 
     15 C15         2.8938  -20.0706  -51.4613 C.3       23 UNK        -0.0205 
     16 S16         3.9662  -21.1727  -50.4812 S.3       23 UNK        -0.2404 
     17 C17         3.5380  -20.7326  -48.7606 C.3       23 UNK        -0.0398 
     18 CA          3.2610  -21.9871  -47.8929 C.3       11 UNK         0.1400 
     19 N           3.5449  -21.7447  -46.4762 N.am      11 UNK        -0.5000 
     20 C           4.5287  -22.3312  -45.7786 C.2       10 UNK         0.5000 
     21 O           5.3710  -23.0793  -46.2762 O.2       10 UNK        -0.5000 
     22 CA          4.5818  -22.0558  -44.2603 C.3       10 UNK         0.1400 
     23 CB          5.5803  -20.9298  -43.9533 C.3       10 UNK        -0.1800 
     24 N           3.2826  -21.7036  -43.6877 N.am      10 UNK        -0.5000 
     25 C           2.2113  -22.5093  -43.6489 C.2       9 UNK         0.5000 
     26 O           2.2402  -23.6951  -43.9781 O.2       9 UNK        -0.5000 
     27 CA          0.8719  -21.8864  -43.2052 C.3       9 UNK         0.1400 
     28 CB          0.4952  -22.3706  -41.7972 C.3       9 UNK        -0.1800 
     29 N           0.8284  -20.4202  -43.2212 N.am      9 UNK        -0.5000 
     30 C           1.0423  -19.6157  -44.2740 C.2       8 UNK         0.5000 
     31 O           1.3798  -20.0162  -45.3887 O.2       8 UNK        -0.5000 
     32 CA          0.8979  -18.1052  -44.0193 C.3       8 UNK         0.1400 
     33 CB         -0.5550  -17.6769  -44.2721 C.3       8 UNK        -0.1800 
     34 N           1.2993  -17.7196  -42.6616 N.am      8 UNK        -0.5000 
     35 C           2.5461  -17.8474  -42.1755 C.2       7 UNK         0.5000 
     36 O           3.4875  -18.2785  -42.8424 O.2       7 UNK        -0.5000 
     37 CA          2.7958  -17.4669  -40.7022 C.3       7 UNK         0.1400 
     38 CB          3.6578  -16.2000  -40.5939 C.3       7 UNK        -0.1800 
     39 N           1.5654  -17.2867  -39.9301 N.am      7 UNK        -0.5000 
     40 C           0.8130  -18.2968  -39.4691 C.2       6 UNK         0.5000 
     41 O           1.0923  -19.4835  -39.6415 O.2       6 UNK        -0.5000 
     42 CA         -0.4812  -17.9300  -38.7147 C.3       6 UNK         0.1400 
     43 CB         -0.2385  -17.9387  -37.1980 C.3       6 UNK        -0.1800 
     44 N          -1.0522  -16.6361  -39.0985 N.am      6 UNK        -0.5000 
     45 C          -1.4944  -16.3249  -40.3241 C.2       5 UNK         0.5000 
     46 O          -1.4547  -17.1075  -41.2737 O.2       5 UNK        -0.5000 
     47 CA         -2.0449  -14.9022  -40.5502 C.3       5 UNK         0.1400 
     48 CB         -2.1209  -14.0341  -39.2738 C.3       5 UNK        -0.1800 
     49 N          -1.3009  -14.2036  -41.6007 N.am      5 UNK        -0.5000 
     50 C           0.0162  -13.9420  -41.6262 C.2       4 UNK         0.5000 
     51 O           0.7887  -14.2708  -40.7247 O.2       4 UNK        -0.5000 
     52 CA          0.5785  -13.1975  -42.8572 C.3       4 UNK         0.1400 
     53 CB          1.5681  -14.0863  -43.6281 C.3       4 UNK        -0.1800 
     54 N          -0.4623  -12.7391  -43.7803 N.am      4 UNK        -0.5000 
     55 C          -1.2108  -11.6389  -43.6058 C.2       3 UNK         0.5000 
     56 O          -1.0410  -10.8432  -42.6815 O.2       3 UNK        -0.5000 
     57 CA         -2.3620  -11.3939  -44.6068 C.3       3 UNK         0.1400 
     58 CB         -1.9336  -10.3829  -45.6810 C.3       3 UNK        -0.1800 
     59 N          -2.8406  -12.6092  -45.2694 N.am      3 UNK        -0.5000 
     60 C          -3.3798  -13.6715  -44.6543 C.2       2 UNK         0.5000 
     61 O          -3.6271  -13.7040  -43.4488 O.2       2 UNK        -0.5000 
     62 CA         -3.6262  -14.9319  -45.5083 C.3       2 UNK         0.1400 
     63 CB         -5.1137  -15.0655  -45.8653 C.3       2 UNK        -0.1800 
     64 N          -2.8366  -15.0078  -46.7415 N.am      2 UNK        -0.5000 
     65 C          -1.4975  -14.9799  -46.8319 C.2       1 UNK         0.5000 
     66 O          -0.7514  -14.7971  -45.8709 O.2       1 UNK        -0.5000 
     67 C           1.8247  -22.5184  -48.0705 C.2       11 UNK         0.5000 
     68 O           1.6133  -23.4337  -48.8676 O.2       11 UNK        -0.5000 
     69 N           0.8668  -21.9851  -47.2972 N.am      12 UNK        -0.5000 
     70 CA         -0.5647  -22.2956  -47.3422 C.3       12 UNK         0.1400 
     71 CB         -1.3359  -21.1521  -46.6617 C.3       12 UNK        -0.1800 
     72 C          -0.9295  -23.6701  -46.7411 C.2       12 UNK         0.5000 
     73 O          -1.8929  -23.7751  -45.9807 O.2       12 UNK        -0.5000 
     74 N          -0.1840  -24.7175  -47.1112 N.am      13 UNK        -0.5000 
     75 CA         -0.4164  -26.1067  -46.7056 C.3       13 UNK         0.1400 
     76 CB          0.7758  -26.9639  -47.1548 C.3       13 UNK        -0.1800 
     77 C          -1.7390  -26.6780  -47.2562 C.2       13 UNK         0.5000 
     78 O          -2.3504  -27.5323  -46.6144 O.2       13 UNK        -0.5000 
     79 N          -2.1664  -26.1638  -48.4167 N.am      14 UNK        -0.5000 
     80 CA         -3.4473  -26.4551  -49.0618 C.3       14 UNK         0.1400 
     81 CB         -3.2069  -26.5892  -50.5758 C.3       14 UNK        -0.1800 
     82 C          -4.5144  -25.3793  -48.7598 C.2       14 UNK         0.5000 
     83 O          -5.5640  -25.3861  -49.4040 O.2       14 UNK        -0.5000 
     84 N          -4.2337  -24.4731  -47.8077 N.am      15 UNK        -0.5000 
     85 CA         -5.0158  -23.2897  -47.4391 C.3       15 UNK         0.1400 
     86 CB         -6.3810  -23.6809  -46.8296 C.3       15 UNK        -0.1800 
     87 C          -5.1050  -22.3007  -48.6177 C.2       15 UNK         0.5000 
     88 O          -4.1265  -21.6047  -48.8850 O.2       15 UNK        -0.5000 
     89 N          -6.2598  -22.2550  -49.2948 N.am      16 UNK        -0.5000 
     90 CA         -6.5858  -21.5123  -50.5209 C.3       16 UNK         0.1400 
     91 CB         -5.6524  -21.9179  -51.6760 C.3       16 UNK        -0.1800 
     92 C          -6.6509  -19.9767  -50.3864 C.2       16 UNK         0.5000 
     93 O          -7.4630  -19.3597  -51.0767 O.2       16 UNK        -0.5000 
     94 N          -5.8133  -19.3849  -49.5238 N.am      17 UNK        -0.5000 
     95 CA         -5.6585  -17.9579  -49.1974 C.3       17 UNK         0.1400 
     96 CB         -6.9609  -17.3550  -48.6391 C.3       17 UNK        -0.1800 
     97 C          -5.0882  -17.0930  -50.3399 C.2       17 UNK         0.5000 
     98 O          -4.2167  -16.2620  -50.0828 O.2       17 UNK        -0.5000 
     99 N          -5.5405  -17.3238  -51.5760 N.am      18 UNK        -0.5000 
    100 CA        -4.9428  -16.8015  -52.7995 C.3       18 UNK         0.1400 
    101 CB        -6.0197  -16.7191  -53.8922 C.3       18 UNK        -0.1800 
    102 C         -3.8027  -17.7345  -53.2356 C.2       18 UNK         0.5000 
    103 O         -4.0198  -18.9423  -53.3460 O.2       18 UNK        -0.5000 
    104 N         -2.6154  -17.1688  -53.4874 N.am      19 UNK        -0.5000 
    105 CA        -1.4219  -17.9235  -53.8853 C.3       19 UNK         0.1400 
    106 CB        -0.1802  -17.0322  -53.7311 C.3       19 UNK        -0.1800 
    107 C         -1.5089  -18.4940  -55.3113 C.2       19 UNK         0.5000 
    108 O         -0.9391  -19.5522  -55.5765 O.2       19 UNK        -0.5000 
    109 N         -2.2429  -17.8010  -56.1944 N.am      20 UNK        -0.5000 
    110 CA        -2.4613  -18.1843  -57.5916 C.3       20 UNK         0.1400 
    111 CB        -3.2162  -17.0560  -58.3103 C.3       20 UNK        -0.1800 
    112 C         -3.2101  -19.5210  -57.7510 C.2       20 UNK         0.5000 
    113 O         -2.9446  -20.2565  -58.7025 O.2       20 UNK        -0.5000 
    114 N         -4.0966  -19.8337  -56.7952 N.am      21 UNK        -0.5000 
    115 CA        -4.8535  -21.0856  -56.7318 C.3       21 UNK         0.1400 
    116 CB        -5.9458  -20.9489  -55.6623 C.3       21 UNK        -0.1800 
    117 C         -3.9729  -22.3236  -56.4631 C.2       21 UNK         0.5000 
    118 O         -4.3621  -23.4307  -56.8371 O.2       21 UNK        -0.5000 
    119 N         -2.8010  -22.1122  -55.8519 N.am      22 UNK        -0.5000 
    120 CA        -1.7613  -23.1292  -55.6329 C.3       22 UNK         0.1400 
    121 C         -0.7186  -23.2020  -56.7891 C.2       22 UNK         0.5000 
    122 N         -0.8493  -22.4388  -57.8693 N.am      22 UNK        -0.7600 
    123 O          0.2227  -23.9875  -56.7192 O.2       22 UNK        -0.5000 
    124 C124       -1.0780  -22.9521  -54.2519 C.3       23 UNK        -0.0398 
    125 S125       -2.2497  -23.1966  -52.8745 S.3       23 UNK        -0.2404 
    126 C126       -1.1300  -23.1636  -51.4400 C.3       23 UNK        -0.0205 
    127 H127       -2.8190  -12.3682  -51.3087 H         1 UNK         0.0600 
    128 H128       -4.1003  -13.0470  -50.2965 H         1 UNK         0.0600 
    129 H129       -3.1759  -14.0928  -51.3819 H         1 UNK         0.0600 
    130 H130       -2.3440  -15.4877  -49.7459 H         1 UNK         0.3000 
    131 H131       -0.0260  -14.4873  -48.2774 H         1 UNK         0.0600 
    132 H132        0.2376  -16.6217  -49.3623 H         1 UNK         0.0800 
    133 H133        0.3679  -16.8436  -47.6488 H         1 UNK         0.0800 
    134 H134       -1.4656  -17.4263  -50.8441 H         1 UNK         0.0800 
    135 H135       -2.7185  -18.5791  -50.4856 H         1 UNK         0.0800 
    136 H136       -2.3774  -20.8939  -50.6487 H         1 UNK         0.1150 
    137 H137        1.4748  -22.3879  -51.7725 H         1 UNK         0.1150 
    138 H138        1.0123  -18.2720  -50.6784 H         1 UNK         0.1150 
    139 H139        3.1086  -20.2233  -52.5196 H         1 UNK         0.0800 
    140 H140        3.1618  -19.0361  -51.2410 H         1 UNK         0.0800 
    141 H141        2.7028  -20.0306  -48.7287 H         1 UNK         0.0800 
    142 H142        4.3943  -20.1880  -48.3604 H         1 UNK         0.0800 
    143 H143        3.9147  -22.7875  -48.2462 H         1 UNK         0.0600 
    144 H144        2.8973  -21.1393  -45.9828 H         1 UNK         0.3000 
    145 H145        4.9288  -22.9679  -43.7707 H         1 UNK         0.0600 
    146 H146        5.6767  -20.7689  -42.8793 H         1 UNK         0.0600 
    147 H147        6.5727  -21.1711  -44.3363 H         1 UNK         0.0600 
    148 H148        5.2728  -19.9863  -44.4063 H         1 UNK         0.0600 
    149 H149        3.1666  -20.7415  -43.3991 H         1 UNK         0.3000 
    150 H150        0.1121  -22.2441  -43.9020 H         1 UNK         0.0600 
    151 H151        0.4743  -23.4602  -41.7482 H         1 UNK         0.0600 
    152 H152       -0.4942  -22.0154  -41.5082 H         1 UNK         0.0600 
    153 H153        1.2085  -22.0211  -41.0495 H         1 UNK         0.0600 
    154 H154        0.5961  -19.9802  -42.3417 H         1 UNK         0.3000 
    155 H155        1.5428  -17.5766  -44.7242 H         1 UNK         0.0600 
    156 H156       -0.7164  -16.6328  -44.0068 H         1 UNK         0.0600 
    157 H157       -1.2595  -18.2748  -43.6928 H         1 UNK         0.0600 
    158 H158       -0.8176  -17.7941  -45.3242 H         1 UNK         0.0600 
    159 H159        0.5629  -17.3856  -42.0510 H         1 UNK         0.3000 
    160 H160        3.3632  -18.2868  -40.2567 H         1 UNK         0.0600 
    161 H161        3.1594  -15.3315  -41.0206 H         1 UNK         0.0600 
    162 H162        4.6045  -16.3248  -41.1210 H         1 UNK         0.0600 
    163 H163        3.8939  -15.9723  -39.5544 H         1 UNK         0.0600 
    164 H164        1.2503  -16.3337  -39.7942 H         1 UNK         0.3000 
    165 H165       -1.2203  -18.6996  -38.9468 H         1 UNK         0.0600 
    166 H166       -1.1651  -17.7715  -36.6484 H         1 UNK         0.0600 
    167 H167        0.1619  -18.8995  -36.8716 H         1 UNK         0.0600 
    168 H168        0.4737  -17.1680  -36.9004 H         1 UNK         0.0600 
    169 H169       -1.0950  -15.9296  -38.3786 H         1 UNK         0.3000 
    170 H170       -3.0616  -15.0275  -40.9251 H         1 UNK         0.0600 
    171 H171       -2.7499  -14.5013  -38.5150 H         1 UNK         0.0600 
    172 H172       -1.1392  -13.8559  -38.8336 H         1 UNK         0.0600 
    173 H173       -2.5607  -13.0614  -39.4951 H         1 UNK         0.0600 
    174 H174       -1.8617  -13.9168  -42.3945 H         1 UNK         0.3000 
    175 H175        1.1265  -12.3283  -42.4879 H         1 UNK         0.0600 
    176 H176        1.1053  -15.0173  -43.9532 H         1 UNK         0.0600 
    177 H177        1.9514  -13.5771  -44.5124 H         1 UNK         0.0600 
    178 H178        2.4264  -14.3471  -43.0098 H         1 UNK         0.0600 
    179 H179       -0.6596  -13.3540  -44.5656 H         1 UNK         0.3000 
    180 H180       -3.1973  -10.9691  -44.0465 H         1 UNK         0.0600 
    181 H181       -2.7635  -10.1344  -46.3428 H         1 UNK         0.0600 
    182 H182       -1.1198  -10.7710  -46.2953 H         1 UNK         0.0600 
    183 H183       -1.5898   -9.4518  -45.2285 H         1 UNK         0.0600 
    184 H184       -2.6561  -12.6817  -46.2599 H         1 UNK         0.3000 
    185 H185       -3.3447  -15.7892  -44.8932 H         1 UNK         0.0600 
    186 H186       -5.4392  -14.2703  -46.5371 H         1 UNK         0.0600 
    187 H187       -5.3154  -16.0208  -46.3494 H         1 UNK         0.0600 
    188 H188       -5.7382  -15.0187  -44.9721 H         1 UNK         0.0600 
    189 H189       -3.3542  -15.1524  -47.5970 H         1 UNK         0.3000 
    190 H190        1.1159  -21.2438  -46.6468 H         1 UNK         0.3000 
    191 H191       -0.8683  -22.3170  -48.3893 H         1 UNK         0.0600 
    192 H192       -2.4036  -21.2190  -46.8682 H         1 UNK         0.0600 
    193 H193       -0.9949  -20.1841  -47.0205 H         1 UNK         0.0600 
    194 H194       -1.2118  -21.1631  -45.5794 H         1 UNK         0.0600 
    195 H195        0.5818  -24.5401  -47.7564 H         1 UNK         0.3000 
    196 H196       -0.4703  -26.1355  -45.6154 H         1 UNK         0.0600 
    197 H197        0.8955  -26.9504  -48.2388 H         1 UNK         0.0600 
    198 H198        1.7055  -26.6079  -46.7103 H         1 UNK         0.0600 
    199 H199        0.6470  -28.0034  -46.8502 H         1 UNK         0.0600 
    200 H200       -1.5858  -25.4717  -48.8664 H         1 UNK         0.3000 
    201 H201       -3.8395  -27.4067  -48.6977 H         1 UNK         0.0600 
    202 H202       -2.8731  -25.6495  -51.0157 H         1 UNK         0.0600 
    203 H203       -4.1186  -26.8873  -51.0949 H         1 UNK         0.0600 
    204 H204       -2.4530  -27.3468  -50.7902 H         1 UNK         0.0600 
    205 H205       -3.3502  -24.5558  -47.3199 H         1 UNK         0.3000 
    206 H206       -4.4498  -22.7802  -46.6580 H         1 UNK         0.0600 
    207 H207       -6.2436  -24.2953  -45.9398 H         1 UNK         0.0600 
    208 H208       -6.9391  -22.7952  -46.5237 H         1 UNK         0.0600 
    209 H209       -7.0080  -24.2438  -47.5209 H         1 UNK         0.0600 
    210 H210       -6.9934  -22.8699  -48.9714 H         1 UNK         0.3000 
    211 H211       -7.5917  -21.8375  -50.7906 H         1 UNK         0.0600 
    212 H212       -6.0138  -21.5095  -52.6182 H         1 UNK         0.0600 
    213 H213       -5.6024  -23.0011  -51.7880 H         1 UNK         0.0600 
    214 H214       -4.6369  -21.5475  -51.5314 H         1 UNK         0.0600 
    215 H215       -5.1342  -20.0028  -49.0869 H         1 UNK         0.3000 
    216 H216       -4.9188  -17.9267  -48.3956 H         1 UNK         0.0600 
    217 H217       -6.8074  -16.3219  -48.3255 H         1 UNK         0.0600 
    218 H218       -7.7612  -17.3500  -49.3792 H         1 UNK         0.0600 
    219 H219       -7.3106  -17.9108  -47.7692 H         1 UNK         0.0600 
    220 H220       -6.2441  -18.0486  -51.6845 H         1 UNK         0.3000 
    221 H221       -4.5524  -15.7978  -52.6208 H         1 UNK         0.0600 
    222 H222       -6.8307  -16.0542  -53.5946 H         1 UNK         0.0600 
    223 H223       -6.4523  -17.6973  -54.1079 H         1 UNK         0.0600 
    224 H224       -5.6042  -16.3303  -54.8227 H         1 UNK         0.0600 
    225 H225       -2.5076  -16.1699  -53.3867 H         1 UNK         0.3000 
    226 H226       -1.3155  -18.7760  -53.2131 H         1 UNK         0.0600 
    227 H227       -0.2257  -16.1604  -54.3848 H         1 UNK         0.0600 
    228 H228       -0.0687  -16.6782  -52.7064 H         1 UNK         0.0600 
    229 H229        0.7270  -17.5841  -53.9809 H         1 UNK         0.0600 
    230 H230       -2.6754  -16.9429  -55.8866 H         1 UNK         0.3000 
    231 H231       -1.4829  -18.2978  -58.0631 H         1 UNK         0.0600 
    232 H232       -4.1943  -16.8763  -57.8621 H         1 UNK         0.0600 
    233 H233       -3.3766  -17.3011  -59.3612 H         1 UNK         0.0600 
    234 H234       -2.6546  -16.1222  -58.2784 H         1 UNK         0.0600 
    235 H235       -4.2212  -19.1932  -56.0243 H         1 UNK         0.3000 
    236 H236       -5.3396  -21.2361  -57.6980 H         1 UNK         0.0600 
    237 H237       -6.5247  -21.8686  -55.5681 H         1 UNK         0.0600 
    238 H238       -5.5144  -20.7279  -54.6872 H         1 UNK         0.0600 
    239 H239       -6.6429  -20.1480  -55.9088 H         1 UNK         0.0600 
    240 H240       -2.5419  -21.1663  -55.6044 H         1 UNK         0.3000 
    241 H241       -2.2347  -24.1127  -55.6257 H         1 UNK         0.0600 
    242 H242       -0.1662  -22.5105  -58.6066 H         1 UNK         0.3800 
    243 H243       -1.6217  -21.7930  -57.9670 H         1 UNK         0.3800 
    244 H244       -0.6313  -21.9598  -54.1701 H         1 UNK         0.0800 
    245 H245       -0.2655  -23.6696  -54.1261 H         1 UNK         0.0800 
    246 H246       -0.3562  -23.9237  -51.5585 H         1 UNK         0.0800 
    247 H247       -1.6971  -23.4368  -50.5494 H         1 UNK         0.0800 
@<TRIPOS>BOND
     1    1    2 1    
     2    1  127 1    
     3    1  128 1    
     4    1  129 1    
     5    2    3 2    
     6    2    4 am   BACKBONE|DICT|INTERRES
     7    4    5 1    
     8    4  130 1    
     9    5    6 1    
    10    5   65 1    
    11    5  131 1    
    12    6    7 1    
    13    6  132 1    
    14    6  133 1    
    15    7    8 1    
    16    8    9 1    
    17    8  134 1    
    18    8  135 1    
    19    9   10 ar   
    20    9   14 ar   
    21   10   11 ar   
    22   10  136 1    
    23   11   12 ar   
    24   11  126 1    
    25   12   13 ar   
    26   12  137 1    
    27   13   14 ar   
    28   13   15 1    
    29   14  138 1    
    30   15   16 1    
    31   15  139 1    
    32   15  140 1    
    33   16   17 1    
    34   17   18 1    
    35   17  141 1    
    36   17  142 1    
    37   18   19 1    
    38   18   67 1    
    39   18  143 1    
    40   19   20 am   BACKBONE|DICT|INTERRES
    41   19  144 1    
    42   20   21 2    
    43   20   22 1    
    44   22   23 1    
    45   22   24 1    
    46   22  145 1    
    47   23  146 1    
    48   23  147 1    
    49   23  148 1    
    50   24   25 am   BACKBONE|DICT|INTERRES
    51   24  149 1    
    52   25   26 2    
    53   25   27 1    
    54   27   28 1    
    55   27   29 1    
    56   27  150 1    
    57   28  151 1    
    58   28  152 1    
    59   28  153 1    
    60   29   30 am   BACKBONE|DICT|INTERRES
    61   29  154 1    
    62   30   31 2    
    63   30   32 1    
    64   32   33 1    
    65   32   34 1    
    66   32  155 1    
    67   33  156 1    
    68   33  157 1    
    69   33  158 1    
    70   34   35 am   BACKBONE|DICT|INTERRES
    71   34  159 1    
    72   35   36 2    
    73   35   37 1    
    74   37   38 1    
    75   37   39 1    
    76   37  160 1    
    77   38  161 1    
    78   38  162 1    
    79   38  163 1    
    80   39   40 am   BACKBONE|DICT|INTERRES
    81   39  164 1    
    82   40   41 2    
    83   40   42 1    
    84   42   43 1    
    85   42   44 1    
    86   42  165 1    
    87   43  166 1    
    88   43  167 1    
    89   43  168 1    
    90   44   45 am   BACKBONE|DICT|INTERRES
    91   44  169 1    
    92   45   46 2    
    93   45   47 1    
    94   47   48 1    
    95   47   49 1    
    96   47  170 1    
    97   48  171 1    
    98   48  172 1    
    99   48  173 1    
   100   49   50 am   BACKBONE|DICT|INTERRES
   101   49  174 1    
   102   50   51 2    
   103   50   52 1    
   104   52   53 1    
   105   52   54 1    
   106   52  175 1    
   107   53  176 1    
   108   53  177 1    
   109   53  178 1    
   110   54   55 am   BACKBONE|DICT|INTERRES
   111   54  179 1    
   112   55   56 2    
   113   55   57 1    
   114   57   58 1    
   115   57   59 1    
   116   57  180 1    
   117   58  181 1    
   118   58  182 1    
   119   58  183 1    
   120   59   60 am   BACKBONE|DICT|INTERRES
   121   59  184 1    
   122   60   61 2    
   123   60   62 1    
   124   62   63 1    
   125   62   64 1    
   126   62  185 1    
   127   63  186 1    
   128   63  187 1    
   129   63  188 1    
   130   64   65 am   BACKBONE|DICT|INTERRES
   131   64  189 1    
   132   65   66 2    
   133   67   68 2    
   134   67   69 am   BACKBONE|DICT|INTERRES
   135   69   70 1    
   136   69  190 1    
   137   70   71 1    
   138   70   72 1    
   139   70  191 1    
   140   71  192 1    
   141   71  193 1    
   142   71  194 1    
   143   72   73 2    
   144   72   74 am   BACKBONE|DICT|INTERRES
   145   74   75 1    
   146   74  195 1    
   147   75   76 1    
   148   75   77 1    
   149   75  196 1    
   150   76  197 1    
   151   76  198 1    
   152   76  199 1    
   153   77   78 2    
   154   77   79 am   BACKBONE|DICT|INTERRES
   155   79   80 1    
   156   79  200 1    
   157   80   81 1    
   158   80   82 1    
   159   80  201 1    
   160   81  202 1    
   161   81  203 1    
   162   81  204 1    
   163   82   83 2    
   164   82   84 am   BACKBONE|DICT|INTERRES
   165   84   85 1    
   166   84  205 1    
   167   85   86 1    
   168   85   87 1    
   169   85  206 1    
   170   86  207 1    
   171   86  208 1    
   172   86  209 1    
   173   87   88 2    
   174   87   89 am   BACKBONE|DICT|INTERRES
   175   89   90 1    
   176   89  210 1    
   177   90   91 1    
   178   90   92 1    
   179   90  211 1    
   180   91  212 1    
   181   91  213 1    
   182   91  214 1    
   183   92   93 2    
   184   92   94 am   BACKBONE|DICT|INTERRES
   185   94   95 1    
   186   94  215 1    
   187   95   96 1    
   188   95   97 1    
   189   95  216 1    
   190   96  217 1    
   191   96  218 1    
   192   96  219 1    
   193   97   98 2    
   194   97   99 am   BACKBONE|DICT|INTERRES
   195   99  100 1    
   196   99  220 1    
   197  100  101 1    
   198  100  102 1    
   199  100  221 1    
   200  101  222 1    
   201  101  223 1    
   202  101  224 1    
   203  102  103 2    
   204  102  104 am   BACKBONE|DICT|INTERRES
   205  104  105 1    
   206  104  225 1    
   207  105  106 1    
   208  105  107 1    
   209  105  226 1    
   210  106  227 1    
   211  106  228 1    
   212  106  229 1    
   213  107  108 2    
   214  107  109 am   BACKBONE|DICT|INTERRES
   215  109  110 1    
   216  109  230 1    
   217  110  111 1    
   218  110  112 1    
   219  110  231 1    
   220  111  232 1    
   221  111  233 1    
   222  111  234 1    
   223  112  113 2    
   224  112  114 am   BACKBONE|DICT|INTERRES
   225  114  115 1    
   226  114  235 1    
   227  115  116 1    
   228  115  117 1    
   229  115  236 1    
   230  116  237 1    
   231  116  238 1    
   232  116  239 1    
   233  117  118 2    
   234  117  119 am   BACKBONE|DICT|INTERRES
   235  119  120 1    
   236  119  240 1    
   237  120  121 1    
   238  120  124 1    
   239  120  241 1    
   240  121  122 am   BACKBONE|DICT|INTERRES
   241  121  123 2    
   242  122  242 1    
   243  122  243 1    
   244  124  125 1    
   245  124  244 1    
   246  124  245 1    
   247  125  126 1    
   248  126  246 1    
   249  126  247 1    
@<TRIPOS>SUBSTRUCTURE
     1 UNK         1 GROUP             0       ****    0 ROOT    
