@<TRIPOS>MOLECULE
3R540
247   249    1
SMALL
USER_CHARGES


@<TRIPOS>ATOM
      1 CA          2.4899  -10.5081  -48.5371 C.3       0 UNK        -0.1800 
      2 C           1.9049  -11.3924  -47.4467 C.2       0 UNK         0.5000 
      3 O           2.4555  -11.4519  -46.3471 O.2       0 UNK        -0.5000 
      4 N           0.7807  -12.0627  -47.7347 N.am      1 UNK        -0.5000 
      5 CA          0.0959  -13.0109  -46.8426 C.3       1 UNK         0.1400 
      6 C6         -1.0892  -13.7194  -47.5459 C.3       23 UNK        -0.0398 
      7 S7         -0.5513  -14.7708  -48.9390 S.3       23 UNK        -0.2404 
      8 C8         -1.3213  -16.3609  -48.4923 C.3       23 UNK        -0.0205 
      9 C9         -0.8593  -17.4957  -49.3946 C.ar      23 UNK        -0.0193 
     10 C10        -1.7564  -18.1107  -50.2717 C.ar      23 UNK        -0.1150 
     11 C11        -1.3496  -19.1845  -51.0697 C.ar      23 UNK        -0.0193 
     12 C12        -0.0280  -19.6348  -50.9944 C.ar      23 UNK        -0.1150 
     13 C13         0.8783  -19.0329  -50.1157 C.ar      23 UNK        -0.0193 
     14 C14         0.4552  -17.9647  -49.3186 C.ar      23 UNK        -0.1150 
     15 C15         2.3167  -19.5282  -50.0317 C.3       23 UNK        -0.0205 
     16 S16         2.4613  -21.1962  -49.3068 S.3       23 UNK        -0.2404 
     17 C17         1.8859  -20.9326  -47.5935 C.3       23 UNK        -0.0398 
     18 CA          0.9351  -22.0494  -47.0987 C.3       11 UNK         0.1400 
     19 N           0.7685  -22.0240  -45.6430 N.am      11 UNK        -0.5000 
     20 C           0.0930  -22.9371  -44.9284 C.2       10 UNK         0.5000 
     21 O          -0.4017  -23.9581  -45.4058 O.2       10 UNK        -0.5000 
     22 CA         -0.1220  -22.6211  -43.4386 C.3       10 UNK         0.1400 
     23 CB          1.1018  -23.0201  -42.6005 C.3       10 UNK        -0.1800 
     24 N          -0.4314  -21.2063  -43.2307 N.am      10 UNK        -0.5000 
     25 C          -1.5814  -20.6278  -43.6071 C.2       9 UNK         0.5000 
     26 O          -2.5239  -21.2440  -44.1059 O.2       9 UNK        -0.5000 
     27 CA         -1.6737  -19.0995  -43.4395 C.3       9 UNK         0.1400 
     28 CB         -2.1236  -18.7393  -42.0167 C.3       9 UNK        -0.1800 
     29 N          -0.4104  -18.4238  -43.7534 N.am      9 UNK        -0.5000 
     30 C           0.1096  -18.3757  -44.9895 C.2       8 UNK         0.5000 
     31 O          -0.4557  -18.8421  -45.9753 O.2       8 UNK        -0.5000 
     32 CA          1.5075  -17.7616  -45.1712 C.3       8 UNK         0.1400 
     33 CB          1.4219  -16.2794  -45.5470 C.3       8 UNK        -0.1800 
     34 N           2.3822  -17.9272  -44.0147 N.am      8 UNK        -0.5000 
     35 C           2.8574  -19.1044  -43.5877 C.2       7 UNK         0.5000 
     36 O           2.5236  -20.1849  -44.0760 O.2       7 UNK        -0.5000 
     37 CA          3.8650  -19.0683  -42.4281 C.3       7 UNK         0.1400 
     38 CB          5.2779  -18.7883  -42.9624 C.3       7 UNK        -0.1800 
     39 N           3.5090  -18.0338  -41.4576 N.am      7 UNK        -0.5000 
     40 C           2.9983  -18.2685  -40.2422 C.2       6 UNK         0.5000 
     41 O           2.8481  -19.3945  -39.7662 O.2       6 UNK        -0.5000 
     42 CA          2.5622  -17.0392  -39.4168 C.3       6 UNK         0.1400 
     43 CB          3.7065  -16.5735  -38.5038 C.3       6 UNK        -0.1800 
     44 N           2.1036  -15.9033  -40.2222 N.am      6 UNK        -0.5000 
     45 C           1.0690  -15.9314  -41.0734 C.2       5 UNK         0.5000 
     46 O           0.3815  -16.9300  -41.2824 O.2       5 UNK        -0.5000 
     47 CA          0.7752  -14.6454  -41.8660 C.3       5 UNK         0.1400 
     48 CB         -0.1409  -13.7177  -41.0539 C.3       5 UNK        -0.1800 
     49 N           1.9399  -13.8780  -42.3259 N.am      5 UNK        -0.5000 
     50 C           3.0679  -14.3315  -42.8935 C.2       4 UNK         0.5000 
     51 O           3.3625  -15.5254  -42.9697 O.2       4 UNK        -0.5000 
     52 CA          4.0240  -13.2837  -43.5002 C.3       4 UNK         0.1400 
     53 CB          4.5779  -13.7505  -44.8578 C.3       4 UNK        -0.1800 
     54 N           3.3947  -11.9750  -43.6893 N.am      4 UNK        -0.5000 
     55 C           3.3658  -10.9872  -42.7865 C.2       3 UNK         0.5000 
     56 O           3.8353  -11.0824  -41.6527 O.2       3 UNK        -0.5000 
     57 CA          2.6708   -9.6873  -43.2193 C.3       3 UNK         0.1400 
     58 CB          3.5984   -8.8497  -44.1138 C.3       3 UNK        -0.1800 
     59 N           1.4272   -9.9615  -43.9396 N.am      3 UNK        -0.5000 
     60 C           0.2211  -10.0592  -43.3639 C.2       2 UNK         0.5000 
     61 O           0.0323   -9.9436  -42.1528 O.2       2 UNK        -0.5000 
     62 CA         -0.9824  -10.3184  -44.2922 C.3       2 UNK         0.1400 
     63 CB         -1.6302   -8.9897  -44.7109 C.3       2 UNK        -0.1800 
     64 N          -0.6258  -11.0726  -45.4945 N.am      2 UNK        -0.5000 
     65 C          -0.3714  -12.3881  -45.5087 C.2       1 UNK         0.5000 
     66 O          -0.4784  -13.1084  -44.5181 O.2       1 UNK        -0.5000 
     67 C          -0.4271  -22.0236  -47.8233 C.2       11 UNK         0.5000 
     68 O          -0.6727  -22.8853  -48.6647 O.2       11 UNK        -0.5000 
     69 N          -1.3059  -21.0878  -47.4361 N.am      12 UNK        -0.5000 
     70 CA         -2.6651  -20.9445  -47.9567 C.3       12 UNK         0.1400 
     71 CB         -3.3316  -19.7120  -47.3266 C.3       12 UNK        -0.1800 
     72 C          -3.5313  -22.1978  -47.7502 C.2       12 UNK         0.5000 
     73 O          -4.2239  -22.6123  -48.6779 O.2       12 UNK        -0.5000 
     74 N          -3.4532  -22.7963  -46.5537 N.am      13 UNK        -0.5000 
     75 CA         -4.1332  -24.0463  -46.2181 C.3       13 UNK         0.1400 
     76 CB         -3.9834  -24.3269  -44.7151 C.3       13 UNK        -0.1800 
     77 C          -3.6312  -25.2366  -47.0572 C.2       13 UNK         0.5000 
     78 O          -4.4484  -25.9796  -47.6033 O.2       13 UNK        -0.5000 
     79 N          -2.3020  -25.3800  -47.1600 N.am      14 UNK        -0.5000 
     80 CA         -1.6338  -26.4385  -47.9182 C.3       14 UNK         0.1400 
     81 CB         -0.1306  -26.4221  -47.6017 C.3       14 UNK        -0.1800 
     82 C          -1.8677  -26.3404  -49.4364 C.2       14 UNK         0.5000 
     83 O          -2.0933  -27.3636  -50.0851 O.2       14 UNK        -0.5000 
     84 N          -1.8304  -25.1164  -49.9767 N.am      15 UNK        -0.5000 
     85 CA         -2.0259  -24.7969  -51.3896 C.3       15 UNK         0.1400 
     86 CB         -1.3762  -23.4356  -51.6828 C.3       15 UNK        -0.1800 
     87 C          -3.5112  -24.8413  -51.8007 C.2       15 UNK         0.5000 
     88 O          -4.0700  -23.8264  -52.2212 O.2       15 UNK        -0.5000 
     89 N          -4.1176  -26.0303  -51.6778 N.am      16 UNK        -0.5000 
     90 CA         -5.4625  -26.4008  -52.1356 C.3       16 UNK         0.1400 
     91 CB         -5.4939  -26.4375  -53.6786 C.3       16 UNK        -0.1800 
     92 C          -6.5958  -25.5379  -51.5370 C.2       16 UNK         0.5000 
     93 O          -7.5997  -25.2951  -52.2083 O.2       16 UNK        -0.5000 
     94 N          -6.4059  -25.0858  -50.2876 N.am      17 UNK        -0.5000 
     95 CA         -7.2680  -24.1566  -49.5449 C.3       17 UNK         0.1400 
     96 CB         -8.6447  -24.7872  -49.2470 C.3       17 UNK        -0.1800 
     97 C          -7.3661  -22.7543  -50.1918 C.2       17 UNK         0.5000 
     98 O          -8.3686  -22.0603  -50.0098 O.2       17 UNK        -0.5000 
     99 N          -6.2948  -22.3635  -50.8939 N.am      18 UNK        -0.5000 
    100 CA        -6.0262  -21.0845  -51.5448 C.3       18 UNK         0.1400 
    101 CB        -6.1200  -19.9114  -50.5470 C.3       18 UNK        -0.1800 
    102 C         -6.8315  -20.8360  -52.8304 C.2       18 UNK         0.5000 
    103 O         -7.7249  -21.6066  -53.1874 O.2       18 UNK        -0.5000 
    104 N         -6.4265  -19.7746  -53.5426 N.am      19 UNK        -0.5000 
    105 CA        -6.8761  -19.2906  -54.8541 C.3       19 UNK         0.1400 
    106 CB        -8.3803  -18.9591  -54.8539 C.3       19 UNK        -0.1800 
    107 C         -6.5051  -20.2167  -56.0287 C.2       19 UNK         0.5000 
    108 O         -6.0605  -19.7278  -57.0674 O.2       19 UNK        -0.5000 
    109 N         -6.6816  -21.5290  -55.8466 N.am      20 UNK        -0.5000 
    110 CA        -6.4600  -22.5611  -56.8561 C.3       20 UNK         0.1400 
    111 CB        -7.1937  -23.8380  -56.4174 C.3       20 UNK        -0.1800 
    112 C         -4.9763  -22.8640  -57.1399 C.2       20 UNK         0.5000 
    113 O         -4.6736  -23.3479  -58.2319 O.2       20 UNK        -0.5000 
    114 N         -4.0852  -22.6092  -56.1704 N.am      21 UNK        -0.5000 
    115 CA        -2.6763  -23.0121  -56.2391 C.3       21 UNK         0.1400 
    116 CB        -2.5234  -24.4279  -55.6489 C.3       21 UNK        -0.1800 
    117 C         -1.7084  -21.9976  -55.6000 C.2       21 UNK         0.5000 
    118 O         -0.5746  -22.3668  -55.2893 O.2       21 UNK        -0.5000 
    119 N         -2.1401  -20.7424  -55.4178 N.am      22 UNK        -0.5000 
    120 CA        -1.2661  -19.6461  -54.9592 C.3       22 UNK         0.1400 
    121 C         -0.2936  -19.1609  -56.0713 C.2       22 UNK         0.5000 
    122 N          0.8768  -18.6567  -55.7040 N.am      22 UNK        -0.7600 
    123 O         -0.6033  -19.2001  -57.2604 O.2       22 UNK        -0.5000 
    124 C124       -2.0629  -18.4469  -54.3814 C.3       23 UNK        -0.0398 
    125 S125       -3.2835  -18.8560  -53.0860 S.3       23 UNK        -0.2404 
    126 C126       -2.3615  -19.9243  -51.9315 C.3       23 UNK        -0.0205 
    127 H127        2.5397   -9.4747  -48.1942 H         1 UNK         0.0600 
    128 H128        1.8916  -10.5375  -49.4480 H         1 UNK         0.0600 
    129 H129        3.5000  -10.8362  -48.7816 H         1 UNK         0.0600 
    130 H130        0.3814  -11.9764  -48.6588 H         1 UNK         0.3000 
    131 H131        0.8353  -13.7666  -46.5764 H         1 UNK         0.0600 
    132 H132       -1.6395  -14.3378  -46.8339 H         1 UNK         0.0800 
    133 H133       -1.8055  -12.9867  -47.9215 H         1 UNK         0.0800 
    134 H134       -1.0905  -16.6172  -47.4590 H         1 UNK         0.0800 
    135 H135       -2.4057  -16.2510  -48.5403 H         1 UNK         0.0800 
    136 H136       -2.7827  -17.7741  -50.3146 H         1 UNK         0.1150 
    137 H137        0.2917  -20.4759  -51.5937 H         1 UNK         0.1150 
    138 H138        1.1464  -17.4962  -48.6327 H         1 UNK         0.1150 
    139 H139        2.7412  -19.5466  -51.0363 H         1 UNK         0.0800 
    140 H140        2.9326  -18.8359  -49.4554 H         1 UNK         0.0800 
    141 H141        1.4078  -19.9585  -47.5077 H         1 UNK         0.0800 
    142 H142        2.7713  -20.8903  -46.9576 H         1 UNK         0.0800 
    143 H143        1.4035  -23.0084  -47.3314 H         1 UNK         0.0600 
    144 H144        1.1847  -21.2420  -45.1484 H         1 UNK         0.3000 
    145 H145       -0.9735  -23.2107  -43.0919 H         1 UNK         0.0600 
    146 H146        0.9335  -22.8279  -41.5408 H         1 UNK         0.0600 
    147 H147        1.3137  -24.0845  -42.7080 H         1 UNK         0.0600 
    148 H148        1.9982  -22.4779  -42.9009 H         1 UNK         0.0600 
    149 H149        0.3111  -20.6241  -42.8716 H         1 UNK         0.3000 
    150 H150       -2.4337  -18.7353  -44.1341 H         1 UNK         0.0600 
    151 H151       -3.0749  -19.2152  -41.7756 H         1 UNK         0.0600 
    152 H152       -2.2621  -17.6635  -41.9083 H         1 UNK         0.0600 
    153 H153       -1.3963  -19.0611  -41.2704 H         1 UNK         0.0600 
    154 H154        0.0881  -18.0009  -42.9767 H         1 UNK         0.3000 
    155 H155        1.9842  -18.2778  -46.0057 H         1 UNK         0.0600 
    156 H156        0.8911  -15.6980  -44.7952 H         1 UNK         0.0600 
    157 H157        0.9002  -16.1522  -46.4931 H         1 UNK         0.0600 
    158 H158        2.4141  -15.8479  -45.6730 H         1 UNK         0.0600 
    159 H159        2.7220  -17.0715  -43.5815 H         1 UNK         0.3000 
    160 H160        3.8678  -20.0555  -41.9615 H         1 UNK         0.0600 
    161 H161        5.3418  -17.8111  -43.4434 H         1 UNK         0.0600 
    162 H162        5.5738  -19.5381  -43.6974 H         1 UNK         0.0600 
    163 H163        6.0131  -18.8133  -42.1580 H         1 UNK         0.0600 
    164 H164        3.5630  -17.0732  -41.7819 H         1 UNK         0.3000 
    165 H165        1.7273  -17.3516  -38.7863 H         1 UNK         0.0600 
    166 H166        3.3836  -15.7670  -37.8452 H         1 UNK         0.0600 
    167 H167        4.0571  -17.3886  -37.8692 H         1 UNK         0.0600 
    168 H168        4.5603  -16.2160  -39.0809 H         1 UNK         0.0600 
    169 H169        2.6278  -15.0449  -40.1375 H         1 UNK         0.3000 
    170 H170        0.2253  -14.9512  -42.7556 H         1 UNK         0.0600 
    171 H171       -1.0299  -14.2471  -40.7083 H         1 UNK         0.0600 
    172 H172        0.3680  -13.3181  -40.1759 H         1 UNK         0.0600 
    173 H173       -0.4820  -12.8753  -41.6562 H         1 UNK         0.0600 
    174 H174        1.8186  -12.8763  -42.3241 H         1 UNK         0.3000 
    175 H175        4.8653  -13.1862  -42.8113 H         1 UNK         0.0600 
    176 H176        3.7832  -13.8711  -45.5945 H         1 UNK         0.0600 
    177 H177        5.2927  -13.0309  -45.2572 H         1 UNK         0.0600 
    178 H178        5.0975  -14.7056  -44.7708 H         1 UNK         0.0600 
    179 H179        2.9914  -11.8054  -44.6085 H         1 UNK         0.3000 
    180 H180        2.4567   -9.1036  -42.3212 H         1 UNK         0.0600 
    181 H181        3.8507   -9.3705  -45.0384 H         1 UNK         0.0600 
    182 H182        4.5331   -8.6206  -43.6003 H         1 UNK         0.0600 
    183 H183        3.1338   -7.9006  -44.3813 H         1 UNK         0.0600 
    184 H184        1.5126  -10.1450  -44.9312 H         1 UNK         0.3000 
    185 H185       -1.7198  -10.8917  -43.7260 H         1 UNK         0.0600 
    186 H186       -1.9326   -8.4104  -43.8374 H         1 UNK         0.0600 
    187 H187       -0.9447   -8.3724  -45.2929 H         1 UNK         0.0600 
    188 H188       -2.5238   -9.1588  -45.3121 H         1 UNK         0.0600 
    189 H189       -0.5199  -10.5497  -46.3516 H         1 UNK         0.3000 
    190 H190       -1.0078  -20.3792  -46.7691 H         1 UNK         0.3000 
    191 H191       -2.5829  -20.7788  -49.0299 H         1 UNK         0.0600 
    192 H192       -2.7665  -18.8057  -47.5390 H         1 UNK         0.0600 
    193 H193       -4.3389  -19.5650  -47.7152 H         1 UNK         0.0600 
    194 H194       -3.4105  -19.8067  -46.2439 H         1 UNK         0.0600 
    195 H195       -2.8902  -22.3684  -45.8266 H         1 UNK         0.3000 
    196 H196       -5.1959  -23.9146  -46.4316 H         1 UNK         0.0600 
    197 H197       -4.5002  -25.2458  -44.4359 H         1 UNK         0.0600 
    198 H198       -4.4100  -23.5192  -44.1200 H         1 UNK         0.0600 
    199 H199       -2.9379  -24.4365  -44.4259 H         1 UNK         0.0600 
    200 H200       -1.6980  -24.7295  -46.6650 H         1 UNK         0.3000 
    201 H201       -2.0397  -27.3952  -47.5831 H         1 UNK         0.0600 
    202 H202        0.0495  -26.5833  -46.5387 H         1 UNK         0.0600 
    203 H203        0.3274  -25.4711  -47.8770 H         1 UNK         0.0600 
    204 H204        0.3933  -27.2101  -48.1441 H         1 UNK         0.0600 
    205 H205       -1.6046  -24.3270  -49.3743 H         1 UNK         0.3000 
    206 H206       -1.5041  -25.5435  -51.9917 H         1 UNK         0.0600 
    207 H207       -0.3101  -23.4474  -51.4555 H         1 UNK         0.0600 
    208 H208       -1.4812  -23.1666  -52.7337 H         1 UNK         0.0600 
    209 H209       -1.8351  -22.6472  -51.0863 H         1 UNK         0.0600 
    210 H210       -3.5705  -26.7771  -51.2587 H         1 UNK         0.3000 
    211 H211       -5.6387  -27.4159  -51.7775 H         1 UNK         0.0600 
    212 H212       -5.3354  -25.4474  -54.1064 H         1 UNK         0.0600 
    213 H213       -6.4509  -26.8072  -54.0484 H         1 UNK         0.0600 
    214 H214       -4.7205  -27.0969  -54.0724 H         1 UNK         0.0600 
    215 H215       -5.5453  -25.3406  -49.8200 H         1 UNK         0.3000 
    216 H216       -6.7708  -24.0013  -48.5864 H         1 UNK         0.0600 
    217 H217       -9.2158  -24.1675  -48.5548 H         1 UNK         0.0600 
    218 H218       -8.5374  -25.7697  -48.7874 H         1 UNK         0.0600 
    219 H219       -9.2439  -24.9011  -50.1506 H         1 UNK         0.0600 
    220 H220       -5.5502  -23.0423  -51.0118 H         1 UNK         0.3000 
    221 H221       -4.9927  -21.1743  -51.8701 H         1 UNK         0.0600 
    222 H222       -7.1511  -19.7031  -50.2607 H         1 UNK         0.0600 
    223 H223       -5.5571  -20.1272  -49.6401 H         1 UNK         0.0600 
    224 H224       -5.7081  -18.9942  -50.9685 H         1 UNK         0.0600 
    225 H225       -5.6424  -19.2533  -53.1709 H         1 UNK         0.3000 
    226 H226       -6.3384  -18.3551  -55.0168 H         1 UNK         0.0600 
    227 H227       -8.6297  -18.2620  -54.0540 H         1 UNK         0.0600 
    228 H228       -8.6741  -18.4930  -55.7951 H         1 UNK         0.0600 
    229 H229       -8.9966  -19.8495  -54.7276 H         1 UNK         0.0600 
    230 H230       -7.0753  -21.8264  -54.9575 H         1 UNK         0.3000 
    231 H231       -6.9055  -22.2216  -57.7936 H         1 UNK         0.0600 
    232 H232       -6.8446  -24.1873  -55.4454 H         1 UNK         0.0600 
    233 H233       -7.0427  -24.6470  -57.1334 H         1 UNK         0.0600 
    234 H234       -8.2678  -23.6677  -56.3425 H         1 UNK         0.0600 
    235 H235       -4.4091  -22.2257  -55.2938 H         1 UNK         0.3000 
    236 H236       -2.3660  -23.0569  -57.2850 H         1 UNK         0.0600 
    237 H237       -3.1561  -25.1453  -56.1715 H         1 UNK         0.0600 
    238 H238       -1.4971  -24.7872  -55.7310 H         1 UNK         0.0600 
    239 H239       -2.7972  -24.4489  -54.5958 H         1 UNK         0.0600 
    240 H240       -3.0546  -20.4817  -55.7539 H         1 UNK         0.3000 
    241 H241       -0.6351  -20.0373  -54.1601 H         1 UNK         0.0600 
    242 H242        1.1542  -18.6054  -54.7360 H         1 UNK         0.3800 
    243 H243        1.5104  -18.3260  -56.4155 H         1 UNK         0.3800 
    244 H244       -1.3768  -17.7099  -53.9602 H         1 UNK         0.0800 
    245 H245       -2.6003  -17.9340  -55.1810 H         1 UNK         0.0800 
    246 H246       -1.9009  -20.7459  -52.4763 H         1 UNK         0.0800 
    247 H247       -3.0709  -20.3887  -51.2508 H         1 UNK         0.0800 
@<TRIPOS>BOND
     1    1    2 1    
     2    1  127 1    
     3    1  128 1    
     4    1  129 1    
     5    2    3 2    
     6    2    4 am   BACKBONE|DICT|INTERRES
     7    4    5 1    
     8    4  130 1    
     9    5    6 1    
    10    5   65 1    
    11    5  131 1    
    12    6    7 1    
    13    6  132 1    
    14    6  133 1    
    15    7    8 1    
    16    8    9 1    
    17    8  134 1    
    18    8  135 1    
    19    9   10 ar   
    20    9   14 ar   
    21   10   11 ar   
    22   10  136 1    
    23   11   12 ar   
    24   11  126 1    
    25   12   13 ar   
    26   12  137 1    
    27   13   14 ar   
    28   13   15 1    
    29   14  138 1    
    30   15   16 1    
    31   15  139 1    
    32   15  140 1    
    33   16   17 1    
    34   17   18 1    
    35   17  141 1    
    36   17  142 1    
    37   18   19 1    
    38   18   67 1    
    39   18  143 1    
    40   19   20 am   BACKBONE|DICT|INTERRES
    41   19  144 1    
    42   20   21 2    
    43   20   22 1    
    44   22   23 1    
    45   22   24 1    
    46   22  145 1    
    47   23  146 1    
    48   23  147 1    
    49   23  148 1    
    50   24   25 am   BACKBONE|DICT|INTERRES
    51   24  149 1    
    52   25   26 2    
    53   25   27 1    
    54   27   28 1    
    55   27   29 1    
    56   27  150 1    
    57   28  151 1    
    58   28  152 1    
    59   28  153 1    
    60   29   30 am   BACKBONE|DICT|INTERRES
    61   29  154 1    
    62   30   31 2    
    63   30   32 1    
    64   32   33 1    
    65   32   34 1    
    66   32  155 1    
    67   33  156 1    
    68   33  157 1    
    69   33  158 1    
    70   34   35 am   BACKBONE|DICT|INTERRES
    71   34  159 1    
    72   35   36 2    
    73   35   37 1    
    74   37   38 1    
    75   37   39 1    
    76   37  160 1    
    77   38  161 1    
    78   38  162 1    
    79   38  163 1    
    80   39   40 am   BACKBONE|DICT|INTERRES
    81   39  164 1    
    82   40   41 2    
    83   40   42 1    
    84   42   43 1    
    85   42   44 1    
    86   42  165 1    
    87   43  166 1    
    88   43  167 1    
    89   43  168 1    
    90   44   45 am   BACKBONE|DICT|INTERRES
    91   44  169 1    
    92   45   46 2    
    93   45   47 1    
    94   47   48 1    
    95   47   49 1    
    96   47  170 1    
    97   48  171 1    
    98   48  172 1    
    99   48  173 1    
   100   49   50 am   BACKBONE|DICT|INTERRES
   101   49  174 1    
   102   50   51 2    
   103   50   52 1    
   104   52   53 1    
   105   52   54 1    
   106   52  175 1    
   107   53  176 1    
   108   53  177 1    
   109   53  178 1    
   110   54   55 am   BACKBONE|DICT|INTERRES
   111   54  179 1    
   112   55   56 2    
   113   55   57 1    
   114   57   58 1    
   115   57   59 1    
   116   57  180 1    
   117   58  181 1    
   118   58  182 1    
   119   58  183 1    
   120   59   60 am   BACKBONE|DICT|INTERRES
   121   59  184 1    
   122   60   61 2    
   123   60   62 1    
   124   62   63 1    
   125   62   64 1    
   126   62  185 1    
   127   63  186 1    
   128   63  187 1    
   129   63  188 1    
   130   64   65 am   BACKBONE|DICT|INTERRES
   131   64  189 1    
   132   65   66 2    
   133   67   68 2    
   134   67   69 am   BACKBONE|DICT|INTERRES
   135   69   70 1    
   136   69  190 1    
   137   70   71 1    
   138   70   72 1    
   139   70  191 1    
   140   71  192 1    
   141   71  193 1    
   142   71  194 1    
   143   72   73 2    
   144   72   74 am   BACKBONE|DICT|INTERRES
   145   74   75 1    
   146   74  195 1    
   147   75   76 1    
   148   75   77 1    
   149   75  196 1    
   150   76  197 1    
   151   76  198 1    
   152   76  199 1    
   153   77   78 2    
   154   77   79 am   BACKBONE|DICT|INTERRES
   155   79   80 1    
   156   79  200 1    
   157   80   81 1    
   158   80   82 1    
   159   80  201 1    
   160   81  202 1    
   161   81  203 1    
   162   81  204 1    
   163   82   83 2    
   164   82   84 am   BACKBONE|DICT|INTERRES
   165   84   85 1    
   166   84  205 1    
   167   85   86 1    
   168   85   87 1    
   169   85  206 1    
   170   86  207 1    
   171   86  208 1    
   172   86  209 1    
   173   87   88 2    
   174   87   89 am   BACKBONE|DICT|INTERRES
   175   89   90 1    
   176   89  210 1    
   177   90   91 1    
   178   90   92 1    
   179   90  211 1    
   180   91  212 1    
   181   91  213 1    
   182   91  214 1    
   183   92   93 2    
   184   92   94 am   BACKBONE|DICT|INTERRES
   185   94   95 1    
   186   94  215 1    
   187   95   96 1    
   188   95   97 1    
   189   95  216 1    
   190   96  217 1    
   191   96  218 1    
   192   96  219 1    
   193   97   98 2    
   194   97   99 am   BACKBONE|DICT|INTERRES
   195   99  100 1    
   196   99  220 1    
   197  100  101 1    
   198  100  102 1    
   199  100  221 1    
   200  101  222 1    
   201  101  223 1    
   202  101  224 1    
   203  102  103 2    
   204  102  104 am   BACKBONE|DICT|INTERRES
   205  104  105 1    
   206  104  225 1    
   207  105  106 1    
   208  105  107 1    
   209  105  226 1    
   210  106  227 1    
   211  106  228 1    
   212  106  229 1    
   213  107  108 2    
   214  107  109 am   BACKBONE|DICT|INTERRES
   215  109  110 1    
   216  109  230 1    
   217  110  111 1    
   218  110  112 1    
   219  110  231 1    
   220  111  232 1    
   221  111  233 1    
   222  111  234 1    
   223  112  113 2    
   224  112  114 am   BACKBONE|DICT|INTERRES
   225  114  115 1    
   226  114  235 1    
   227  115  116 1    
   228  115  117 1    
   229  115  236 1    
   230  116  237 1    
   231  116  238 1    
   232  116  239 1    
   233  117  118 2    
   234  117  119 am   BACKBONE|DICT|INTERRES
   235  119  120 1    
   236  119  240 1    
   237  120  121 1    
   238  120  124 1    
   239  120  241 1    
   240  121  122 am   BACKBONE|DICT|INTERRES
   241  121  123 2    
   242  122  242 1    
   243  122  243 1    
   244  124  125 1    
   245  124  244 1    
   246  124  245 1    
   247  125  126 1    
   248  126  246 1    
   249  126  247 1    
@<TRIPOS>SUBSTRUCTURE
     1 UNK         1 GROUP             0       ****    0 ROOT    
