@<TRIPOS>MOLECULE
3R540
247   249    1
SMALL
USER_CHARGES


@<TRIPOS>ATOM
      1 CA         -3.9378  -16.5100  -42.7071 C.3       0 UNK        -0.1800 
      2 C          -3.9921  -15.2675  -43.5811 C.2       0 UNK         0.5000 
      3 O          -4.6758  -14.3045  -43.2319 O.2       0 UNK        -0.5000 
      4 N          -3.2825  -15.2881  -44.7166 N.am      1 UNK        -0.5000 
      5 CA         -3.1385  -14.1492  -45.6268 C.3       1 UNK         0.1400 
      6 C6         -2.5916  -14.6018  -47.0040 C.3       23 UNK        -0.0398 
      7 S7         -2.8824  -13.3665  -48.3166 S.3       23 UNK        -0.2404 
      8 C8         -1.2705  -13.3277  -49.1614 C.3       23 UNK        -0.0205 
      9 C9         -1.0884  -14.5397  -50.0620 C.ar      23 UNK        -0.0193 
     10 C10        -1.7608  -14.6028  -51.2858 C.ar      23 UNK        -0.1150 
     11 C11        -1.6163  -15.7151  -52.1181 C.ar      23 UNK        -0.0193 
     12 C12        -0.7659  -16.7544  -51.7340 C.ar      23 UNK        -0.1150 
     13 C13        -0.1116  -16.7193  -50.5002 C.ar      23 UNK        -0.0193 
     14 C14        -0.2656  -15.6014  -49.6733 C.ar      23 UNK        -0.1150 
     15 C15         0.7357  -17.9036  -50.0535 C.3       23 UNK        -0.0205 
     16 S16        -0.2123  -19.4639  -50.0109 S.3       23 UNK        -0.2404 
     17 C17        -1.6147  -19.0197  -48.9299 C.3       23 UNK        -0.0398 
     18 CA         -2.2107  -20.2586  -48.2189 C.3       11 UNK         0.1400 
     19 N          -1.3333  -20.7524  -47.1488 N.am      11 UNK        -0.5000 
     20 C          -1.4825  -21.9132  -46.4994 C.2       10 UNK         0.5000 
     21 O          -2.3838  -22.7119  -46.7445 O.2       10 UNK        -0.5000 
     22 CA         -0.5275  -22.1988  -45.3260 C.3       10 UNK         0.1400 
     23 CB          0.8015  -22.7837  -45.8243 C.3       10 UNK        -0.1800 
     24 N          -0.2793  -21.0230  -44.4876 N.am      10 UNK        -0.5000 
     25 C          -1.2291  -20.3476  -43.8223 C.2       9 UNK         0.5000 
     26 O          -2.4230  -20.6489  -43.8455 O.2       9 UNK        -0.5000 
     27 CA         -0.7819  -19.0920  -43.0544 C.3       9 UNK         0.1400 
     28 CB         -0.0463  -19.4570  -41.7568 C.3       9 UNK        -0.1800 
     29 N           0.0593  -18.2300  -43.8796 N.am      9 UNK        -0.5000 
     30 C          -0.3508  -17.5855  -44.9807 C.2       8 UNK         0.5000 
     31 O          -1.5247  -17.5218  -45.3492 O.2       8 UNK        -0.5000 
     32 CA          0.7465  -16.9307  -45.8368 C.3       8 UNK         0.1400 
     33 CB          1.0499  -15.5083  -45.3488 C.3       8 UNK        -0.1800 
     34 N           1.9862  -17.7094  -45.8492 N.am      8 UNK        -0.5000 
     35 C           2.1218  -18.9142  -46.4195 C.2       7 UNK         0.5000 
     36 O           1.2089  -19.4947  -46.9994 O.2       7 UNK        -0.5000 
     37 CA          3.4931  -19.5993  -46.2846 C.3       7 UNK         0.1400 
     38 CB          4.4577  -19.0882  -47.3647 C.3       7 UNK        -0.1800 
     39 N           4.0866  -19.3947  -44.9632 N.am      7 UNK        -0.5000 
     40 C           3.5909  -19.9039  -43.8260 C.2       6 UNK         0.5000 
     41 O           2.6246  -20.6655  -43.7842 O.2       6 UNK        -0.5000 
     42 CA          4.2453  -19.4215  -42.5150 C.3       6 UNK         0.1400 
     43 CB          5.4666  -20.2855  -42.1683 C.3       6 UNK        -0.1800 
     44 N           4.6416  -18.0078  -42.5612 N.am      6 UNK        -0.5000 
     45 C           3.7846  -16.9948  -42.7478 C.2       5 UNK         0.5000 
     46 O           2.5674  -17.1587  -42.8562 O.2       5 UNK        -0.5000 
     47 CA          4.3968  -15.5900  -42.9212 C.3       5 UNK         0.1400 
     48 CB          5.1548  -15.4958  -44.2566 C.3       5 UNK        -0.1800 
     49 N           3.3728  -14.5455  -42.9086 N.am      5 UNK        -0.5000 
     50 C           2.7143  -14.1174  -41.8257 C.2       4 UNK         0.5000 
     51 O           2.9851  -14.4920  -40.6830 O.2       4 UNK        -0.5000 
     52 CA          1.5408  -13.1335  -42.0430 C.3       4 UNK         0.1400 
     53 CB          1.5703  -11.9711  -41.0294 C.3       4 UNK        -0.1800 
     54 N           1.3686  -12.6141  -43.4092 N.am      4 UNK        -0.5000 
     55 C           2.2021  -11.8219  -44.1051 C.2       3 UNK         0.5000 
     56 O           3.3388  -11.5297  -43.7342 O.2       3 UNK        -0.5000 
     57 CA          1.6752  -11.2341  -45.4342 C.3       3 UNK         0.1400 
     58 CB          2.1847  -12.0356  -46.6420 C.3       3 UNK        -0.1800 
     59 N           0.2144  -11.1485  -45.4999 N.am      3 UNK        -0.5000 
     60 C          -0.5391  -10.3570  -44.7244 C.2       2 UNK         0.5000 
     61 O          -0.0707   -9.5263  -43.9449 O.2       2 UNK        -0.5000 
     62 CA         -2.0707  -10.5209  -44.8105 C.3       2 UNK         0.1400 
     63 CB         -2.6862   -9.3500  -45.5928 C.3       2 UNK        -0.1800 
     64 N          -2.5645  -11.7766  -45.3906 N.am      2 UNK        -0.5000 
     65 C          -2.2965  -13.0233  -44.9770 C.2       1 UNK         0.5000 
     66 O          -1.4355  -13.2965  -44.1353 O.2       1 UNK        -0.5000 
     67 C          -3.6702  -19.9978  -47.7737 C.2       11 UNK         0.5000 
     68 O          -4.5276  -19.8383  -48.6426 O.2       11 UNK        -0.5000 
     69 N          -3.9478  -19.9877  -46.4626 N.am      12 UNK        -0.5000 
     70 CA         -5.3016  -19.9908  -45.9123 C.3       12 UNK         0.1400 
     71 CB         -5.3964  -18.9573  -44.7810 C.3       12 UNK        -0.1800 
     72 C          -5.6827  -21.3926  -45.4044 C.2       12 UNK         0.5000 
     73 O          -6.7656  -21.8786  -45.7304 O.2       12 UNK        -0.5000 
     74 N          -4.8018  -22.0077  -44.6018 N.am      13 UNK        -0.5000 
     75 CA         -5.0551  -23.2635  -43.8928 C.3       13 UNK         0.1400 
     76 CB         -3.9991  -23.4383  -42.7899 C.3       13 UNK        -0.1800 
     77 C          -5.0947  -24.5033  -44.8043 C.2       13 UNK         0.5000 
     78 O          -5.9990  -25.3283  -44.6668 O.2       13 UNK        -0.5000 
     79 N          -4.1114  -24.6174  -45.7035 N.am      14 UNK        -0.5000 
     80 CA         -3.9730  -25.7089  -46.6697 C.3       14 UNK         0.1400 
     81 CB         -2.4953  -26.1257  -46.7345 C.3       14 UNK        -0.1800 
     82 C          -4.4915  -25.3019  -48.0615 C.2       14 UNK         0.5000 
     83 O          -4.8223  -26.1787  -48.8613 O.2       14 UNK        -0.5000 
     84 N          -4.5727  -23.9870  -48.3155 N.am      15 UNK        -0.5000 
     85 CA         -5.1302  -23.3413  -49.5038 C.3       15 UNK         0.1400 
     86 CB         -6.6651  -23.5104  -49.5358 C.3       15 UNK        -0.1800 
     87 C          -4.4117  -23.7902  -50.7892 C.2       15 UNK         0.5000 
     88 O          -3.2231  -23.4979  -50.9393 O.2       15 UNK        -0.5000 
     89 N          -5.1238  -24.4886  -51.6833 N.am      16 UNK        -0.5000 
     90 CA         -4.6438  -24.9440  -52.9907 C.3       16 UNK         0.1400 
     91 CB         -5.8126  -25.5931  -53.7472 C.3       16 UNK        -0.1800 
     92 C          -3.4402  -25.9071  -52.9315 C.2       16 UNK         0.5000 
     93 O          -2.7174  -26.0352  -53.9202 O.2       16 UNK        -0.5000 
     94 N          -3.2409  -26.5664  -51.7819 N.am      17 UNK        -0.5000 
     95 CA         -2.0923  -27.4314  -51.5220 C.3       17 UNK         0.1400 
     96 CB         -2.4423  -28.3966  -50.3803 C.3       17 UNK        -0.1800 
     97 C          -0.8032  -26.6468  -51.2036 C.2       17 UNK         0.5000 
     98 O           0.2834  -27.2033  -51.3676 O.2       17 UNK        -0.5000 
     99 N          -0.9267  -25.3883  -50.7542 N.am      18 UNK        -0.5000 
    100 CA         0.2111  -24.5216  -50.4408 C.3       18 UNK         0.1400 
    101 CB        -0.2033  -23.4837  -49.3904 C.3       18 UNK        -0.1800 
    102 C          0.7600  -23.8233  -51.6942 C.2       18 UNK         0.5000 
    103 O          1.9780  -23.7333  -51.8548 O.2       18 UNK        -0.5000 
    104 N         -0.1430  -23.3562  -52.5624 N.am      19 UNK        -0.5000 
    105 CA         0.1599  -22.6811  -53.8182 C.3       19 UNK         0.1400 
    106 CB         0.5556  -21.2158  -53.5519 C.3       19 UNK        -0.1800 
    107 C         -1.0803  -22.7495  -54.7142 C.2       19 UNK         0.5000 
    108 O         -2.1976  -22.7993  -54.2012 O.2       19 UNK        -0.5000 
    109 N         -0.8740  -22.7116  -56.0352 N.am      20 UNK        -0.5000 
    110 CA        -1.9558  -22.7226  -57.0242 C.3       20 UNK         0.1400 
    111 CB        -1.3724  -23.0845  -58.3989 C.3       20 UNK        -0.1800 
    112 C         -2.7250  -21.3879  -57.1001 C.2       20 UNK         0.5000 
    113 O         -3.8861  -21.3822  -57.5104 O.2       20 UNK        -0.5000 
    114 N         -2.0617  -20.2841  -56.7256 N.am      21 UNK        -0.5000 
    115 CA        -2.6069  -18.9271  -56.7731 C.3       21 UNK         0.1400 
    116 CB        -1.4542  -17.9181  -56.6505 C.3       21 UNK        -0.1800 
    117 C         -3.6802  -18.6636  -55.7007 C.2       21 UNK         0.5000 
    118 O         -4.6832  -18.0154  -56.0017 O.2       21 UNK        -0.5000 
    119 N         -3.4502  -19.1731  -54.4846 N.am      22 UNK        -0.5000 
    120 CA        -4.3609  -19.0784  -53.3339 C.3       22 UNK         0.1400 
    121 C         -4.3537  -20.4229  -52.5683 C.2       22 UNK         0.5000 
    122 N         -3.2122  -20.8464  -52.0351 N.am      22 UNK        -0.7600 
    123 O         -5.3801  -21.0889  -52.4711 O.2       22 UNK        -0.5000 
    124 C124       -4.0417  -17.9014  -52.3721 C.3       23 UNK        -0.0398 
    125 S125       -4.1553  -16.2370  -53.1200 S.3       23 UNK        -0.2404 
    126 C126       -2.4054  -15.8131  -53.4143 C.3       23 UNK        -0.0205 
    127 H127       -3.3486  -16.3163  -41.8109 H         1 UNK         0.0600 
    128 H128       -4.9422  -16.8055  -42.4040 H         1 UNK         0.0600 
    129 H129       -3.4882  -17.3435  -43.2419 H         1 UNK         0.0600 
    130 H130       -2.7194  -16.1060  -44.9366 H         1 UNK         0.3000 
    131 H131       -4.1449  -13.7546  -45.7857 H         1 UNK         0.0600 
    132 H132       -3.0954  -15.5172  -47.3189 H         1 UNK         0.0800 
    133 H133       -1.5351  -14.8566  -46.9459 H         1 UNK         0.0800 
    134 H134       -1.2140  -12.4217  -49.7665 H         1 UNK         0.0800 
    135 H135       -0.4637  -13.2545  -48.4308 H         1 UNK         0.0800 
    136 H136       -2.4187  -13.7965  -51.5789 H         1 UNK         0.1150 
    137 H137       -0.6498  -17.6186  -52.3730 H         1 UNK         0.1150 
    138 H138        0.2481  -15.5573  -48.7248 H         1 UNK         0.1150 
    139 H139        1.5750  -18.0199  -50.7400 H         1 UNK         0.0800 
    140 H140        1.1669  -17.7224  -49.0693 H         1 UNK         0.0800 
    141 H141       -1.2995  -18.2758  -48.1966 H         1 UNK         0.0800 
    142 H142       -2.3558  -18.5286  -49.5632 H         1 UNK         0.0800 
    143 H143       -2.2886  -21.0583  -48.9578 H         1 UNK         0.0600 
    144 H144       -0.5132  -20.1853  -46.9443 H         1 UNK         0.3000 
    145 H145       -1.0039  -22.9500  -44.6931 H         1 UNK         0.0600 
    146 H146        1.4753  -22.9977  -44.9946 H         1 UNK         0.0600 
    147 H147        0.6374  -23.7206  -46.3574 H         1 UNK         0.0600 
    148 H148        1.3136  -22.1053  -46.5058 H         1 UNK         0.0600 
    149 H149        0.6870  -20.7261  -44.3972 H         1 UNK         0.3000 
    150 H150       -1.6741  -18.5318  -42.7786 H         1 UNK         0.0600 
    151 H151       -0.6820  -20.0590  -41.1065 H         1 UNK         0.0600 
    152 H152        0.2357  -18.5627  -41.2007 H         1 UNK         0.0600 
    153 H153        0.8608  -20.0291  -41.9475 H         1 UNK         0.0600 
    154 H154        1.0343  -18.1432  -43.6097 H         1 UNK         0.3000 
    155 H155        0.3801  -16.8752  -46.8620 H         1 UNK         0.0600 
    156 H156        1.9599  -15.1185  -45.8031 H         1 UNK         0.0600 
    157 H157        1.1688  -15.4726  -44.2672 H         1 UNK         0.0600 
    158 H158        0.2415  -14.8251  -45.5974 H         1 UNK         0.0600 
    159 H159        2.7626  -17.3318  -45.3297 H         1 UNK         0.3000 
    160 H160        3.3492  -20.6713  -46.4336 H         1 UNK         0.0600 
    161 H161        4.6627  -18.0226  -47.2539 H         1 UNK         0.0600 
    162 H162        4.0413  -19.2406  -48.3616 H         1 UNK         0.0600 
    163 H163        5.4090  -19.6192  -47.3265 H         1 UNK         0.0600 
    164 H164        4.8901  -18.7868  -44.9100 H         1 UNK         0.3000 
    165 H165        3.5077  -19.5363  -41.7179 H         1 UNK         0.0600 
    166 H166        6.2546  -20.1904  -42.9163 H         1 UNK         0.0600 
    167 H167        5.8853  -20.0064  -41.2012 H         1 UNK         0.0600 
    168 H168        5.1940  -21.3403  -42.1105 H         1 UNK         0.0600 
    169 H169        5.6291  -17.8117  -42.4807 H         1 UNK         0.3000 
    170 H170        5.0945  -15.4124  -42.1004 H         1 UNK         0.0600 
    171 H171        5.9744  -16.2137  -44.3015 H         1 UNK         0.0600 
    172 H172        4.5014  -15.6884  -45.1085 H         1 UNK         0.0600 
    173 H173        5.5911  -14.5055  -44.3900 H         1 UNK         0.0600 
    174 H174        3.0859  -14.1791  -43.8024 H         1 UNK         0.3000 
    175 H175        0.6388  -13.7136  -41.8430 H         1 UNK         0.0600 
    176 H176        0.7138  -11.3101  -41.1641 H         1 UNK         0.0600 
    177 H177        1.5343  -12.3404  -40.0040 H         1 UNK         0.0600 
    178 H178        2.4755  -11.3714  -41.1286 H         1 UNK         0.0600 
    179 H179        0.4527  -12.7993  -43.8096 H         1 UNK         0.3000 
    180 H180        2.0745  -10.2207  -45.5123 H         1 UNK         0.0600 
    181 H181        1.9766  -11.5098  -47.5740 H         1 UNK         0.0600 
    182 H182        3.2640  -12.1862  -46.5904 H         1 UNK         0.0600 
    183 H183        1.7155  -13.0157  -46.7059 H         1 UNK         0.0600 
    184 H184       -0.2569  -11.7951  -46.1135 H         1 UNK         0.3000 
    185 H185       -2.4451  -10.4778  -43.7859 H         1 UNK         0.0600 
    186 H186       -3.7754   -9.3784  -45.5562 H         1 UNK         0.0600 
    187 H187       -2.3757   -8.3908  -45.1760 H         1 UNK         0.0600 
    188 H188       -2.3838   -9.3660  -46.6407 H         1 UNK         0.0600 
    189 H189       -3.2532  -11.6664  -46.1217 H         1 UNK         0.3000 
    190 H190       -3.1917  -20.1216  -45.8030 H         1 UNK         0.3000 
    191 H191       -6.0285  -19.7062  -46.6758 H         1 UNK         0.0600 
    192 H192       -6.4107  -18.9064  -44.3836 H         1 UNK         0.0600 
    193 H193       -5.1358  -17.9611  -45.1386 H         1 UNK         0.0600 
    194 H194       -4.7329  -19.2037  -43.9522 H         1 UNK         0.0600 
    195 H195       -3.9370  -21.5279  -44.3627 H         1 UNK         0.3000 
    196 H196       -6.0307  -23.1815  -43.4087 H         1 UNK         0.0600 
    197 H197       -4.1717  -24.3544  -42.2235 H         1 UNK         0.0600 
    198 H198       -4.0272  -22.6087  -42.0832 H         1 UNK         0.0600 
    199 H199       -2.9907  -23.4905  -43.2016 H         1 UNK         0.0600 
    200 H200       -3.4379  -23.8616  -45.7984 H         1 UNK         0.3000 
    201 H201       -4.5522  -26.5747  -46.3427 H         1 UNK         0.0600 
    202 H202       -2.1193  -26.3945  -45.7473 H         1 UNK         0.0600 
    203 H203       -1.8655  -25.3277  -47.1247 H         1 UNK         0.0600 
    204 H204       -2.3605  -26.9950  -47.3766 H         1 UNK         0.0600 
    205 H205       -4.1600  -23.3645  -47.6317 H         1 UNK         0.3000 
    206 H206       -4.9228  -22.2771  -49.4069 H         1 UNK         0.0600 
    207 H207       -7.1163  -23.0921  -48.6357 H         1 UNK         0.0600 
    208 H208       -7.1001  -22.9821  -50.3853 H         1 UNK         0.0600 
    209 H209       -6.9673  -24.5563  -49.5981 H         1 UNK         0.0600 
    210 H210       -6.0862  -24.6976  -51.4632 H         1 UNK         0.3000 
    211 H211       -4.3316  -24.0596  -53.5471 H         1 UNK         0.0600 
    212 H212       -6.1945  -26.4690  -53.2213 H         1 UNK         0.0600 
    213 H213       -5.5031  -25.9158  -54.7423 H         1 UNK         0.0600 
    214 H214       -6.6367  -24.8914  -53.8776 H         1 UNK         0.0600 
    215 H215       -3.8806  -26.4094  -51.0129 H         1 UNK         0.3000 
    216 H216       -1.8959  -28.0297  -52.4144 H         1 UNK         0.0600 
    217 H217       -1.6062  -29.0599  -50.1551 H         1 UNK         0.0600 
    218 H218       -3.2936  -29.0246  -50.6434 H         1 UNK         0.0600 
    219 H219       -2.6940  -27.8609  -49.4667 H         1 UNK         0.0600 
    220 H220       -1.8465  -24.9645  -50.6990 H         1 UNK         0.3000 
    221 H221        1.0134  -25.1246  -50.0101 H         1 UNK         0.0600 
    222 H222       -0.9768  -22.8148  -49.7652 H         1 UNK         0.0600 
    223 H223       -0.5844  -23.9688  -48.4945 H         1 UNK         0.0600 
    224 H224        0.6441  -22.8643  -49.0937 H         1 UNK         0.0600 
    225 H225       -1.1328  -23.4861  -52.3854 H         1 UNK         0.3000 
    226 H226        0.9803  -23.2017  -54.3164 H         1 UNK         0.0600 
    227 H227        1.4486  -21.1507  -52.9303 H         1 UNK         0.0600 
    228 H228        0.7724  -20.6907  -54.4826 H         1 UNK         0.0600 
    229 H229       -0.2407  -20.6713  -53.0438 H         1 UNK         0.0600 
    230 H230        0.0697  -22.6711  -56.3928 H         1 UNK         0.3000 
    231 H231       -2.6719  -23.4990  -56.7447 H         1 UNK         0.0600 
    232 H232       -2.1561  -23.1290  -59.1564 H         1 UNK         0.0600 
    233 H233       -0.8881  -24.0609  -58.3772 H         1 UNK         0.0600 
    234 H234       -0.6368  -22.3507  -58.7307 H         1 UNK         0.0600 
    235 H235       -1.1069  -20.3831  -56.4161 H         1 UNK         0.3000 
    236 H236       -3.0752  -18.7835  -57.7494 H         1 UNK         0.0600 
    237 H237       -0.8995  -18.0487  -55.7207 H         1 UNK         0.0600 
    238 H238       -0.7509  -18.0228  -57.4768 H         1 UNK         0.0600 
    239 H239       -1.8276  -16.8933  -56.6717 H         1 UNK         0.0600 
    240 H240       -2.6508  -19.7755  -54.3577 H         1 UNK         0.3000 
    241 H241       -5.3789  -18.9380  -53.7032 H         1 UNK         0.0600 
    242 H242       -3.1923  -21.7681  -51.6103 H         1 UNK         0.3800 
    243 H243       -2.3650  -20.3079  -52.0794 H         1 UNK         0.3800 
    244 H244       -3.0617  -18.0400  -51.9225 H         1 UNK         0.0800 
    245 H245       -4.7433  -17.9150  -51.5360 H         1 UNK         0.0800 
    246 H246       -1.9620  -16.5549  -54.0778 H         1 UNK         0.0800 
    247 H247       -2.3550  -14.8603  -53.9431 H         1 UNK         0.0800 
@<TRIPOS>BOND
     1    1    2 1    
     2    1  127 1    
     3    1  128 1    
     4    1  129 1    
     5    2    3 2    
     6    2    4 am   BACKBONE|DICT|INTERRES
     7    4    5 1    
     8    4  130 1    
     9    5    6 1    
    10    5   65 1    
    11    5  131 1    
    12    6    7 1    
    13    6  132 1    
    14    6  133 1    
    15    7    8 1    
    16    8    9 1    
    17    8  134 1    
    18    8  135 1    
    19    9   10 ar   
    20    9   14 ar   
    21   10   11 ar   
    22   10  136 1    
    23   11   12 ar   
    24   11  126 1    
    25   12   13 ar   
    26   12  137 1    
    27   13   14 ar   
    28   13   15 1    
    29   14  138 1    
    30   15   16 1    
    31   15  139 1    
    32   15  140 1    
    33   16   17 1    
    34   17   18 1    
    35   17  141 1    
    36   17  142 1    
    37   18   19 1    
    38   18   67 1    
    39   18  143 1    
    40   19   20 am   BACKBONE|DICT|INTERRES
    41   19  144 1    
    42   20   21 2    
    43   20   22 1    
    44   22   23 1    
    45   22   24 1    
    46   22  145 1    
    47   23  146 1    
    48   23  147 1    
    49   23  148 1    
    50   24   25 am   BACKBONE|DICT|INTERRES
    51   24  149 1    
    52   25   26 2    
    53   25   27 1    
    54   27   28 1    
    55   27   29 1    
    56   27  150 1    
    57   28  151 1    
    58   28  152 1    
    59   28  153 1    
    60   29   30 am   BACKBONE|DICT|INTERRES
    61   29  154 1    
    62   30   31 2    
    63   30   32 1    
    64   32   33 1    
    65   32   34 1    
    66   32  155 1    
    67   33  156 1    
    68   33  157 1    
    69   33  158 1    
    70   34   35 am   BACKBONE|DICT|INTERRES
    71   34  159 1    
    72   35   36 2    
    73   35   37 1    
    74   37   38 1    
    75   37   39 1    
    76   37  160 1    
    77   38  161 1    
    78   38  162 1    
    79   38  163 1    
    80   39   40 am   BACKBONE|DICT|INTERRES
    81   39  164 1    
    82   40   41 2    
    83   40   42 1    
    84   42   43 1    
    85   42   44 1    
    86   42  165 1    
    87   43  166 1    
    88   43  167 1    
    89   43  168 1    
    90   44   45 am   BACKBONE|DICT|INTERRES
    91   44  169 1    
    92   45   46 2    
    93   45   47 1    
    94   47   48 1    
    95   47   49 1    
    96   47  170 1    
    97   48  171 1    
    98   48  172 1    
    99   48  173 1    
   100   49   50 am   BACKBONE|DICT|INTERRES
   101   49  174 1    
   102   50   51 2    
   103   50   52 1    
   104   52   53 1    
   105   52   54 1    
   106   52  175 1    
   107   53  176 1    
   108   53  177 1    
   109   53  178 1    
   110   54   55 am   BACKBONE|DICT|INTERRES
   111   54  179 1    
   112   55   56 2    
   113   55   57 1    
   114   57   58 1    
   115   57   59 1    
   116   57  180 1    
   117   58  181 1    
   118   58  182 1    
   119   58  183 1    
   120   59   60 am   BACKBONE|DICT|INTERRES
   121   59  184 1    
   122   60   61 2    
   123   60   62 1    
   124   62   63 1    
   125   62   64 1    
   126   62  185 1    
   127   63  186 1    
   128   63  187 1    
   129   63  188 1    
   130   64   65 am   BACKBONE|DICT|INTERRES
   131   64  189 1    
   132   65   66 2    
   133   67   68 2    
   134   67   69 am   BACKBONE|DICT|INTERRES
   135   69   70 1    
   136   69  190 1    
   137   70   71 1    
   138   70   72 1    
   139   70  191 1    
   140   71  192 1    
   141   71  193 1    
   142   71  194 1    
   143   72   73 2    
   144   72   74 am   BACKBONE|DICT|INTERRES
   145   74   75 1    
   146   74  195 1    
   147   75   76 1    
   148   75   77 1    
   149   75  196 1    
   150   76  197 1    
   151   76  198 1    
   152   76  199 1    
   153   77   78 2    
   154   77   79 am   BACKBONE|DICT|INTERRES
   155   79   80 1    
   156   79  200 1    
   157   80   81 1    
   158   80   82 1    
   159   80  201 1    
   160   81  202 1    
   161   81  203 1    
   162   81  204 1    
   163   82   83 2    
   164   82   84 am   BACKBONE|DICT|INTERRES
   165   84   85 1    
   166   84  205 1    
   167   85   86 1    
   168   85   87 1    
   169   85  206 1    
   170   86  207 1    
   171   86  208 1    
   172   86  209 1    
   173   87   88 2    
   174   87   89 am   BACKBONE|DICT|INTERRES
   175   89   90 1    
   176   89  210 1    
   177   90   91 1    
   178   90   92 1    
   179   90  211 1    
   180   91  212 1    
   181   91  213 1    
   182   91  214 1    
   183   92   93 2    
   184   92   94 am   BACKBONE|DICT|INTERRES
   185   94   95 1    
   186   94  215 1    
   187   95   96 1    
   188   95   97 1    
   189   95  216 1    
   190   96  217 1    
   191   96  218 1    
   192   96  219 1    
   193   97   98 2    
   194   97   99 am   BACKBONE|DICT|INTERRES
   195   99  100 1    
   196   99  220 1    
   197  100  101 1    
   198  100  102 1    
   199  100  221 1    
   200  101  222 1    
   201  101  223 1    
   202  101  224 1    
   203  102  103 2    
   204  102  104 am   BACKBONE|DICT|INTERRES
   205  104  105 1    
   206  104  225 1    
   207  105  106 1    
   208  105  107 1    
   209  105  226 1    
   210  106  227 1    
   211  106  228 1    
   212  106  229 1    
   213  107  108 2    
   214  107  109 am   BACKBONE|DICT|INTERRES
   215  109  110 1    
   216  109  230 1    
   217  110  111 1    
   218  110  112 1    
   219  110  231 1    
   220  111  232 1    
   221  111  233 1    
   222  111  234 1    
   223  112  113 2    
   224  112  114 am   BACKBONE|DICT|INTERRES
   225  114  115 1    
   226  114  235 1    
   227  115  116 1    
   228  115  117 1    
   229  115  236 1    
   230  116  237 1    
   231  116  238 1    
   232  116  239 1    
   233  117  118 2    
   234  117  119 am   BACKBONE|DICT|INTERRES
   235  119  120 1    
   236  119  240 1    
   237  120  121 1    
   238  120  124 1    
   239  120  241 1    
   240  121  122 am   BACKBONE|DICT|INTERRES
   241  121  123 2    
   242  122  242 1    
   243  122  243 1    
   244  124  125 1    
   245  124  244 1    
   246  124  245 1    
   247  125  126 1    
   248  126  246 1    
   249  126  247 1    
@<TRIPOS>SUBSTRUCTURE
     1 UNK         1 GROUP             0       ****    0 ROOT    
