@<TRIPOS>MOLECULE
3R540
247   249    1
SMALL
USER_CHARGES


@<TRIPOS>ATOM
      1 CA         -2.8583  -10.7191  -49.8942 C.3       0 UNK        -0.1800 
      2 C          -1.7808  -11.3387  -49.0143 C.2       0 UNK         0.5000 
      3 O          -2.1070  -11.9081  -47.9729 O.2       0 UNK        -0.5000 
      4 N          -0.5159  -11.2302  -49.4475 N.am      1 UNK        -0.5000 
      5 CA          0.7187  -11.6895  -48.7907 C.3       1 UNK         0.1400 
      6 C6          0.7067  -13.1786  -48.3408 C.3       23 UNK        -0.0398 
      7 S7          0.3039  -14.3573  -49.6737 S.3       23 UNK        -0.2404 
      8 C8          1.6778  -15.5436  -49.5354 C.3       23 UNK        -0.0205 
      9 C9          1.4890  -16.7063  -50.4972 C.ar      23 UNK        -0.0193 
     10 C10         1.7383  -16.5299  -51.8606 C.ar      23 UNK        -0.1150 
     11 C11         1.5343  -17.5772  -52.7628 C.ar      23 UNK        -0.0193 
     12 C12         1.0909  -18.8153  -52.2884 C.ar      23 UNK        -0.1150 
     13 C13         0.8597  -19.0139  -50.9231 C.ar      23 UNK        -0.0193 
     14 C14         1.0612  -17.9540  -50.0317 C.ar      23 UNK        -0.1150 
     15 C15         0.4165  -20.3809  -50.4188 C.3       23 UNK        -0.0205 
     16 S16        -1.3197  -20.3838  -49.8693 S.3       23 UNK        -0.2404 
     17 C17        -1.1333  -20.3021  -48.0571 C.3       23 UNK        -0.0398 
     18 CA         -1.1548  -21.6985  -47.3813 C.3       11 UNK         0.1400 
     19 N          -0.3949  -21.7083  -46.1255 N.am      11 UNK        -0.5000 
     20 C          -0.1349  -22.7976  -45.3868 C.2       10 UNK         0.5000 
     21 O          -0.4795  -23.9353  -45.7024 O.2       10 UNK        -0.5000 
     22 CA          0.5843  -22.5775  -44.0431 C.3       10 UNK         0.1400 
     23 CB          2.0968  -22.4116  -44.2497 C.3       10 UNK        -0.1800 
     24 N           0.0525  -21.4337  -43.3009 N.am      10 UNK        -0.5000 
     25 C          -1.2026  -21.3514  -42.8352 C.2       9 UNK         0.5000 
     26 O          -2.0267  -22.2595  -42.9308 O.2       9 UNK        -0.5000 
     27 CA         -1.6329  -20.0091  -42.2175 C.3       9 UNK         0.1400 
     28 CB         -1.1442  -19.8849  -40.7668 C.3       9 UNK        -0.1800 
     29 N          -1.1631  -18.8644  -42.9964 N.am      9 UNK        -0.5000 
     30 C          -1.5077  -18.6130  -44.2679 C.2       8 UNK         0.5000 
     31 O          -2.3176  -19.2851  -44.9069 O.2       8 UNK        -0.5000 
     32 CA         -0.7688  -17.4571  -44.9609 C.3       8 UNK         0.1400 
     33 CB         -1.3815  -16.0987  -44.5890 C.3       8 UNK        -0.1800 
     34 N           0.6569  -17.4644  -44.6349 N.am      8 UNK        -0.5000 
     35 C           1.5298  -18.3737  -45.0894 C.2       7 UNK         0.5000 
     36 O           1.2272  -19.2824  -45.8600 O.2       7 UNK        -0.5000 
     37 CA          2.9750  -18.2738  -44.5708 C.3       7 UNK         0.1400 
     38 CB          3.8098  -17.3706  -45.4868 C.3       7 UNK        -0.1800 
     39 N           3.0468  -17.8033  -43.1833 N.am      7 UNK        -0.5000 
     40 C           2.6465  -18.5558  -42.1471 C.2       6 UNK         0.5000 
     41 O           2.1533  -19.6768  -42.2739 O.2       6 UNK        -0.5000 
     42 CA          2.7928  -17.9602  -40.7374 C.3       6 UNK         0.1400 
     43 CB          4.2564  -18.0187  -40.2752 C.3       6 UNK        -0.1800 
     44 N           2.3045  -16.5894  -40.6018 N.am      6 UNK        -0.5000 
     45 C           1.0837  -16.1342  -40.9063 C.2       5 UNK         0.5000 
     46 O           0.2192  -16.8164  -41.4566 O.2       5 UNK        -0.5000 
     47 CA          0.7731  -14.6636  -40.5544 C.3       5 UNK         0.1400 
     48 CB          0.2991  -14.5308  -39.0956 C.3       5 UNK        -0.1800 
     49 N           1.8628  -13.7253  -40.8595 N.am      5 UNK        -0.5000 
     50 C           3.0923  -13.6331  -40.3252 C.2       4 UNK         0.5000 
     51 O           3.4699  -14.2907  -39.3541 O.2       4 UNK        -0.5000 
     52 CA          4.0797  -12.7059  -41.0717 C.3       4 UNK         0.1400 
     53 CB          5.5562  -13.0069  -40.7412 C.3       4 UNK        -0.1800 
     54 N           3.8556  -12.7278  -42.5239 N.am      4 UNK        -0.5000 
     55 C           3.8746  -13.7993  -43.3281 C.2       3 UNK         0.5000 
     56 O           4.2323  -14.9240  -42.9708 O.2       3 UNK        -0.5000 
     57 CA          3.3100  -13.6353  -44.7512 C.3       3 UNK         0.1400 
     58 CB          1.8412  -14.1041  -44.7728 C.3       3 UNK        -0.1800 
     59 N           3.4362  -12.3306  -45.4143 N.am      3 UNK        -0.5000 
     60 C           2.9541  -11.1262  -45.0699 C.2       2 UNK         0.5000 
     61 O           2.4348  -10.8634  -43.9853 O.2       2 UNK        -0.5000 
     62 CA          3.0063  -10.0590  -46.1789 C.3       2 UNK         0.1400 
     63 CB          4.4453   -9.5812  -46.4310 C.3       2 UNK        -0.1800 
     64 N           2.4342  -10.6007  -47.4163 N.am      2 UNK        -0.5000 
     65 C           1.1190  -10.7860  -47.6025 C.2       1 UNK         0.5000 
     66 O           0.2620  -10.3154  -46.8514 O.2       1 UNK        -0.5000 
     67 C          -2.5959  -22.2218  -47.1933 C.2       11 UNK         0.5000 
     68 O          -3.0765  -23.0041  -48.0159 O.2       11 UNK        -0.5000 
     69 N          -3.2451  -21.8097  -46.0958 N.am      12 UNK        -0.5000 
     70 CA         -4.5634  -22.2871  -45.6856 C.3       12 UNK         0.1400 
     71 CB         -5.1125  -21.3906  -44.5659 C.3       12 UNK        -0.1800 
     72 C          -4.5483  -23.7669  -45.2627 C.2       12 UNK         0.5000 
     73 O          -5.3850  -24.5352  -45.7367 O.2       12 UNK        -0.5000 
     74 N          -3.5860  -24.1489  -44.4106 N.am      13 UNK        -0.5000 
     75 CA         -3.4151  -25.5096  -43.8907 C.3       13 UNK         0.1400 
     76 CB         -2.3226  -25.5140  -42.8111 C.3       13 UNK        -0.1800 
     77 C          -3.0999  -26.5513  -44.9801 C.2       13 UNK         0.5000 
     78 O          -3.6080  -27.6712  -44.9160 O.2       13 UNK        -0.5000 
     79 N          -2.2957  -26.1558  -45.9754 N.am      14 UNK        -0.5000 
     80 CA         -1.9606  -26.9613  -47.1512 C.3       14 UNK         0.1400 
     81 CB         -0.7042  -26.3673  -47.8093 C.3       14 UNK        -0.1800 
     82 C          -3.1031  -27.0504  -48.1837 C.2       14 UNK         0.5000 
     83 O          -2.9987  -27.8440  -49.1193 O.2       14 UNK        -0.5000 
     84 N          -4.1397  -26.2114  -48.0267 N.am      15 UNK        -0.5000 
     85 CA         -5.2637  -25.9838  -48.9437 C.3       15 UNK         0.1400 
     86 CB         -6.1007  -27.2628  -49.1472 C.3       15 UNK        -0.1800 
     87 C          -4.8446  -25.3300  -50.2779 C.2       15 UNK         0.5000 
     88 O          -5.6352  -25.2965  -51.2209 O.2       15 UNK        -0.5000 
     89 N          -3.6305  -24.7678  -50.3230 N.am      16 UNK        -0.5000 
     90 CA         -3.0825  -24.0172  -51.4492 C.3       16 UNK         0.1400 
     91 CB         -1.5814  -23.7963  -51.2124 C.3       16 UNK        -0.1800 
     92 C          -3.8245  -22.6870  -51.6674 C.2       16 UNK         0.5000 
     93 O          -4.0146  -22.2772  -52.8125 O.2       16 UNK        -0.5000 
     94 N          -4.2835  -22.0699  -50.5691 N.am      17 UNK        -0.5000 
     95 CA         -5.1240  -20.8730  -50.5842 C.3       17 UNK         0.1400 
     96 CB         -5.2124  -20.2881  -49.1670 C.3       17 UNK        -0.1800 
     97 C          -6.5317  -21.1599  -51.1382 C.2       17 UNK         0.5000 
     98 O          -7.0711  -20.3378  -51.8780 O.2       17 UNK        -0.5000 
     99 N          -7.0837  -22.3348  -50.7995 N.am      18 UNK        -0.5000 
    100 CA        -8.3789  -22.8185  -51.2845 C.3       18 UNK         0.1400 
    101 CB        -8.8489  -23.9933  -50.4128 C.3       18 UNK        -0.1800 
    102 C         -8.3298  -23.2174  -52.7709 C.2       18 UNK         0.5000 
    103 O         -9.2778  -22.9444  -53.5075 O.2       18 UNK        -0.5000 
    104 N         -7.2059  -23.8145  -53.1915 N.am      19 UNK        -0.5000 
    105 CA        -6.8896  -24.1326  -54.5861 C.3       19 UNK         0.1400 
    106 CB        -5.7121  -25.1198  -54.6103 C.3       19 UNK        -0.1800 
    107 C         -6.5605  -22.8903  -55.4416 C.2       19 UNK         0.5000 
    108 O         -6.5460  -22.9960  -56.6686 O.2       19 UNK        -0.5000 
    109 N         -6.2943  -21.7525  -54.7821 N.am      20 UNK        -0.5000 
    110 CA        -5.8888  -20.4597  -55.3381 C.3       20 UNK         0.1400 
    111 CB        -7.0120  -19.8487  -56.2011 C.3       20 UNK        -0.1800 
    112 C         -4.5317  -20.5360  -56.0656 C.2       20 UNK         0.5000 
    113 O         -4.3611  -19.9451  -57.1358 O.2       20 UNK        -0.5000 
    114 N         -3.5720  -21.2463  -55.4549 N.am      21 UNK        -0.5000 
    115 CA        -2.2190  -21.5171  -55.9568 C.3       21 UNK         0.1400 
    116 CB        -1.6453  -22.7194  -55.1878 C.3       21 UNK        -0.1800 
    117 C         -1.2733  -20.2914  -55.9252 C.2       21 UNK         0.5000 
    118 O         -0.0948  -20.4173  -55.5884 O.2       21 UNK        -0.5000 
    119 N         -1.8107  -19.1265  -56.2878 N.am      22 UNK        -0.5000 
    120 CA        -1.1266  -17.8389  -56.4327 C.3       22 UNK         0.1400 
    121 C         -1.8194  -16.9081  -57.4753 C.2       22 UNK         0.5000 
    122 N         -2.8840  -17.3261  -58.1556 N.am      22 UNK        -0.7600 
    123 O         -1.3767  -15.7846  -57.6950 O.2       22 UNK        -0.5000 
    124 C124       -0.8875  -17.1534  -55.0577 C.3       23 UNK        -0.0398 
    125 S125        0.6597  -16.1865  -55.0101 S.3       23 UNK        -0.2404 
    126 C126        1.8118  -17.3724  -54.2456 C.3       23 UNK        -0.0205 
    127 H127       -2.4385  -10.2558  -50.7875 H         1 UNK         0.0600 
    128 H128       -3.4021   -9.9548  -49.3390 H         1 UNK         0.0600 
    129 H129       -3.5691  -11.4827  -50.2102 H         1 UNK         0.0600 
    130 H130       -0.3592  -10.7353  -50.3142 H         1 UNK         0.3000 
    131 H131        1.4962  -11.5843  -49.5492 H         1 UNK         0.0600 
    132 H132       -0.0009  -13.3370  -47.5256 H         1 UNK         0.0800 
    133 H133        1.6856  -13.4412  -47.9376 H         1 UNK         0.0800 
    134 H134        1.7425  -15.9069  -48.5082 H         1 UNK         0.0800 
    135 H135        2.6210  -15.0387  -49.7497 H         1 UNK         0.0800 
    136 H136        2.0735  -15.5684  -52.2240 H         1 UNK         0.1150 
    137 H137        0.9343  -19.6284  -52.9842 H         1 UNK         0.1150 
    138 H138        0.8794  -18.0972  -48.9765 H         1 UNK         0.1150 
    139 H139        1.0763  -20.7096  -49.6146 H         1 UNK         0.0800 
    140 H140        0.5206  -21.1251  -51.2099 H         1 UNK         0.0800 
    141 H141       -1.9044  -19.6471  -47.6480 H         1 UNK         0.0800 
    142 H142       -0.1921  -19.7982  -47.8510 H         1 UNK         0.0800 
    143 H143       -0.6429  -22.4036  -48.0394 H         1 UNK         0.0600 
    144 H144       -0.0245  -20.8151  -45.8164 H         1 UNK         0.3000 
    145 H145        0.4259  -23.4688  -43.4330 H         1 UNK         0.0600 
    146 H146        2.5162  -23.2757  -44.7665 H         1 UNK         0.0600 
    147 H147        2.6168  -22.3187  -43.2961 H         1 UNK         0.0600 
    148 H148        2.3301  -21.5293  -44.8448 H         1 UNK         0.0600 
    149 H149        0.6924  -20.6647  -43.1251 H         1 UNK         0.3000 
    150 H150       -2.7244  -19.9809  -42.2121 H         1 UNK         0.0600 
    151 H151       -0.0559  -19.8840  -40.7049 H         1 UNK         0.0600 
    152 H152       -1.5075  -20.7153  -40.1604 H         1 UNK         0.0600 
    153 H153       -1.5041  -18.9638  -40.3081 H         1 UNK         0.0600 
    154 H154       -0.5190  -18.2318  -42.5295 H         1 UNK         0.3000 
    155 H155       -0.8760  -17.5914  -46.0396 H         1 UNK         0.0600 
    156 H156       -0.9122  -15.2891  -45.1479 H         1 UNK         0.0600 
    157 H157       -1.2743  -15.8802  -43.5263 H         1 UNK         0.0600 
    158 H158       -2.4467  -16.0763  -44.8222 H         1 UNK         0.0600 
    159 H159        0.9700  -16.8020  -43.9418 H         1 UNK         0.3000 
    160 H160        3.4130  -19.2736  -44.6057 H         1 UNK         0.0600 
    161 H161        3.3115  -16.4218  -45.6693 H         1 UNK         0.0600 
    162 H162        3.9590  -17.8434  -46.4583 H         1 UNK         0.0600 
    163 H163        4.7950  -17.1677  -45.0663 H         1 UNK         0.0600 
    164 H164        3.4509  -16.8879  -43.0125 H         1 UNK         0.3000 
    165 H165        2.1994  -18.5787  -40.0612 H         1 UNK         0.0600 
    166 H166        4.6534  -19.0317  -40.3547 H         1 UNK         0.0600 
    167 H167        4.8929  -17.3662  -40.8748 H         1 UNK         0.0600 
    168 H168        4.3529  -17.7130  -39.2333 H         1 UNK         0.0600 
    169 H169        2.9326  -15.9305  -40.1508 H         1 UNK         0.3000 
    170 H170       -0.0582  -14.3638  -41.1946 H         1 UNK         0.0600 
    171 H171        0.0261  -13.5017  -38.8621 H         1 UNK         0.0600 
    172 H172        1.0639  -14.8450  -38.3850 H         1 UNK         0.0600 
    173 H173       -0.5814  -15.1493  -38.9173 H         1 UNK         0.0600 
    174 H174        1.6879  -13.1361  -41.6613 H         1 UNK         0.3000 
    175 H175        3.8621  -11.6907  -40.7376 H         1 UNK         0.0600 
    176 H176        5.8270  -14.0338  -40.9888 H         1 UNK         0.0600 
    177 H177        5.7554  -12.8642  -39.6786 H         1 UNK         0.0600 
    178 H178        6.2251  -12.3427  -41.2881 H         1 UNK         0.0600 
    179 H179        3.4689  -11.8752  -42.9250 H         1 UNK         0.3000 
    180 H180        3.8946  -14.3148  -45.3701 H         1 UNK         0.0600 
    181 H181        1.1633  -13.3485  -44.3750 H         1 UNK         0.0600 
    182 H182        1.7034  -15.0012  -44.1707 H         1 UNK         0.0600 
    183 H183        1.5181  -14.3478  -45.7828 H         1 UNK         0.0600 
    184 H184        3.8933  -12.3802  -46.3129 H         1 UNK         0.3000 
    185 H185        2.4162   -9.1991  -45.8542 H         1 UNK         0.0600 
    186 H186        4.8879   -9.1820  -45.5174 H         1 UNK         0.0600 
    187 H187        5.0904  -10.3866  -46.7836 H         1 UNK         0.0600 
    188 H188        4.4684   -8.7855  -47.1759 H         1 UNK         0.0600 
    189 H189        3.0862  -10.9768  -48.0896 H         1 UNK         0.3000 
    190 H190       -2.8007  -21.1216  -45.4953 H         1 UNK         0.3000 
    191 H191       -5.2347  -22.2002  -46.5411 H         1 UNK         0.0600 
    192 H192       -5.1910  -20.3546  -44.8962 H         1 UNK         0.0600 
    193 H193       -6.1091  -21.7125  -44.2614 H         1 UNK         0.0600 
    194 H194       -4.4762  -21.4097  -43.6812 H         1 UNK         0.0600 
    195 H195       -2.9521  -23.4442  -44.0401 H         1 UNK         0.3000 
    196 H196       -4.3562  -25.8018  -43.4206 H         1 UNK         0.0600 
    197 H197       -2.5807  -24.8499  -41.9861 H         1 UNK         0.0600 
    198 H198       -1.3615  -25.1917  -43.2127 H         1 UNK         0.0600 
    199 H199       -2.1872  -26.5127  -42.3941 H         1 UNK         0.0600 
    200 H200       -1.8577  -25.2394  -45.9158 H         1 UNK         0.3000 
    201 H201       -1.7305  -27.9777  -46.8254 H         1 UNK         0.0600 
    202 H202       -0.3948  -26.9561  -48.6738 H         1 UNK         0.0600 
    203 H203        0.1343  -26.3499  -47.1130 H         1 UNK         0.0600 
    204 H204       -0.8757  -25.3455  -48.1515 H         1 UNK         0.0600 
    205 H205       -4.1349  -25.6123  -47.2099 H         1 UNK         0.3000 
    206 H206       -5.9038  -25.2535  -48.4471 H         1 UNK         0.0600 
    207 H207       -6.3802  -27.7068  -48.1918 H         1 UNK         0.0600 
    208 H208       -7.0242  -27.0433  -49.6841 H         1 UNK         0.0600 
    209 H209       -5.5630  -28.0150  -49.7245 H         1 UNK         0.0600 
    210 H210       -3.0910  -24.7523  -49.4682 H         1 UNK         0.3000 
    211 H211       -3.2021  -24.6155  -52.3542 H         1 UNK         0.0600 
    212 H212       -1.0402  -24.7424  -51.2288 H         1 UNK         0.0600 
    213 H213       -1.1445  -23.1577  -51.9792 H         1 UNK         0.0600 
    214 H214       -1.3919  -23.3250  -50.2488 H         1 UNK         0.0600 
    215 H215       -4.0306  -22.4524  -49.6634 H         1 UNK         0.3000 
    216 H216       -4.6493  -20.1325  -51.2316 H         1 UNK         0.0600 
    217 H217       -5.6864  -20.9833  -48.4748 H         1 UNK         0.0600 
    218 H218       -5.7995  -19.3691  -49.1613 H         1 UNK         0.0600 
    219 H219       -4.2255  -20.0431  -48.7760 H         1 UNK         0.0600 
    220 H220       -6.5548  -22.9629  -50.2146 H         1 UNK         0.3000 
    221 H221       -9.1050  -22.0093  -51.1807 H         1 UNK         0.0600 
    222 H222       -8.1712  -24.8445  -50.4766 H         1 UNK         0.0600 
    223 H223       -8.9249  -23.7022  -49.3651 H         1 UNK         0.0600 
    224 H224       -9.8351  -24.3382  -50.7261 H         1 UNK         0.0600 
    225 H225       -6.5142  -24.0880  -52.4999 H         1 UNK         0.3000 
    226 H226       -7.7578  -24.6210  -55.0328 H         1 UNK         0.0600 
    227 H227       -5.9373  -26.0190  -54.0365 H         1 UNK         0.0600 
    228 H228       -5.4836  -25.4328  -55.6298 H         1 UNK         0.0600 
    229 H229       -4.8083  -24.6739  -54.1945 H         1 UNK         0.0600 
    230 H230       -6.3039  -21.7990  -53.7726 H         1 UNK         0.3000 
    231 H231       -5.7366  -19.7987  -54.4837 H         1 UNK         0.0600 
    232 H232       -7.1835  -20.4217  -57.1126 H         1 UNK         0.0600 
    233 H233       -6.7635  -18.8295  -56.4991 H         1 UNK         0.0600 
    234 H234       -7.9514  -19.8052  -55.6498 H         1 UNK         0.0600 
    235 H235       -3.7894  -21.6517  -54.5463 H         1 UNK         0.3000 
    236 H236       -2.3090  -21.8108  -57.0043 H         1 UNK         0.0600 
    237 H237       -1.4777  -22.4700  -54.1409 H         1 UNK         0.0600 
    238 H238       -2.3197  -23.5751  -55.2263 H         1 UNK         0.0600 
    239 H239       -0.6909  -23.0387  -55.6081 H         1 UNK         0.0600 
    240 H240       -2.7875  -19.1429  -56.5608 H         1 UNK         0.3000 
    241 H241       -0.1554  -18.0673  -56.8756 H         1 UNK         0.0600 
    242 H242       -3.2853  -18.2451  -58.0315 H         1 UNK         0.3800 
    243 H243       -3.3003  -16.7001  -58.8274 H         1 UNK         0.3800 
    244 H244       -1.7213  -16.4999  -54.7965 H         1 UNK         0.0800 
    245 H245       -0.8481  -17.8948  -54.2594 H         1 UNK         0.0800 
    246 H246        1.7661  -18.3189  -54.7874 H         1 UNK         0.0800 
    247 H247        2.8301  -17.0003  -54.3656 H         1 UNK         0.0800 
@<TRIPOS>BOND
     1    1    2 1    
     2    1  127 1    
     3    1  128 1    
     4    1  129 1    
     5    2    3 2    
     6    2    4 am   BACKBONE|DICT|INTERRES
     7    4    5 1    
     8    4  130 1    
     9    5    6 1    
    10    5   65 1    
    11    5  131 1    
    12    6    7 1    
    13    6  132 1    
    14    6  133 1    
    15    7    8 1    
    16    8    9 1    
    17    8  134 1    
    18    8  135 1    
    19    9   10 ar   
    20    9   14 ar   
    21   10   11 ar   
    22   10  136 1    
    23   11   12 ar   
    24   11  126 1    
    25   12   13 ar   
    26   12  137 1    
    27   13   14 ar   
    28   13   15 1    
    29   14  138 1    
    30   15   16 1    
    31   15  139 1    
    32   15  140 1    
    33   16   17 1    
    34   17   18 1    
    35   17  141 1    
    36   17  142 1    
    37   18   19 1    
    38   18   67 1    
    39   18  143 1    
    40   19   20 am   BACKBONE|DICT|INTERRES
    41   19  144 1    
    42   20   21 2    
    43   20   22 1    
    44   22   23 1    
    45   22   24 1    
    46   22  145 1    
    47   23  146 1    
    48   23  147 1    
    49   23  148 1    
    50   24   25 am   BACKBONE|DICT|INTERRES
    51   24  149 1    
    52   25   26 2    
    53   25   27 1    
    54   27   28 1    
    55   27   29 1    
    56   27  150 1    
    57   28  151 1    
    58   28  152 1    
    59   28  153 1    
    60   29   30 am   BACKBONE|DICT|INTERRES
    61   29  154 1    
    62   30   31 2    
    63   30   32 1    
    64   32   33 1    
    65   32   34 1    
    66   32  155 1    
    67   33  156 1    
    68   33  157 1    
    69   33  158 1    
    70   34   35 am   BACKBONE|DICT|INTERRES
    71   34  159 1    
    72   35   36 2    
    73   35   37 1    
    74   37   38 1    
    75   37   39 1    
    76   37  160 1    
    77   38  161 1    
    78   38  162 1    
    79   38  163 1    
    80   39   40 am   BACKBONE|DICT|INTERRES
    81   39  164 1    
    82   40   41 2    
    83   40   42 1    
    84   42   43 1    
    85   42   44 1    
    86   42  165 1    
    87   43  166 1    
    88   43  167 1    
    89   43  168 1    
    90   44   45 am   BACKBONE|DICT|INTERRES
    91   44  169 1    
    92   45   46 2    
    93   45   47 1    
    94   47   48 1    
    95   47   49 1    
    96   47  170 1    
    97   48  171 1    
    98   48  172 1    
    99   48  173 1    
   100   49   50 am   BACKBONE|DICT|INTERRES
   101   49  174 1    
   102   50   51 2    
   103   50   52 1    
   104   52   53 1    
   105   52   54 1    
   106   52  175 1    
   107   53  176 1    
   108   53  177 1    
   109   53  178 1    
   110   54   55 am   BACKBONE|DICT|INTERRES
   111   54  179 1    
   112   55   56 2    
   113   55   57 1    
   114   57   58 1    
   115   57   59 1    
   116   57  180 1    
   117   58  181 1    
   118   58  182 1    
   119   58  183 1    
   120   59   60 am   BACKBONE|DICT|INTERRES
   121   59  184 1    
   122   60   61 2    
   123   60   62 1    
   124   62   63 1    
   125   62   64 1    
   126   62  185 1    
   127   63  186 1    
   128   63  187 1    
   129   63  188 1    
   130   64   65 am   BACKBONE|DICT|INTERRES
   131   64  189 1    
   132   65   66 2    
   133   67   68 2    
   134   67   69 am   BACKBONE|DICT|INTERRES
   135   69   70 1    
   136   69  190 1    
   137   70   71 1    
   138   70   72 1    
   139   70  191 1    
   140   71  192 1    
   141   71  193 1    
   142   71  194 1    
   143   72   73 2    
   144   72   74 am   BACKBONE|DICT|INTERRES
   145   74   75 1    
   146   74  195 1    
   147   75   76 1    
   148   75   77 1    
   149   75  196 1    
   150   76  197 1    
   151   76  198 1    
   152   76  199 1    
   153   77   78 2    
   154   77   79 am   BACKBONE|DICT|INTERRES
   155   79   80 1    
   156   79  200 1    
   157   80   81 1    
   158   80   82 1    
   159   80  201 1    
   160   81  202 1    
   161   81  203 1    
   162   81  204 1    
   163   82   83 2    
   164   82   84 am   BACKBONE|DICT|INTERRES
   165   84   85 1    
   166   84  205 1    
   167   85   86 1    
   168   85   87 1    
   169   85  206 1    
   170   86  207 1    
   171   86  208 1    
   172   86  209 1    
   173   87   88 2    
   174   87   89 am   BACKBONE|DICT|INTERRES
   175   89   90 1    
   176   89  210 1    
   177   90   91 1    
   178   90   92 1    
   179   90  211 1    
   180   91  212 1    
   181   91  213 1    
   182   91  214 1    
   183   92   93 2    
   184   92   94 am   BACKBONE|DICT|INTERRES
   185   94   95 1    
   186   94  215 1    
   187   95   96 1    
   188   95   97 1    
   189   95  216 1    
   190   96  217 1    
   191   96  218 1    
   192   96  219 1    
   193   97   98 2    
   194   97   99 am   BACKBONE|DICT|INTERRES
   195   99  100 1    
   196   99  220 1    
   197  100  101 1    
   198  100  102 1    
   199  100  221 1    
   200  101  222 1    
   201  101  223 1    
   202  101  224 1    
   203  102  103 2    
   204  102  104 am   BACKBONE|DICT|INTERRES
   205  104  105 1    
   206  104  225 1    
   207  105  106 1    
   208  105  107 1    
   209  105  226 1    
   210  106  227 1    
   211  106  228 1    
   212  106  229 1    
   213  107  108 2    
   214  107  109 am   BACKBONE|DICT|INTERRES
   215  109  110 1    
   216  109  230 1    
   217  110  111 1    
   218  110  112 1    
   219  110  231 1    
   220  111  232 1    
   221  111  233 1    
   222  111  234 1    
   223  112  113 2    
   224  112  114 am   BACKBONE|DICT|INTERRES
   225  114  115 1    
   226  114  235 1    
   227  115  116 1    
   228  115  117 1    
   229  115  236 1    
   230  116  237 1    
   231  116  238 1    
   232  116  239 1    
   233  117  118 2    
   234  117  119 am   BACKBONE|DICT|INTERRES
   235  119  120 1    
   236  119  240 1    
   237  120  121 1    
   238  120  124 1    
   239  120  241 1    
   240  121  122 am   BACKBONE|DICT|INTERRES
   241  121  123 2    
   242  122  242 1    
   243  122  243 1    
   244  124  125 1    
   245  124  244 1    
   246  124  245 1    
   247  125  126 1    
   248  126  246 1    
   249  126  247 1    
@<TRIPOS>SUBSTRUCTURE
     1 UNK         1 GROUP             0       ****    0 ROOT    
