@<TRIPOS>MOLECULE
3R540
247   249    1
SMALL
USER_CHARGES


@<TRIPOS>ATOM
      1 CA          2.5513  -16.5332  -47.1996 C.3       0 UNK        -0.1800 
      2 C           1.6423  -15.4089  -46.7266 C.2       0 UNK         0.5000 
      3 O           1.9868  -14.6952  -45.7866 O.2       0 UNK        -0.5000 
      4 N           0.4941  -15.2320  -47.3953 N.am      1 UNK        -0.5000 
      5 CA         -0.5492  -14.2370  -47.0903 C.3       1 UNK         0.1400 
      6 C6         -1.8672  -14.5340  -47.8475 C.3       23 UNK        -0.0398 
      7 S7         -2.6701  -16.0670  -47.2689 S.3       23 UNK        -0.2404 
      8 C8         -3.4838  -16.6557  -48.7905 C.3       23 UNK        -0.0205 
      9 C9         -2.7780  -17.8457  -49.4300 C.ar      23 UNK        -0.0193 
     10 C10        -3.5327  -18.9305  -49.8818 C.ar      23 UNK        -0.1150 
     11 C11        -2.9152  -20.0220  -50.4958 C.ar      23 UNK        -0.0193 
     12 C12        -1.5256  -20.0346  -50.6471 C.ar      23 UNK        -0.1150 
     13 C13        -0.7555  -18.9560  -50.2000 C.ar      23 UNK        -0.0193 
     14 C14        -1.3904  -17.8630  -49.6038 C.ar      23 UNK        -0.1150 
     15 C15         0.7560  -18.9372  -50.3909 C.3       23 UNK        -0.0205 
     16 S16         1.6283  -20.3069  -49.5621 S.3       23 UNK        -0.2404 
     17 C17         1.1445  -20.1451  -47.8053 C.3       23 UNK        -0.0398 
     18 CA          0.7736  -21.5192  -47.1932 C.3       11 UNK         0.1400 
     19 N           0.8698  -21.5398  -45.7301 N.am      11 UNK        -0.5000 
     20 C           0.8064  -22.6585  -44.9902 C.2       10 UNK         0.5000 
     21 O           0.6873  -23.7865  -45.4654 O.2       10 UNK        -0.5000 
     22 CA          0.8199  -22.4978  -43.4614 C.3       10 UNK         0.1400 
     23 CB          2.2337  -22.1840  -42.9527 C.3       10 UNK        -0.1800 
     24 N          -0.1196  -21.4773  -43.0024 N.am      10 UNK        -0.5000 
     25 C          -1.4476  -21.5341  -43.1792 C.2       9 UNK         0.5000 
     26 O          -2.0293  -22.4766  -43.7162 O.2       9 UNK        -0.5000 
     27 CA         -2.2586  -20.3148  -42.7102 C.3       9 UNK         0.1400 
     28 CB         -2.5661  -20.4065  -41.2080 C.3       9 UNK        -0.1800 
     29 N          -1.5787  -19.0516  -42.9920 N.am      9 UNK        -0.5000 
     30 C          -1.3379  -18.5718  -44.2200 C.2       8 UNK         0.5000 
     31 O          -1.6658  -19.1436  -45.2603 O.2       8 UNK        -0.5000 
     32 CA         -0.5422  -17.2565  -44.2812 C.3       8 UNK         0.1400 
     33 CB         -1.3787  -16.0804  -43.7518 C.3       8 UNK        -0.1800 
     34 N           0.7023  -17.3300  -43.5171 N.am      8 UNK        -0.5000 
     35 C           1.7060  -18.1871  -43.7576 C.2       7 UNK         0.5000 
     36 O           1.7209  -18.9777  -44.7006 O.2       7 UNK        -0.5000 
     37 CA          2.8716  -18.1986  -42.7474 C.3       7 UNK         0.1400 
     38 CB          3.9432  -17.1808  -43.1667 C.3       7 UNK        -0.1800 
     39 N           2.4555  -17.9127  -41.3731 N.am      7 UNK        -0.5000 
     40 C           1.4978  -18.5541  -40.6868 C.2       6 UNK         0.5000 
     41 O           0.9377  -19.5722  -41.0929 O.2       6 UNK        -0.5000 
     42 CA          1.0430  -17.9288  -39.3505 C.3       6 UNK         0.1400 
     43 CB          1.5220  -18.7863  -38.1695 C.3       6 UNK        -0.1800 
     44 N           1.4692  -16.5394  -39.1325 N.am      6 UNK        -0.5000 
     45 C           1.1914  -15.4875  -39.9169 C.2       5 UNK         0.5000 
     46 O           0.5470  -15.5702  -40.9660 O.2       5 UNK        -0.5000 
     47 CA          1.8136  -14.1475  -39.4740 C.3       5 UNK         0.1400 
     48 CB          3.3487  -14.2066  -39.5718 C.3       5 UNK        -0.1800 
     49 N           1.3606  -13.0115  -40.2725 N.am      5 UNK        -0.5000 
     50 C           0.1354  -12.4705  -40.2659 C.2       4 UNK         0.5000 
     51 O          -0.7752  -12.8504  -39.5281 O.2       4 UNK        -0.5000 
     52 CA         -0.1028  -11.2795  -41.2209 C.3       4 UNK         0.1400 
     53 CB         -0.3344   -9.9854  -40.4237 C.3       4 UNK        -0.1800 
     54 N           1.0138  -11.0622  -42.1489 N.am      4 UNK        -0.5000 
     55 C           1.1815  -11.7246  -43.2996 C.2       3 UNK         0.5000 
     56 O           0.3714  -12.5417  -43.7421 O.2       3 UNK        -0.5000 
     57 CA          2.5018  -11.4609  -44.0430 C.3       3 UNK         0.1400 
     58 CB          3.6012  -12.3968  -43.5133 C.3       3 UNK        -0.1800 
     59 N           2.3220  -11.7135  -45.4681 N.am      3 UNK        -0.5000 
     60 C           2.1537  -10.7701  -46.4052 C.2       2 UNK         0.5000 
     61 O           2.2634   -9.5625  -46.1880 O.2       2 UNK        -0.5000 
     62 CA          1.7813  -11.2487  -47.8259 C.3       2 UNK         0.1400 
     63 CB          3.0344  -11.3440  -48.7095 C.3       2 UNK        -0.1800 
     64 N           1.1019  -12.5449  -47.8235 N.am      2 UNK        -0.5000 
     65 C          -0.1123  -12.7675  -47.3009 C.2       1 UNK         0.5000 
     66 O          -0.8719  -11.8589  -46.9614 O.2       1 UNK        -0.5000 
     67 C          -0.5993  -22.0210  -47.6811 C.2       11 UNK         0.5000 
     68 O          -0.6454  -22.8555  -48.5840 O.2       11 UNK        -0.5000 
     69 N          -1.6824  -21.5638  -47.0349 N.am      12 UNK        -0.5000 
     70 CA         -3.0510  -21.9856  -47.3351 C.3       12 UNK         0.1400 
     71 CB         -4.0430  -21.1681  -46.4963 C.3       12 UNK        -0.1800 
     72 C          -3.2890  -23.4983  -47.1670 C.2       12 UNK         0.5000 
     73 O          -4.0285  -24.0832  -47.9590 O.2       12 UNK        -0.5000 
     74 N          -2.6478  -24.1011  -46.1583 N.am      13 UNK        -0.5000 
     75 CA         -2.6852  -25.5358  -45.8986 C.3       13 UNK         0.1400 
     76 CB         -2.3263  -25.7929  -44.4260 C.3       13 UNK        -0.1800 
     77 C          -1.7576  -26.3304  -46.8362 C.2       13 UNK         0.5000 
     78 O          -2.2094  -27.2869  -47.4671 O.2       13 UNK        -0.5000 
     79 N          -0.4718  -25.9554  -46.8787 N.am      14 UNK        -0.5000 
     80 CA          0.5871  -26.7392  -47.5183 C.3       14 UNK         0.1400 
     81 CB          1.9414  -26.3606  -46.8989 C.3       14 UNK        -0.1800 
     82 C           0.6485  -26.5869  -49.0465 C.2       14 UNK         0.5000 
     83 O           1.0592  -27.5302  -49.7240 O.2       14 UNK        -0.5000 
     84 N           0.2652  -25.4153  -49.5635 N.am      15 UNK        -0.5000 
     85 CA          0.3489  -25.0540  -50.9751 C.3       15 UNK         0.1400 
     86 CB          1.4788  -24.0266  -51.1634 C.3       15 UNK        -0.1800 
     87 C          -1.0194  -24.5400  -51.4418 C.2       15 UNK         0.5000 
     88 O          -1.1211  -23.4320  -51.9745 O.2       15 UNK        -0.5000 
     89 N          -2.0499  -25.3718  -51.2292 N.am      16 UNK        -0.5000 
     90 CA         -3.4788  -25.1498  -51.4881 C.3       16 UNK         0.1400 
     91 CB         -4.2679  -26.2952  -50.8288 C.3       16 UNK        -0.1800 
     92 C          -3.8643  -24.9479  -52.9764 C.2       16 UNK         0.5000 
     93 O          -4.8509  -25.5173  -53.4456 O.2       16 UNK        -0.5000 
     94 N          -3.0906  -24.1231  -53.6842 N.am      17 UNK        -0.5000 
     95 CA         -3.2523  -23.7243  -55.0796 C.3       17 UNK         0.1400 
     96 CB         -2.9083  -24.9008  -56.0131 C.3       17 UNK        -0.1800 
     97 C          -2.3953  -22.4938  -55.4385 C.2       17 UNK         0.5000 
     98 O          -2.6616  -21.8753  -56.4692 O.2       17 UNK        -0.5000 
     99 N          -1.3812  -22.1543  -54.6233 N.am      18 UNK        -0.5000 
    100 CA        -0.3434  -21.1700  -54.9518 C.3       18 UNK         0.1400 
    101 CB         0.7605  -21.2194  -53.8853 C.3       18 UNK        -0.1800 
    102 C         -0.8381  -19.7256  -55.1565 C.2       18 UNK         0.5000 
    103 O         -0.2559  -19.0064  -55.9695 O.2       18 UNK        -0.5000 
    104 N         -1.9012  -19.3296  -54.4449 N.am      19 UNK        -0.5000 
    105 CA        -2.5316  -18.0121  -54.5775 C.3       19 UNK         0.1400 
    106 CB        -2.9720  -17.5158  -53.1907 C.3       19 UNK        -0.1800 
    107 C         -3.7142  -18.0145  -55.5676 C.2       19 UNK         0.5000 
    108 O         -4.3746  -16.9842  -55.7060 O.2       19 UNK        -0.5000 
    109 N         -3.9887  -19.1591  -56.2155 N.am      20 UNK        -0.5000 
    110 CA        -5.0445  -19.4462  -57.2008 C.3       20 UNK         0.1400 
    111 CB        -4.9109  -18.5482  -58.4450 C.3       20 UNK        -0.1800 
    112 C         -6.4843  -19.4164  -56.6459 C.2       20 UNK         0.5000 
    113 O         -7.2986  -20.2530  -57.0359 O.2       20 UNK        -0.5000 
    114 N         -6.7694  -18.4853  -55.7293 N.am      21 UNK        -0.5000 
    115 CA        -8.0419  -18.3235  -55.0207 C.3       21 UNK         0.1400 
    116 CB        -8.1191  -16.8789  -54.4995 C.3       21 UNK        -0.1800 
    117 C         -8.2416  -19.3323  -53.8675 C.2       21 UNK         0.5000 
    118 O         -9.2921  -19.3099  -53.2242 O.2       21 UNK        -0.5000 
    119 N         -7.2271  -20.1677  -53.6116 N.am      22 UNK        -0.5000 
    120 CA        -7.1587  -21.2124  -52.5793 C.3       22 UNK         0.1400 
    121 C         -8.3594  -22.2010  -52.5992 C.2       22 UNK         0.5000 
    122 N         -8.8939  -22.5626  -51.4406 N.am      22 UNK        -0.7600 
    123 O         -8.7765  -22.6794  -53.6515 O.2       22 UNK        -0.5000 
    124 C124       -5.8329  -22.0069  -52.6919 C.3       23 UNK        -0.0398 
    125 S125       -4.3523  -20.9388  -52.6670 S.3       23 UNK        -0.2404 
    126 C126       -3.7584  -21.1912  -50.9706 C.3       23 UNK        -0.0205 
    127 H127        3.4175  -16.1222  -47.7178 H         1 UNK         0.0600 
    128 H128        2.9083  -17.1136  -46.3502 H         1 UNK         0.0600 
    129 H129        2.0345  -17.2114  -47.8776 H         1 UNK         0.0600 
    130 H130        0.2844  -15.8445  -48.1678 H         1 UNK         0.3000 
    131 H131       -0.7576  -14.3142  -46.0223 H         1 UNK         0.0600 
    132 H132       -2.5934  -13.7314  -47.7058 H         1 UNK         0.0800 
    133 H133       -1.6790  -14.5880  -48.9210 H         1 UNK         0.0800 
    134 H134       -3.5660  -15.8515  -49.5223 H         1 UNK         0.0800 
    135 H135       -4.5070  -16.9277  -48.5272 H         1 UNK         0.0800 
    136 H136       -4.6073  -18.9246  -49.7653 H         1 UNK         0.1150 
    137 H137       -1.0446  -20.8873  -51.1038 H         1 UNK         0.1150 
    138 H138       -0.8039  -17.0194  -49.2769 H         1 UNK         0.1150 
    139 H139        1.1803  -17.9947  -50.0437 H         1 UNK         0.0800 
    140 H140        0.9698  -18.9868  -51.4592 H         1 UNK         0.0800 
    141 H141        0.3357  -19.4233  -47.6795 H         1 UNK         0.0800 
    142 H142        2.0040  -19.7272  -47.2803 H         1 UNK         0.0800 
    143 H143        1.5139  -22.2421  -47.5446 H         1 UNK         0.0600 
    144 H144        0.9893  -20.6415  -45.2686 H         1 UNK         0.3000 
    145 H145        0.5082  -23.4482  -43.0230 H         1 UNK         0.0600 
    146 H146        2.2476  -22.0547  -41.8703 H         1 UNK         0.0600 
    147 H147        2.9204  -22.9961  -43.1939 H         1 UNK         0.0600 
    148 H148        2.6312  -21.2777  -43.4064 H         1 UNK         0.0600 
    149 H149        0.2701  -20.6868  -42.4962 H         1 UNK         0.3000 
    150 H150       -3.2060  -20.3151  -43.2527 H         1 UNK         0.0600 
    151 H151       -1.6565  -20.3915  -40.6066 H         1 UNK         0.0600 
    152 H152       -3.0972  -21.3305  -40.9757 H         1 UNK         0.0600 
    153 H153       -3.1971  -19.5791  -40.8832 H         1 UNK         0.0600 
    154 H154       -1.2159  -18.5462  -42.1977 H         1 UNK         0.3000 
    155 H155       -0.2938  -17.0679  -45.3259 H         1 UNK         0.0600 
    156 H156       -2.3056  -15.9697  -44.3145 H         1 UNK         0.0600 
    157 H157       -0.8305  -15.1416  -43.8311 H         1 UNK         0.0600 
    158 H158       -1.6470  -16.2124  -42.7031 H         1 UNK         0.0600 
    159 H159        0.7690  -16.7180  -42.7104 H         1 UNK         0.3000 
    160 H160        3.3199  -19.1925  -42.7560 H         1 UNK         0.0600 
    161 H161        3.5534  -16.1616  -43.1636 H         1 UNK         0.0600 
    162 H162        4.3055  -17.3889  -44.1743 H         1 UNK         0.0600 
    163 H163        4.8048  -17.2144  -42.4997 H         1 UNK         0.0600 
    164 H164        2.8524  -17.0876  -40.9507 H         1 UNK         0.3000 
    165 H165       -0.0487  -17.9360  -39.3563 H         1 UNK         0.0600 
    166 H166        1.1205  -18.4186  -37.2250 H         1 UNK         0.0600 
    167 H167        2.6100  -18.7934  -38.0938 H         1 UNK         0.0600 
    168 H168        1.1939  -19.8212  -38.2775 H         1 UNK         0.0600 
    169 H169        2.0212  -16.3811  -38.3016 H         1 UNK         0.3000 
    170 H170        1.5303  -13.9697  -38.4346 H         1 UNK         0.0600 
    171 H171        3.7623  -14.9889  -38.9345 H         1 UNK         0.0600 
    172 H172        3.6794  -14.4052  -40.5924 H         1 UNK         0.0600 
    173 H173        3.7999  -13.2668  -39.2524 H         1 UNK         0.0600 
    174 H174        2.0241  -12.6421  -40.9344 H         1 UNK         0.3000 
    175 H175       -1.0096  -11.4942  -41.7905 H         1 UNK         0.0600 
    176 H176        0.5351   -9.7231  -39.8197 H         1 UNK         0.0600 
    177 H177       -0.5491   -9.1470  -41.0866 H         1 UNK         0.0600 
    178 H178       -1.1845  -10.0880  -39.7478 H         1 UNK         0.0600 
    179 H179        1.7176  -10.4004  -41.8531 H         1 UNK         0.3000 
    180 H180        2.8084  -10.4270  -43.8715 H         1 UNK         0.0600 
    181 H181        3.3211  -13.4465  -43.6163 H         1 UNK         0.0600 
    182 H182        3.8026  -12.2115  -42.4578 H         1 UNK         0.0600 
    183 H183        4.5371  -12.2478  -44.0520 H         1 UNK         0.0600 
    184 H184        2.1482  -12.6849  -45.7098 H         1 UNK         0.3000 
    185 H185        1.1073  -10.5081  -48.2614 H         1 UNK         0.0600 
    186 H186        2.7767  -11.6219  -49.7317 H         1 UNK         0.0600 
    187 H187        3.5532  -10.3856  -48.7551 H         1 UNK         0.0600 
    188 H188        3.7410  -12.0820  -48.3274 H         1 UNK         0.0600 
    189 H189        1.6581  -13.3470  -48.0794 H         1 UNK         0.3000 
    190 H190       -1.5719  -20.8586  -46.3124 H         1 UNK         0.3000 
    191 H191       -3.2309  -21.7548  -48.3817 H         1 UNK         0.0600 
    192 H192       -5.0721  -21.4426  -46.7307 H         1 UNK         0.0600 
    193 H193       -3.9377  -20.1008  -46.6939 H         1 UNK         0.0600 
    194 H194       -3.8937  -21.3288  -45.4288 H         1 UNK         0.0600 
    195 H195       -2.1011  -23.5333  -45.5199 H         1 UNK         0.3000 
    196 H196       -3.7050  -25.8927  -46.0577 H         1 UNK         0.0600 
    197 H197       -1.3332  -25.4155  -44.1786 H         1 UNK         0.0600 
    198 H198       -3.0396  -25.3088  -43.7587 H         1 UNK         0.0600 
    199 H199       -2.3401  -26.8597  -44.1996 H         1 UNK         0.0600 
    200 H200       -0.1684  -25.1412  -46.3472 H         1 UNK         0.3000 
    201 H201        0.4088  -27.7948  -47.3018 H         1 UNK         0.0600 
    202 H202        2.2014  -25.3219  -47.1069 H         1 UNK         0.0600 
    203 H203        2.7420  -26.9844  -47.2984 H         1 UNK         0.0600 
    204 H204        1.9333  -26.4944  -45.8170 H         1 UNK         0.0600 
    205 H205       -0.0982  -24.6849  -48.9554 H         1 UNK         0.3000 
    206 H206        0.5803  -25.9264  -51.5891 H         1 UNK         0.0600 
    207 H207        2.4280  -24.4097  -50.7892 H         1 UNK         0.0600 
    208 H208        1.6178  -23.7909  -52.2177 H         1 UNK         0.0600 
    209 H209        1.2641  -23.0947  -50.6400 H         1 UNK         0.0600 
    210 H210       -1.8320  -26.2535  -50.7882 H         1 UNK         0.3000 
    211 H211       -3.7633  -24.2362  -50.9679 H         1 UNK         0.0600 
    212 H212       -5.3432  -26.1298  -50.9062 H         1 UNK         0.0600 
    213 H213       -4.0339  -26.3742  -49.7665 H         1 UNK         0.0600 
    214 H214       -4.0457  -27.2559  -51.2947 H         1 UNK         0.0600 
    215 H215       -2.3204  -23.6991  -53.1722 H         1 UNK         0.3000 
    216 H216       -4.2946  -23.4439  -55.2398 H         1 UNK         0.0600 
    217 H217       -1.8889  -25.2529  -55.8511 H         1 UNK         0.0600 
    218 H218       -2.9934  -24.6093  -57.0608 H         1 UNK         0.0600 
    219 H219       -3.5818  -25.7439  -55.8613 H         1 UNK         0.0600 
    220 H220       -1.2291  -22.6627  -53.7602 H         1 UNK         0.3000 
    221 H221        0.1022  -21.4818  -55.8988 H         1 UNK         0.0600 
    222 H222        1.2507  -22.1919  -53.8794 H         1 UNK         0.0600 
    223 H223        0.3674  -21.0354  -52.8865 H         1 UNK         0.0600 
    224 H224        1.5314  -20.4721  -54.0781 H         1 UNK         0.0600 
    225 H225       -2.3338  -19.9791  -53.8011 H         1 UNK         0.3000 
    226 H226       -1.8042  -17.2930  -54.9592 H         1 UNK         0.0600 
    227 H227       -3.7810  -18.1172  -52.7787 H         1 UNK         0.0600 
    228 H228       -2.1426  -17.5361  -52.4844 H         1 UNK         0.0600 
    229 H229       -3.3278  -16.4861  -53.2379 H         1 UNK         0.0600 
    230 H230       -3.3789  -19.9480  -56.0310 H         1 UNK         0.3000 
    231 H231       -4.8637  -20.4727  -57.5236 H         1 UNK         0.0600 
    232 H232       -3.9124  -18.6195  -58.8763 H         1 UNK         0.0600 
    233 H233       -5.1046  -17.5000  -58.2165 H         1 UNK         0.0600 
    234 H234       -5.6206  -18.8478  -59.2171 H         1 UNK         0.0600 
    235 H235       -6.0342  -17.8183  -55.5090 H         1 UNK         0.3000 
    236 H236       -8.8578  -18.4764  -55.7299 H         1 UNK         0.0600 
    237 H237       -8.0306  -16.1606  -55.3148 H         1 UNK         0.0600 
    238 H238       -9.0716  -16.6884  -54.0035 H         1 UNK         0.0600 
    239 H239       -7.3255  -16.6698  -53.7809 H         1 UNK         0.0600 
    240 H240       -6.4075  -20.0854  -54.1928 H         1 UNK         0.3000 
    241 H241       -7.1628  -20.6942  -51.6186 H         1 UNK         0.0600 
    242 H242       -9.6626  -23.2152  -51.4406 H         1 UNK         0.3800 
    243 H243       -8.5679  -22.1867  -50.5636 H         1 UNK         0.3800 
    244 H244       -5.8182  -22.5737  -53.6238 H         1 UNK         0.0800 
    245 H245       -5.7603  -22.7448  -51.8912 H         1 UNK         0.0800 
    246 H246       -3.1702  -22.1055  -50.9208 H         1 UNK         0.0800 
    247 H247       -4.6075  -21.3258  -50.2990 H         1 UNK         0.0800 
@<TRIPOS>BOND
     1    1    2 1    
     2    1  127 1    
     3    1  128 1    
     4    1  129 1    
     5    2    3 2    
     6    2    4 am   BACKBONE|DICT|INTERRES
     7    4    5 1    
     8    4  130 1    
     9    5    6 1    
    10    5   65 1    
    11    5  131 1    
    12    6    7 1    
    13    6  132 1    
    14    6  133 1    
    15    7    8 1    
    16    8    9 1    
    17    8  134 1    
    18    8  135 1    
    19    9   10 ar   
    20    9   14 ar   
    21   10   11 ar   
    22   10  136 1    
    23   11   12 ar   
    24   11  126 1    
    25   12   13 ar   
    26   12  137 1    
    27   13   14 ar   
    28   13   15 1    
    29   14  138 1    
    30   15   16 1    
    31   15  139 1    
    32   15  140 1    
    33   16   17 1    
    34   17   18 1    
    35   17  141 1    
    36   17  142 1    
    37   18   19 1    
    38   18   67 1    
    39   18  143 1    
    40   19   20 am   BACKBONE|DICT|INTERRES
    41   19  144 1    
    42   20   21 2    
    43   20   22 1    
    44   22   23 1    
    45   22   24 1    
    46   22  145 1    
    47   23  146 1    
    48   23  147 1    
    49   23  148 1    
    50   24   25 am   BACKBONE|DICT|INTERRES
    51   24  149 1    
    52   25   26 2    
    53   25   27 1    
    54   27   28 1    
    55   27   29 1    
    56   27  150 1    
    57   28  151 1    
    58   28  152 1    
    59   28  153 1    
    60   29   30 am   BACKBONE|DICT|INTERRES
    61   29  154 1    
    62   30   31 2    
    63   30   32 1    
    64   32   33 1    
    65   32   34 1    
    66   32  155 1    
    67   33  156 1    
    68   33  157 1    
    69   33  158 1    
    70   34   35 am   BACKBONE|DICT|INTERRES
    71   34  159 1    
    72   35   36 2    
    73   35   37 1    
    74   37   38 1    
    75   37   39 1    
    76   37  160 1    
    77   38  161 1    
    78   38  162 1    
    79   38  163 1    
    80   39   40 am   BACKBONE|DICT|INTERRES
    81   39  164 1    
    82   40   41 2    
    83   40   42 1    
    84   42   43 1    
    85   42   44 1    
    86   42  165 1    
    87   43  166 1    
    88   43  167 1    
    89   43  168 1    
    90   44   45 am   BACKBONE|DICT|INTERRES
    91   44  169 1    
    92   45   46 2    
    93   45   47 1    
    94   47   48 1    
    95   47   49 1    
    96   47  170 1    
    97   48  171 1    
    98   48  172 1    
    99   48  173 1    
   100   49   50 am   BACKBONE|DICT|INTERRES
   101   49  174 1    
   102   50   51 2    
   103   50   52 1    
   104   52   53 1    
   105   52   54 1    
   106   52  175 1    
   107   53  176 1    
   108   53  177 1    
   109   53  178 1    
   110   54   55 am   BACKBONE|DICT|INTERRES
   111   54  179 1    
   112   55   56 2    
   113   55   57 1    
   114   57   58 1    
   115   57   59 1    
   116   57  180 1    
   117   58  181 1    
   118   58  182 1    
   119   58  183 1    
   120   59   60 am   BACKBONE|DICT|INTERRES
   121   59  184 1    
   122   60   61 2    
   123   60   62 1    
   124   62   63 1    
   125   62   64 1    
   126   62  185 1    
   127   63  186 1    
   128   63  187 1    
   129   63  188 1    
   130   64   65 am   BACKBONE|DICT|INTERRES
   131   64  189 1    
   132   65   66 2    
   133   67   68 2    
   134   67   69 am   BACKBONE|DICT|INTERRES
   135   69   70 1    
   136   69  190 1    
   137   70   71 1    
   138   70   72 1    
   139   70  191 1    
   140   71  192 1    
   141   71  193 1    
   142   71  194 1    
   143   72   73 2    
   144   72   74 am   BACKBONE|DICT|INTERRES
   145   74   75 1    
   146   74  195 1    
   147   75   76 1    
   148   75   77 1    
   149   75  196 1    
   150   76  197 1    
   151   76  198 1    
   152   76  199 1    
   153   77   78 2    
   154   77   79 am   BACKBONE|DICT|INTERRES
   155   79   80 1    
   156   79  200 1    
   157   80   81 1    
   158   80   82 1    
   159   80  201 1    
   160   81  202 1    
   161   81  203 1    
   162   81  204 1    
   163   82   83 2    
   164   82   84 am   BACKBONE|DICT|INTERRES
   165   84   85 1    
   166   84  205 1    
   167   85   86 1    
   168   85   87 1    
   169   85  206 1    
   170   86  207 1    
   171   86  208 1    
   172   86  209 1    
   173   87   88 2    
   174   87   89 am   BACKBONE|DICT|INTERRES
   175   89   90 1    
   176   89  210 1    
   177   90   91 1    
   178   90   92 1    
   179   90  211 1    
   180   91  212 1    
   181   91  213 1    
   182   91  214 1    
   183   92   93 2    
   184   92   94 am   BACKBONE|DICT|INTERRES
   185   94   95 1    
   186   94  215 1    
   187   95   96 1    
   188   95   97 1    
   189   95  216 1    
   190   96  217 1    
   191   96  218 1    
   192   96  219 1    
   193   97   98 2    
   194   97   99 am   BACKBONE|DICT|INTERRES
   195   99  100 1    
   196   99  220 1    
   197  100  101 1    
   198  100  102 1    
   199  100  221 1    
   200  101  222 1    
   201  101  223 1    
   202  101  224 1    
   203  102  103 2    
   204  102  104 am   BACKBONE|DICT|INTERRES
   205  104  105 1    
   206  104  225 1    
   207  105  106 1    
   208  105  107 1    
   209  105  226 1    
   210  106  227 1    
   211  106  228 1    
   212  106  229 1    
   213  107  108 2    
   214  107  109 am   BACKBONE|DICT|INTERRES
   215  109  110 1    
   216  109  230 1    
   217  110  111 1    
   218  110  112 1    
   219  110  231 1    
   220  111  232 1    
   221  111  233 1    
   222  111  234 1    
   223  112  113 2    
   224  112  114 am   BACKBONE|DICT|INTERRES
   225  114  115 1    
   226  114  235 1    
   227  115  116 1    
   228  115  117 1    
   229  115  236 1    
   230  116  237 1    
   231  116  238 1    
   232  116  239 1    
   233  117  118 2    
   234  117  119 am   BACKBONE|DICT|INTERRES
   235  119  120 1    
   236  119  240 1    
   237  120  121 1    
   238  120  124 1    
   239  120  241 1    
   240  121  122 am   BACKBONE|DICT|INTERRES
   241  121  123 2    
   242  122  242 1    
   243  122  243 1    
   244  124  125 1    
   245  124  244 1    
   246  124  245 1    
   247  125  126 1    
   248  126  246 1    
   249  126  247 1    
@<TRIPOS>SUBSTRUCTURE
     1 UNK         1 GROUP             0       ****    0 ROOT    
