@<TRIPOS>MOLECULE
3R540
247   249    1
SMALL
USER_CHARGES


@<TRIPOS>ATOM
      1 CA         -1.4239  -15.7367  -50.7243 C.3       0 UNK        -0.1800 
      2 C          -0.7045  -14.4137  -50.5325 C.2       0 UNK         0.5000 
      3 O          -1.2255  -13.3654  -50.9141 O.2       0 UNK        -0.5000 
      4 N           0.4987  -14.4681  -49.9558 N.am      1 UNK        -0.5000 
      5 CA          1.3276  -13.3110  -49.6251 C.3       1 UNK         0.1400 
      6 C6          2.8177  -13.7131  -49.4739 C.3       23 UNK        -0.0398 
      7 S7          3.1331  -15.0453  -48.2603 S.3       23 UNK        -0.2404 
      8 C8          3.8935  -16.3424  -49.2893 C.3       23 UNK        -0.0205 
      9 C9          2.8701  -17.2529  -49.9572 C.ar      23 UNK        -0.0193 
     10 C10         2.3516  -16.9415  -51.2192 C.ar      23 UNK        -0.1150 
     11 C11         1.4669  -17.8169  -51.8583 C.ar      23 UNK        -0.0193 
     12 C12         1.1124  -19.0149  -51.2328 C.ar      23 UNK        -0.1150 
     13 C13         1.6286  -19.3429  -49.9787 C.ar      23 UNK        -0.0193 
     14 C14         2.4922  -18.4487  -49.3373 C.ar      23 UNK        -0.1150 
     15 C15         1.2966  -20.6861  -49.3473 C.3       23 UNK        -0.0205 
     16 S16        -0.4634  -20.8036  -48.8978 S.3       23 UNK        -0.2404 
     17 C17        -0.6776  -22.4098  -48.0336 C.3       23 UNK        -0.0398 
     18 CA          0.5742  -23.2095  -47.5675 C.3       11 UNK         0.1400 
     19 N           1.4090  -22.4544  -46.6248 N.am      11 UNK        -0.5000 
     20 C           2.7012  -22.6843  -46.3500 C.2       10 UNK         0.5000 
     21 O           3.3777  -23.5377  -46.9233 O.2       10 UNK        -0.5000 
     22 CA          3.3246  -21.8684  -45.1985 C.3       10 UNK         0.1400 
     23 CB          4.0213  -20.6069  -45.7315 C.3       10 UNK        -0.1800 
     24 N           2.3533  -21.5002  -44.1619 N.am      10 UNK        -0.5000 
     25 C           1.7200  -22.3762  -43.3663 C.2       9 UNK         0.5000 
     26 O           1.9260  -23.5897  -43.3927 O.2       9 UNK        -0.5000 
     27 CA          0.6339  -21.8170  -42.4273 C.3       9 UNK         0.1400 
     28 CB          1.2632  -21.1607  -41.1902 C.3       9 UNK        -0.1800 
     29 N          -0.2492  -20.8645  -43.1014 N.am      9 UNK        -0.5000 
     30 C          -1.0770  -21.1813  -44.1075 C.2       8 UNK         0.5000 
     31 O          -1.2523  -22.3321  -44.5115 O.2       8 UNK        -0.5000 
     32 CA         -1.7915  -20.0129  -44.8152 C.3       8 UNK         0.1400 
     33 CB         -3.0882  -19.6432  -44.0815 C.3       8 UNK        -0.1800 
     34 N          -0.9568  -18.8183  -44.9627 N.am      8 UNK        -0.5000 
     35 C           0.2231  -18.7830  -45.5994 C.2       7 UNK         0.5000 
     36 O           0.7348  -19.7566  -46.1390 O.2       7 UNK        -0.5000 
     37 CA          1.0048  -17.4643  -45.5447 C.3       7 UNK         0.1400 
     38 CB          0.3886  -16.4268  -46.4994 C.3       7 UNK        -0.1800 
     39 N           1.0631  -16.9715  -44.1652 N.am      7 UNK        -0.5000 
     40 C           1.7732  -17.5749  -43.1956 C.2       6 UNK         0.5000 
     41 O           2.5440  -18.5112  -43.4066 O.2       6 UNK        -0.5000 
     42 CA          1.5433  -17.1194  -41.7406 C.3       6 UNK         0.1400 
     43 CB          2.6558  -16.1902  -41.2334 C.3       6 UNK        -0.1800 
     44 N           0.2418  -16.4826  -41.5523 N.am      6 UNK        -0.5000 
     45 C          -0.9085  -17.1616  -41.4449 C.2       5 UNK         0.5000 
     46 O          -0.9731  -18.3909  -41.4323 O.2       5 UNK        -0.5000 
     47 CA         -2.2037  -16.3274  -41.4065 C.3       5 UNK         0.1400 
     48 CB         -2.5311  -15.9000  -39.9685 C.3       5 UNK        -0.1800 
     49 N          -2.1361  -15.1403  -42.2629 N.am      5 UNK        -0.5000 
     50 C          -1.9913  -15.1770  -43.5942 C.2       4 UNK         0.5000 
     51 O          -1.9683  -16.2268  -44.2351 O.2       4 UNK        -0.5000 
     52 CA         -1.8032  -13.8375  -44.3338 C.3       4 UNK         0.1400 
     53 CB         -2.4735  -12.6458  -43.6171 C.3       4 UNK        -0.1800 
     54 N          -0.3966  -13.5267  -44.6214 N.am      4 UNK        -0.5000 
     55 C           0.6177  -13.4094  -43.7458 C.2       3 UNK         0.5000 
     56 O           0.5278  -13.7077  -42.5546 O.2       3 UNK        -0.5000 
     57 CA          1.9566  -12.8381  -44.2699 C.3       3 UNK         0.1400 
     58 CB          2.9953  -13.9475  -44.4966 C.3       3 UNK        -0.1800 
     59 N           1.8238  -12.0771  -45.5109 N.am      3 UNK        -0.5000 
     60 C           1.1476  -10.9300  -45.6600 C.2       2 UNK         0.5000 
     61 O           0.6584  -10.3032  -44.7197 O.2       2 UNK        -0.5000 
     62 CA          0.9601  -10.4019  -47.1000 C.3       2 UNK         0.1400 
     63 CB          1.7501   -9.0988  -47.3015 C.3       2 UNK        -0.1800 
     64 N           1.3245  -11.3388  -48.1726 N.am      2 UNK        -0.5000 
     65 C           0.7856  -12.5471  -48.3941 C.2       1 UNK         0.5000 
     66 O          -0.0656  -13.0558  -47.6573 O.2       1 UNK        -0.5000 
     67 C           0.1479  -24.5872  -46.9903 C.2       11 UNK         0.5000 
     68 O          -0.6275  -25.2901  -47.6373 O.2       11 UNK        -0.5000 
     69 N           0.6386  -24.9527  -45.7942 N.am      12 UNK        -0.5000 
     70 CA          0.4090  -26.2050  -45.0679 C.3       12 UNK         0.1400 
     71 CB          0.9173  -27.4214  -45.8711 C.3       12 UNK        -0.1800 
     72 C          -1.0439  -26.3562  -44.5783 C.2       12 UNK         0.5000 
     73 O          -1.5927  -27.4590  -44.6018 O.2       12 UNK        -0.5000 
     74 N          -1.6352  -25.2347  -44.1380 N.am      13 UNK        -0.5000 
     75 CA         -2.9935  -25.0973  -43.5997 C.3       13 UNK         0.1400 
     76 CB         -3.1853  -25.9444  -42.3242 C.3       13 UNK        -0.1800 
     77 C          -4.1036  -25.3250  -44.6474 C.2       13 UNK         0.5000 
     78 O          -5.2531  -25.5709  -44.2806 O.2       13 UNK        -0.5000 
     79 N          -3.7584  -25.1818  -45.9341 N.am      14 UNK        -0.5000 
     80 CA         -4.6760  -25.2486  -47.0755 C.3       14 UNK         0.1400 
     81 CB         -3.8880  -25.7315  -48.3056 C.3       14 UNK        -0.1800 
     82 C          -5.3749  -23.9014  -47.3636 C.2       14 UNK         0.5000 
     83 O          -5.9946  -23.7669  -48.4175 O.2       14 UNK        -0.5000 
     84 N          -5.2368  -22.9354  -46.4414 N.am      15 UNK        -0.5000 
     85 CA         -5.5623  -21.5086  -46.5433 C.3       15 UNK         0.1400 
     86 CB         -7.0153  -21.2678  -47.0003 C.3       15 UNK        -0.1800 
     87 C          -4.5509  -20.7597  -47.4303 C.2       15 UNK         0.5000 
     88 O          -3.7575  -21.3805  -48.1409 O.2       15 UNK        -0.5000 
     89 N          -4.5734  -19.4231  -47.3527 N.am      16 UNK        -0.5000 
     90 CA         -3.7083  -18.5426  -48.1391 C.3       16 UNK         0.1400 
     91 CB         -3.9142  -17.0894  -47.6882 C.3       16 UNK        -0.1800 
     92 C          -3.9645  -18.7070  -49.6501 C.2       16 UNK         0.5000 
     93 O          -5.1145  -18.8819  -50.0620 O.2       16 UNK        -0.5000 
     94 N          -2.8767  -18.7075  -50.4328 N.am      17 UNK        -0.5000 
     95 CA         -2.8289  -18.9933  -51.8739 C.3       17 UNK         0.1400 
     96 CB         -3.6507  -17.9600  -52.6760 C.3       17 UNK        -0.1800 
     97 C          -3.2361  -20.4408  -52.2246 C.2       17 UNK         0.5000 
     98 O          -3.5948  -20.7008  -53.3753 O.2       17 UNK        -0.5000 
     99 N          -3.2094  -21.3387  -51.2249 N.am      18 UNK        -0.5000 
    100 CA        -3.6984  -22.7218  -51.2467 C.3       18 UNK         0.1400 
    101 CB        -2.8176  -23.5923  -52.1658 C.3       18 UNK        -0.1800 
    102 C         -5.2049  -22.8203  -51.5773 C.2       18 UNK         0.5000 
    103 O         -5.6352  -23.8016  -52.1859 O.2       18 UNK        -0.5000 
    104 N         -5.9647  -21.7742  -51.2077 N.am      19 UNK        -0.5000 
    105 CA        -7.3782  -21.5373  -51.5282 C.3       19 UNK         0.1400 
    106 CB        -8.2863  -22.5993  -50.8727 C.3       19 UNK        -0.1800 
    107 C         -7.6503  -21.3867  -53.0429 C.2       19 UNK         0.5000 
    108 O         -8.7874  -21.5726  -53.4812 O.2       19 UNK        -0.5000 
    109 N         -6.6101  -21.0512  -53.8142 N.am      20 UNK        -0.5000 
    110 CA        -6.6354  -20.8882  -55.2605 C.3       20 UNK         0.1400 
    111 CB        -6.0130  -22.1411  -55.9120 C.3       20 UNK        -0.1800 
    112 C         -5.9282  -19.5672  -55.6076 C.2       20 UNK         0.5000 
    113 O         -6.2804  -18.5305  -55.0415 O.2       20 UNK        -0.5000 
    114 N         -4.9556  -19.6173  -56.5233 N.am      21 UNK        -0.5000 
    115 CA        -4.1771  -18.4745  -56.9950 C.3       21 UNK         0.1400 
    116 CB        -4.6782  -18.0624  -58.3922 C.3       21 UNK        -0.1800 
    117 C         -2.6744  -18.8042  -56.9624 C.2       21 UNK         0.5000 
    118 O         -1.9579  -18.5070  -57.9195 O.2       21 UNK        -0.5000 
    119 N         -2.2218  -19.4165  -55.8581 N.am      22 UNK        -0.5000 
    120 CA        -0.8187  -19.7952  -55.6030 C.3       22 UNK         0.1400 
    121 C         -0.3380  -21.0576  -56.3866 C.2       22 UNK         0.5000 
    122 N         -1.2312  -21.8682  -56.9410 N.am      22 UNK        -0.7600 
    123 O          0.8560  -21.3275  -56.4794 O.2       22 UNK        -0.5000 
    124 C124        0.1607  -18.5840  -55.7144 C.3       23 UNK        -0.0398 
    125 S125        1.5144  -18.6431  -54.4929 S.3       23 UNK        -0.2404 
    126 C126        0.8954  -17.4898  -53.2283 C.3       23 UNK        -0.0205 
    127 H127       -2.4612  -15.6539  -50.4013 H         1 UNK         0.0600 
    128 H128       -0.9494  -16.5378  -50.1573 H         1 UNK         0.0600 
    129 H129       -1.4111  -16.0073  -51.7785 H         1 UNK         0.0600 
    130 H130        0.8656  -15.3557  -49.6433 H         1 UNK         0.3000 
    131 H131        1.2683  -12.6163  -50.4659 H         1 UNK         0.0600 
    132 H132        3.4288  -12.8523  -49.1986 H         1 UNK         0.0800 
    133 H133        3.1959  -14.0210  -50.4488 H         1 UNK         0.0800 
    134 H134        4.5491  -15.8947  -50.0375 H         1 UNK         0.0800 
    135 H135        4.5458  -16.9403  -48.6510 H         1 UNK         0.0800 
    136 H136        2.6475  -16.0255  -51.7102 H         1 UNK         0.1150 
    137 H137        0.4525  -19.7086  -51.7340 H         1 UNK         0.1150 
    138 H138        2.9002  -18.6999  -48.3684 H         1 UNK         0.1150 
    139 H139        1.5519  -21.4884  -50.0404 H         1 UNK         0.0800 
    140 H140        1.9211  -20.8163  -48.4679 H         1 UNK         0.0800 
    141 H141       -1.3295  -22.2249  -47.1801 H         1 UNK         0.0800 
    142 H142       -1.2716  -23.0209  -48.7154 H         1 UNK         0.0800 
    143 H143        1.1764  -23.4273  -48.4511 H         1 UNK         0.0600 
    144 H144        0.9700  -21.6493  -46.1855 H         1 UNK         0.3000 
    145 H145        4.0842  -22.4970  -44.7294 H         1 UNK         0.0600 
    146 H146        4.5175  -20.0622  -44.9281 H         1 UNK         0.0600 
    147 H147        3.3197  -19.9256  -46.2108 H         1 UNK         0.0600 
    148 H148        4.7821  -20.8639  -46.4694 H         1 UNK         0.0600 
    149 H149        2.1371  -20.5132  -44.0801 H         1 UNK         0.3000 
    150 H150        0.0205  -22.6550  -42.0890 H         1 UNK         0.0600 
    151 H151        1.9345  -20.3469  -41.4622 H         1 UNK         0.0600 
    152 H152        0.5003  -20.7597  -40.5225 H         1 UNK         0.0600 
    153 H153        1.8459  -21.8862  -40.6213 H         1 UNK         0.0600 
    154 H154       -0.2220  -19.9039  -42.7818 H         1 UNK         0.3000 
    155 H155       -2.0496  -20.3510  -45.8197 H         1 UNK         0.0600 
    156 H156       -3.7366  -20.5124  -43.9705 H         1 UNK         0.0600 
    157 H157       -3.6462  -18.8811  -44.6252 H         1 UNK         0.0600 
    158 H158       -2.8892  -19.2577  -43.0820 H         1 UNK         0.0600 
    159 H159       -1.3183  -17.9535  -44.5679 H         1 UNK         0.3000 
    160 H160        2.0269  -17.6551  -45.8795 H         1 UNK         0.0600 
    161 H161       -0.6850  -16.3103  -46.3662 H         1 UNK         0.0600 
    162 H162        0.5422  -16.7306  -47.5354 H         1 UNK         0.0600 
    163 H163        0.8442  -15.4463  -46.3818 H         1 UNK         0.0600 
    164 H164        0.3961  -16.2596  -43.9076 H         1 UNK         0.3000 
    165 H165        1.5806  -18.0197  -41.1245 H         1 UNK         0.0600 
    166 H166        2.6464  -16.1399  -40.1446 H         1 UNK         0.0600 
    167 H167        3.6422  -16.5479  -41.5316 H         1 UNK         0.0600 
    168 H168        2.5415  -15.1734  -41.6019 H         1 UNK         0.0600 
    169 H169        0.2157  -15.4692  -41.6145 H         1 UNK         0.3000 
    170 H170       -3.0162  -16.9598  -41.7701 H         1 UNK         0.0600 
    171 H171       -2.6055  -16.7675  -39.3113 H         1 UNK         0.0600 
    172 H172       -1.7635  -15.2421  -39.5588 H         1 UNK         0.0600 
    173 H173       -3.4850  -15.3745  -39.9208 H         1 UNK         0.0600 
    174 H174       -2.1074  -14.2434  -41.8000 H         1 UNK         0.3000 
    175 H175       -2.2932  -13.9550  -45.3016 H         1 UNK         0.0600 
    176 H176       -1.9843  -12.3987  -42.6745 H         1 UNK         0.0600 
    177 H177       -2.4435  -11.7535  -44.2427 H         1 UNK         0.0600 
    178 H178       -3.5228  -12.8540  -43.4039 H         1 UNK         0.0600 
    179 H179       -0.2034  -13.3060  -45.5936 H         1 UNK         0.3000 
    180 H180        2.3416  -12.1617  -43.5041 H         1 UNK         0.0600 
    181 H181        3.2104  -14.4866  -43.5775 H         1 UNK         0.0600 
    182 H182        3.9408  -13.5348  -44.8488 H         1 UNK         0.0600 
    183 H183        2.6599  -14.6776  -45.2314 H         1 UNK         0.0600 
    184 H184        2.1860  -12.5163  -46.3439 H         1 UNK         0.3000 
    185 H185       -0.1021  -10.1771  -47.2140 H         1 UNK         0.0600 
    186 H186        1.4803   -8.3546  -46.5508 H         1 UNK         0.0600 
    187 H187        2.8253   -9.2660  -47.2257 H         1 UNK         0.0600 
    188 H188        1.5453   -8.6585  -48.2775 H         1 UNK         0.0600 
    189 H189        2.0230  -10.9994  -48.8182 H         1 UNK         0.3000 
    190 H190        1.2325  -24.2907  -45.3094 H         1 UNK         0.3000 
    191 H191        1.0184  -26.1402  -44.1656 H         1 UNK         0.0600 
    192 H192        0.8946  -28.3264  -45.2630 H         1 UNK         0.0600 
    193 H193        1.9475  -27.2762  -46.1962 H         1 UNK         0.0600 
    194 H194        0.3086  -27.6098  -46.7558 H         1 UNK         0.0600 
    195 H195       -1.1265  -24.3598  -44.2208 H         1 UNK         0.3000 
    196 H196       -3.0841  -24.0515  -43.3032 H         1 UNK         0.0600 
    197 H197       -3.2022  -27.0124  -42.5423 H         1 UNK         0.0600 
    198 H198       -2.3876  -25.7601  -41.6046 H         1 UNK         0.0600 
    199 H199       -4.1268  -25.7001  -41.8311 H         1 UNK         0.0600 
    200 H200       -2.7895  -24.9927  -46.1509 H         1 UNK         0.3000 
    201 H201       -5.4571  -25.9817  -46.8649 H         1 UNK         0.0600 
    202 H202       -4.5491  -25.9022  -49.1562 H         1 UNK         0.0600 
    203 H203       -3.3722  -26.6703  -48.1028 H         1 UNK         0.0600 
    204 H204       -3.1415  -24.9991  -48.6143 H         1 UNK         0.0600 
    205 H205       -4.6914  -23.1843  -45.6307 H         1 UNK         0.3000 
    206 H206       -5.4630  -21.1121  -45.5327 H         1 UNK         0.0600 
    207 H207       -7.7143  -21.9074  -46.4614 H         1 UNK         0.0600 
    208 H208       -7.3148  -20.2353  -46.8189 H         1 UNK         0.0600 
    209 H209       -7.1402  -21.4519  -48.0669 H         1 UNK         0.0600 
    210 H210       -5.2708  -18.9720  -46.7799 H         1 UNK         0.3000 
    211 H211       -2.6741  -18.8207  -47.9239 H         1 UNK         0.0600 
    212 H212       -4.9362  -16.7532  -47.8672 H         1 UNK         0.0600 
    213 H213       -3.2462  -16.4150  -48.2243 H         1 UNK         0.0600 
    214 H214       -3.7006  -16.9726  -46.6251 H         1 UNK         0.0600 
    215 H215       -1.9745  -18.6073  -49.9883 H         1 UNK         0.3000 
    216 H216       -1.7857  -18.8925  -52.1680 H         1 UNK         0.0600 
    217 H217       -3.4612  -16.9412  -52.3443 H         1 UNK         0.0600 
    218 H218       -4.7228  -18.1383  -52.5859 H         1 UNK         0.0600 
    219 H219       -3.4077  -18.0020  -53.7369 H         1 UNK         0.0600 
    220 H220       -2.9229  -21.0156  -50.3086 H         1 UNK         0.3000 
    221 H221       -3.5892  -23.1009  -50.2300 H         1 UNK         0.0600 
    222 H222       -3.0819  -24.6465  -52.0755 H         1 UNK         0.0600 
    223 H223       -2.9287  -23.3153  -53.2146 H         1 UNK         0.0600 
    224 H224       -1.7638  -23.4997  -51.9029 H         1 UNK         0.0600 
    225 H225       -5.5067  -21.0137  -50.7193 H         1 UNK         0.3000 
    226 H226       -7.6248  -20.5731  -51.0816 H         1 UNK         0.0600 
    227 H227       -8.0815  -22.6971  -49.8079 H         1 UNK         0.0600 
    228 H228       -9.3385  -22.3313  -50.9733 H         1 UNK         0.0600 
    229 H229       -8.1558  -23.5813  -51.3277 H         1 UNK         0.0600 
    230 H230       -5.7071  -20.8946  -53.3815 H         1 UNK         0.3000 
    231 H231       -7.6627  -20.7884  -55.6162 H         1 UNK         0.0600 
    232 H232       -6.0466  -22.0856  -57.0006 H         1 UNK         0.0600 
    233 H233       -6.5615  -23.0383  -55.6240 H         1 UNK         0.0600 
    234 H234       -4.9749  -22.2831  -55.6072 H         1 UNK         0.0600 
    235 H235       -4.7240  -20.5119  -56.9307 H         1 UNK         0.3000 
    236 H236       -4.3094  -17.6223  -56.3254 H         1 UNK         0.0600 
    237 H237       -5.7384  -17.8100  -58.3702 H         1 UNK         0.0600 
    238 H238       -4.1454  -17.1841  -58.7585 H         1 UNK         0.0600 
    239 H239       -4.5392  -18.8620  -59.1206 H         1 UNK         0.0600 
    240 H240       -2.8851  -19.6871  -55.1405 H         1 UNK         0.3000 
    241 H241       -0.8262  -20.1155  -54.5606 H         1 UNK         0.0600 
    242 H242       -2.2157  -21.6772  -56.8639 H         1 UNK         0.3800 
    243 H243       -0.9152  -22.6854  -57.4393 H         1 UNK         0.3800 
    244 H244        0.5913  -18.5214  -56.7153 H         1 UNK         0.0800 
    245 H245       -0.3733  -17.6431  -55.5759 H         1 UNK         0.0800 
    246 H246       -0.1914  -17.5450  -53.1786 H         1 UNK         0.0800 
    247 H247        1.1400  -16.4681  -53.5226 H         1 UNK         0.0800 
@<TRIPOS>BOND
     1    1    2 1    
     2    1  127 1    
     3    1  128 1    
     4    1  129 1    
     5    2    3 2    
     6    2    4 am   BACKBONE|DICT|INTERRES
     7    4    5 1    
     8    4  130 1    
     9    5    6 1    
    10    5   65 1    
    11    5  131 1    
    12    6    7 1    
    13    6  132 1    
    14    6  133 1    
    15    7    8 1    
    16    8    9 1    
    17    8  134 1    
    18    8  135 1    
    19    9   10 ar   
    20    9   14 ar   
    21   10   11 ar   
    22   10  136 1    
    23   11   12 ar   
    24   11  126 1    
    25   12   13 ar   
    26   12  137 1    
    27   13   14 ar   
    28   13   15 1    
    29   14  138 1    
    30   15   16 1    
    31   15  139 1    
    32   15  140 1    
    33   16   17 1    
    34   17   18 1    
    35   17  141 1    
    36   17  142 1    
    37   18   19 1    
    38   18   67 1    
    39   18  143 1    
    40   19   20 am   BACKBONE|DICT|INTERRES
    41   19  144 1    
    42   20   21 2    
    43   20   22 1    
    44   22   23 1    
    45   22   24 1    
    46   22  145 1    
    47   23  146 1    
    48   23  147 1    
    49   23  148 1    
    50   24   25 am   BACKBONE|DICT|INTERRES
    51   24  149 1    
    52   25   26 2    
    53   25   27 1    
    54   27   28 1    
    55   27   29 1    
    56   27  150 1    
    57   28  151 1    
    58   28  152 1    
    59   28  153 1    
    60   29   30 am   BACKBONE|DICT|INTERRES
    61   29  154 1    
    62   30   31 2    
    63   30   32 1    
    64   32   33 1    
    65   32   34 1    
    66   32  155 1    
    67   33  156 1    
    68   33  157 1    
    69   33  158 1    
    70   34   35 am   BACKBONE|DICT|INTERRES
    71   34  159 1    
    72   35   36 2    
    73   35   37 1    
    74   37   38 1    
    75   37   39 1    
    76   37  160 1    
    77   38  161 1    
    78   38  162 1    
    79   38  163 1    
    80   39   40 am   BACKBONE|DICT|INTERRES
    81   39  164 1    
    82   40   41 2    
    83   40   42 1    
    84   42   43 1    
    85   42   44 1    
    86   42  165 1    
    87   43  166 1    
    88   43  167 1    
    89   43  168 1    
    90   44   45 am   BACKBONE|DICT|INTERRES
    91   44  169 1    
    92   45   46 2    
    93   45   47 1    
    94   47   48 1    
    95   47   49 1    
    96   47  170 1    
    97   48  171 1    
    98   48  172 1    
    99   48  173 1    
   100   49   50 am   BACKBONE|DICT|INTERRES
   101   49  174 1    
   102   50   51 2    
   103   50   52 1    
   104   52   53 1    
   105   52   54 1    
   106   52  175 1    
   107   53  176 1    
   108   53  177 1    
   109   53  178 1    
   110   54   55 am   BACKBONE|DICT|INTERRES
   111   54  179 1    
   112   55   56 2    
   113   55   57 1    
   114   57   58 1    
   115   57   59 1    
   116   57  180 1    
   117   58  181 1    
   118   58  182 1    
   119   58  183 1    
   120   59   60 am   BACKBONE|DICT|INTERRES
   121   59  184 1    
   122   60   61 2    
   123   60   62 1    
   124   62   63 1    
   125   62   64 1    
   126   62  185 1    
   127   63  186 1    
   128   63  187 1    
   129   63  188 1    
   130   64   65 am   BACKBONE|DICT|INTERRES
   131   64  189 1    
   132   65   66 2    
   133   67   68 2    
   134   67   69 am   BACKBONE|DICT|INTERRES
   135   69   70 1    
   136   69  190 1    
   137   70   71 1    
   138   70   72 1    
   139   70  191 1    
   140   71  192 1    
   141   71  193 1    
   142   71  194 1    
   143   72   73 2    
   144   72   74 am   BACKBONE|DICT|INTERRES
   145   74   75 1    
   146   74  195 1    
   147   75   76 1    
   148   75   77 1    
   149   75  196 1    
   150   76  197 1    
   151   76  198 1    
   152   76  199 1    
   153   77   78 2    
   154   77   79 am   BACKBONE|DICT|INTERRES
   155   79   80 1    
   156   79  200 1    
   157   80   81 1    
   158   80   82 1    
   159   80  201 1    
   160   81  202 1    
   161   81  203 1    
   162   81  204 1    
   163   82   83 2    
   164   82   84 am   BACKBONE|DICT|INTERRES
   165   84   85 1    
   166   84  205 1    
   167   85   86 1    
   168   85   87 1    
   169   85  206 1    
   170   86  207 1    
   171   86  208 1    
   172   86  209 1    
   173   87   88 2    
   174   87   89 am   BACKBONE|DICT|INTERRES
   175   89   90 1    
   176   89  210 1    
   177   90   91 1    
   178   90   92 1    
   179   90  211 1    
   180   91  212 1    
   181   91  213 1    
   182   91  214 1    
   183   92   93 2    
   184   92   94 am   BACKBONE|DICT|INTERRES
   185   94   95 1    
   186   94  215 1    
   187   95   96 1    
   188   95   97 1    
   189   95  216 1    
   190   96  217 1    
   191   96  218 1    
   192   96  219 1    
   193   97   98 2    
   194   97   99 am   BACKBONE|DICT|INTERRES
   195   99  100 1    
   196   99  220 1    
   197  100  101 1    
   198  100  102 1    
   199  100  221 1    
   200  101  222 1    
   201  101  223 1    
   202  101  224 1    
   203  102  103 2    
   204  102  104 am   BACKBONE|DICT|INTERRES
   205  104  105 1    
   206  104  225 1    
   207  105  106 1    
   208  105  107 1    
   209  105  226 1    
   210  106  227 1    
   211  106  228 1    
   212  106  229 1    
   213  107  108 2    
   214  107  109 am   BACKBONE|DICT|INTERRES
   215  109  110 1    
   216  109  230 1    
   217  110  111 1    
   218  110  112 1    
   219  110  231 1    
   220  111  232 1    
   221  111  233 1    
   222  111  234 1    
   223  112  113 2    
   224  112  114 am   BACKBONE|DICT|INTERRES
   225  114  115 1    
   226  114  235 1    
   227  115  116 1    
   228  115  117 1    
   229  115  236 1    
   230  116  237 1    
   231  116  238 1    
   232  116  239 1    
   233  117  118 2    
   234  117  119 am   BACKBONE|DICT|INTERRES
   235  119  120 1    
   236  119  240 1    
   237  120  121 1    
   238  120  124 1    
   239  120  241 1    
   240  121  122 am   BACKBONE|DICT|INTERRES
   241  121  123 2    
   242  122  242 1    
   243  122  243 1    
   244  124  125 1    
   245  124  244 1    
   246  124  245 1    
   247  125  126 1    
   248  126  246 1    
   249  126  247 1    
@<TRIPOS>SUBSTRUCTURE
     1 UNK         1 GROUP             0       ****    0 ROOT    
