@<TRIPOS>MOLECULE
3R540
247   249    1
SMALL
USER_CHARGES


@<TRIPOS>ATOM
      1 CA         -4.4447  -17.9774  -44.1015 C.3       0 UNK        -0.1800 
      2 C          -3.5826  -16.7247  -44.1649 C.2       0 UNK         0.5000 
      3 O          -3.8602  -15.7489  -43.4668 O.2       0 UNK        -0.5000 
      4 N          -2.5308  -16.7497  -44.9915 N.am      1 UNK        -0.5000 
      5 CA         -1.5322  -15.6895  -45.1693 C.3       1 UNK         0.1400 
      6 C6         -0.8350  -15.7897  -46.5523 C.3       23 UNK        -0.0398 
      7 S7         -0.2317  -17.4627  -46.9700 S.3       23 UNK        -0.2404 
      8 C8          0.3482  -17.2147  -48.6737 C.3       23 UNK        -0.0205 
      9 C9          0.4162  -18.5404  -49.4128 C.ar      23 UNK        -0.0193 
     10 C10        -0.7137  -19.0198  -50.0798 C.ar      23 UNK        -0.1150 
     11 C11        -0.6764  -20.2489  -50.7409 C.ar      23 UNK        -0.0193 
     12 C12         0.5046  -20.9938  -50.7470 C.ar      23 UNK        -0.1150 
     13 C13         1.6402  -20.5290  -50.0795 C.ar      23 UNK        -0.0193 
     14 C14         1.5918  -19.2975  -49.4162 C.ar      23 UNK        -0.1150 
     15 C15         2.9119  -21.3675  -50.0638 C.3       23 UNK        -0.0205 
     16 S16         2.6823  -22.9814  -49.2415 S.3       23 UNK        -0.2404 
     17 C17         2.2287  -22.4656  -47.5515 C.3       23 UNK        -0.0398 
     18 CA          1.1216  -23.3305  -46.9007 C.3       11 UNK         0.1400 
     19 N           1.0209  -23.0510  -45.4679 N.am      11 UNK        -0.5000 
     20 C           0.4542  -23.8581  -44.5605 C.2       10 UNK         0.5000 
     21 O          -0.0051  -24.9677  -44.8280 O.2       10 UNK        -0.5000 
     22 CA          0.3721  -23.3357  -43.1103 C.3       10 UNK         0.1400 
     23 CB          1.5779  -23.8284  -42.2966 C.3       10 UNK        -0.1800 
     24 N           0.2963  -21.8762  -43.0112 N.am      10 UNK        -0.5000 
     25 C          -0.7067  -21.1246  -43.4859 C.2       9 UNK         0.5000 
     26 O          -1.7091  -21.5880  -44.0272 O.2       9 UNK        -0.5000 
     27 CA         -0.5365  -19.5955  -43.3996 C.3       9 UNK         0.1400 
     28 CB         -1.1515  -19.0681  -42.0954 C.3       9 UNK        -0.1800 
     29 N           0.8478  -19.1169  -43.5248 N.am      9 UNK        -0.5000 
     30 C           1.6765  -19.4043  -44.5409 C.2       8 UNK         0.5000 
     31 O           1.3858  -20.1942  -45.4384 O.2       8 UNK        -0.5000 
     32 CA          3.0545  -18.7212  -44.5557 C.3       8 UNK         0.1400 
     33 CB          3.5885  -18.5186  -45.9868 C.3       8 UNK        -0.1800 
     34 N           3.0272  -17.4309  -43.8698 N.am      8 UNK        -0.5000 
     35 C           3.9988  -16.9570  -43.0797 C.2       7 UNK         0.5000 
     36 O           4.9782  -17.6176  -42.7284 O.2       7 UNK        -0.5000 
     37 CA          3.8522  -15.4838  -42.6400 C.3       7 UNK         0.1400 
     38 CB          5.1130  -14.9244  -41.9458 C.3       7 UNK        -0.1800 
     39 N           3.4327  -14.6237  -43.7546 N.am      7 UNK        -0.5000 
     40 C           4.1104  -14.4058  -44.8928 C.2       6 UNK         0.5000 
     41 O           5.2611  -14.7964  -45.0940 O.2       6 UNK        -0.5000 
     42 CA          3.3790  -13.6680  -46.0292 C.3       6 UNK         0.1400 
     43 CB          2.9263  -14.6835  -47.0907 C.3       6 UNK        -0.1800 
     44 N           2.2154  -12.8889  -45.6016 N.am      6 UNK        -0.5000 
     45 C           2.2691  -11.6944  -44.9979 C.2       5 UNK         0.5000 
     46 O           3.3218  -11.1559  -44.6516 O.2       5 UNK        -0.5000 
     47 CA          0.9358  -10.9563  -44.7674 C.3       5 UNK         0.1400 
     48 CB         -0.2980  -11.6759  -45.3526 C.3       5 UNK        -0.1800 
     49 N           0.7385  -10.7870  -43.3349 N.am      5 UNK        -0.5000 
     50 C           0.5657   -9.6295  -42.6856 C.2       4 UNK         0.5000 
     51 O           0.5407   -8.5309  -43.2426 O.2       4 UNK        -0.5000 
     52 CA          0.3663   -9.7005  -41.1548 C.3       4 UNK         0.1400 
     53 CB         -1.1052   -9.4421  -40.7940 C.3       4 UNK        -0.1800 
     54 N           0.7689  -10.9835  -40.5741 N.am      4 UNK        -0.5000 
     55 C           2.0362  -11.3837  -40.4072 C.2       3 UNK         0.5000 
     56 O           3.0109  -10.6613  -40.6172 O.2       3 UNK        -0.5000 
     57 CA          2.2604  -12.8419  -39.9534 C.3       3 UNK         0.1400 
     58 CB          2.5770  -12.8939  -38.4512 C.3       3 UNK        -0.1800 
     59 N           1.1604  -13.7747  -40.2377 N.am      3 UNK        -0.5000 
     60 C           0.6441  -14.0437  -41.4451 C.2       2 UNK         0.5000 
     61 O           0.9955  -13.4559  -42.4685 O.2       2 UNK        -0.5000 
     62 CA         -0.4160  -15.1642  -41.5081 C.3       2 UNK         0.1400 
     63 CB         -1.4982  -14.9946  -40.4263 C.3       2 UNK        -0.1800 
     64 N          -1.0888  -15.2731  -42.8036 N.am      2 UNK        -0.5000 
     65 C          -0.5503  -15.6349  -43.9747 C.2       1 UNK         0.5000 
     66 O           0.6353  -15.9395  -44.1179 O.2       1 UNK        -0.5000 
     67 C          -0.2541  -23.1639  -47.5813 C.2       11 UNK         0.5000 
     68 O          -0.6401  -24.0109  -48.3864 O.2       11 UNK        -0.5000 
     69 N          -1.0014  -22.1177  -47.1987 N.am      12 UNK        -0.5000 
     70 CA         -2.3752  -21.8839  -47.6486 C.3       12 UNK         0.1400 
     71 CB         -2.8120  -20.4661  -47.2510 C.3       12 UNK        -0.1800 
     72 C          -3.3554  -22.9381  -47.1003 C.2       12 UNK         0.5000 
     73 O          -4.1753  -23.4647  -47.8556 O.2       12 UNK        -0.5000 
     74 N          -3.2157  -23.2583  -45.8050 N.am      13 UNK        -0.5000 
     75 CA         -4.0254  -24.2299  -45.0626 C.3       13 UNK         0.1400 
     76 CB         -3.7125  -24.1044  -43.5642 C.3       13 UNK        -0.1800 
     77 C          -3.8663  -25.6933  -45.5237 C.2       13 UNK         0.5000 
     78 O          -4.6886  -26.5305  -45.1515 O.2       13 UNK        -0.5000 
     79 N          -2.8526  -25.9792  -46.3529 N.am      14 UNK        -0.5000 
     80 CA         -2.6273  -27.2703  -47.0106 C.3       14 UNK         0.1400 
     81 CB         -1.1614  -27.3386  -47.4706 C.3       14 UNK        -0.1800 
     82 C          -3.5928  -27.5442  -48.1892 C.2       14 UNK         0.5000 
     83 O          -3.4153  -28.5414  -48.8890 O.2       14 UNK        -0.5000 
     84 N          -4.5743  -26.6525  -48.3997 N.am      15 UNK        -0.5000 
     85 CA         -5.6023  -26.6411  -49.4477 C.3       15 UNK         0.1400 
     86 CB         -6.3922  -27.9647  -49.5130 C.3       15 UNK        -0.1800 
     87 C          -5.0732  -26.1898  -50.8220 C.2       15 UNK         0.5000 
     88 O          -5.8005  -26.2703  -51.8131 O.2       15 UNK        -0.5000 
     89 N          -3.8435  -25.6564  -50.8548 N.am      16 UNK        -0.5000 
     90 CA         -3.2306  -25.0357  -52.0298 C.3       16 UNK         0.1400 
     91 CB         -1.7406  -24.7920  -51.7496 C.3       16 UNK        -0.1800 
     92 C          -3.9332  -23.7285  -52.4445 C.2       16 UNK         0.5000 
     93 O          -3.8909  -23.3675  -53.6188 O.2       16 UNK        -0.5000 
     94 N          -4.6102  -23.0732  -51.4874 N.am      17 UNK        -0.5000 
     95 CA         -5.3849  -21.8380  -51.6513 C.3       17 UNK         0.1400 
     96 CB         -5.8503  -21.3685  -50.2642 C.3       17 UNK        -0.1800 
     97 C          -6.5706  -21.9236  -52.6355 C.2       17 UNK         0.5000 
     98 O          -7.1377  -20.8871  -52.9823 O.2       17 UNK        -0.5000 
     99 N          -6.9150  -23.1371  -53.0876 N.am      18 UNK        -0.5000 
    100 CA        -7.8346  -23.3813  -54.1971 C.3       18 UNK         0.1400 
    101 CB        -8.1716  -24.8796  -54.2379 C.3       18 UNK        -0.1800 
    102 C         -7.2772  -22.9140  -55.5600 C.2       18 UNK         0.5000 
    103 O         -8.0670  -22.6235  -56.4599 O.2       18 UNK        -0.5000 
    104 N         -5.9441  -22.8484  -55.6993 N.am      19 UNK        -0.5000 
    105 CA        -5.2644  -22.3373  -56.8874 C.3       19 UNK         0.1400 
    106 CB        -3.8226  -22.8684  -56.9167 C.3       19 UNK        -0.1800 
    107 C         -5.2616  -20.7993  -56.9025 C.2       19 UNK         0.5000 
    108 O         -5.0652  -20.1712  -55.8594 O.2       19 UNK        -0.5000 
    109 N         -5.4204  -20.2200  -58.0998 N.am      20 UNK        -0.5000 
    110 CA        -5.4053  -18.7721  -58.3366 C.3       20 UNK         0.1400 
    111 CB        -5.8930  -18.4939  -59.7665 C.3       20 UNK        -0.1800 
    112 C         -4.0274  -18.1208  -58.1016 C.2       20 UNK         0.5000 
    113 O         -3.9625  -16.9235  -57.8187 O.2       20 UNK        -0.5000 
    114 N         -2.9554  -18.9229  -58.1893 N.am      21 UNK        -0.5000 
    115 CA        -1.5618  -18.5300  -57.9579 C.3       21 UNK         0.1400 
    116 CB        -0.6550  -19.7356  -58.2499 C.3       21 UNK        -0.1800 
    117 C         -1.2844  -17.9797  -56.5433 C.2       21 UNK         0.5000 
    118 O         -0.3386  -17.2099  -56.3705 O.2       21 UNK        -0.5000 
    119 N         -2.1198  -18.3626  -55.5700 N.am      22 UNK        -0.5000 
    120 CA        -2.1117  -17.8356  -54.1972 C.3       22 UNK         0.1400 
    121 C         -2.7195  -16.4066  -54.0602 C.2       22 UNK         0.5000 
    122 N         -3.3403  -15.8319  -55.0852 N.am      22 UNK        -0.7600 
    123 O         -2.6179  -15.7992  -52.9980 O.2       22 UNK        -0.5000 
    124 C124       -2.7932  -18.8176  -53.2129 C.3       23 UNK        -0.0398 
    125 S125       -1.9821  -20.4526  -53.1836 S.3       23 UNK        -0.2404 
    126 C126       -1.9223  -20.8058  -51.4012 C.3       23 UNK        -0.0205 
    127 H127       -4.4650  -18.3664  -43.0835 H         1 UNK         0.0600 
    128 H128       -4.0685  -18.7632  -44.7565 H         1 UNK         0.0600 
    129 H129       -5.4669  -17.7453  -44.4001 H         1 UNK         0.0600 
    130 H130       -2.3510  -17.5785  -45.5402 H         1 UNK         0.3000 
    131 H131       -2.0605  -14.7335  -45.1627 H         1 UNK         0.0600 
    132 H132       -1.5508  -15.5002  -47.3227 H         1 UNK         0.0800 
    133 H133       -0.0177  -15.0735  -46.6318 H         1 UNK         0.0800 
    134 H134       -0.3232  -16.5357  -49.2013 H         1 UNK         0.0800 
    135 H135        1.3276  -16.7351  -48.6598 H         1 UNK         0.0800 
    136 H136       -1.6288  -18.4451  -50.0608 H         1 UNK         0.1150 
    137 H137        0.5331  -21.9505  -51.2499 H         1 UNK         0.1150 
    138 H138        2.4621  -18.9336  -48.8889 H         1 UNK         0.1150 
    139 H139        3.2356  -21.5378  -51.0914 H         1 UNK         0.0800 
    140 H140        3.7242  -20.8313  -49.5706 H         1 UNK         0.0800 
    141 H141        1.9351  -21.4173  -47.5541 H         1 UNK         0.0800 
    142 H142        3.1364  -22.5156  -46.9487 H         1 UNK         0.0800 
    143 H143        1.4132  -24.3776  -47.0102 H         1 UNK         0.0600 
    144 H144        1.3061  -22.1188  -45.1844 H         1 UNK         0.3000 
    145 H145       -0.5317  -23.7483  -42.6597 H         1 UNK         0.0600 
    146 H146        1.4932  -23.5377  -41.2493 H         1 UNK         0.0600 
    147 H147        1.6502  -24.9165  -42.3253 H         1 UNK         0.0600 
    148 H148        2.5155  -23.4268  -42.6831 H         1 UNK         0.0600 
    149 H149        1.0858  -21.4073  -42.5926 H         1 UNK         0.3000 
    150 H150       -1.0955  -19.1702  -44.2347 H         1 UNK         0.0600 
    151 H151       -0.5782  -19.3832  -41.2229 H         1 UNK         0.0600 
    152 H152       -2.1720  -19.4323  -41.9677 H         1 UNK         0.0600 
    153 H153       -1.2010  -17.9815  -42.0925 H         1 UNK         0.0600 
    154 H154        1.1653  -18.4578  -42.8300 H         1 UNK         0.3000 
    155 H155        3.7277  -19.4040  -44.0343 H         1 UNK         0.0600 
    156 H156        2.9180  -17.8914  -46.5750 H         1 UNK         0.0600 
    157 H157        3.6933  -19.4699  -46.5099 H         1 UNK         0.0600 
    158 H158        4.5696  -18.0435  -45.9795 H         1 UNK         0.0600 
    159 H159        2.2272  -16.8333  -44.0794 H         1 UNK         0.3000 
    160 H160        3.0446  -15.4689  -41.9102 H         1 UNK         0.0600 
    161 H161        6.0045  -15.0434  -42.5619 H         1 UNK         0.0600 
    162 H162        5.2984  -15.4418  -41.0040 H         1 UNK         0.0600 
    163 H163        5.0079  -13.8635  -41.7216 H         1 UNK         0.0600 
    164 H164        2.4861  -14.2629  -43.6882 H         1 UNK         0.3000 
    165 H165        4.0946  -12.9865  -46.4941 H         1 UNK         0.0600 
    166 H166        2.3904  -14.2001  -47.9076 H         1 UNK         0.0600 
    167 H167        3.7830  -15.1999  -47.5257 H         1 UNK         0.0600 
    168 H168        2.2776  -15.4461  -46.6593 H         1 UNK         0.0600 
    169 H169        1.3105  -13.2713  -45.8263 H         1 UNK         0.3000 
    170 H170        1.0290   -9.9867  -45.2603 H         1 UNK         0.0600 
    171 H171       -0.1984  -11.8296  -46.4279 H         1 UNK         0.0600 
    172 H172       -0.4644  -12.6451  -44.8817 H         1 UNK         0.0600 
    173 H173       -1.1987  -11.0813  -45.1994 H         1 UNK         0.0600 
    174 H174        0.8026  -11.6487  -42.7983 H         1 UNK         0.3000 
    175 H175        0.9724   -8.9100  -40.7074 H         1 UNK         0.0600 
    176 H176       -1.7618  -10.2059  -41.2125 H         1 UNK         0.0600 
    177 H177       -1.2504   -9.4280  -39.7136 H         1 UNK         0.0600 
    178 H178       -1.4386   -8.4768  -41.1774 H         1 UNK         0.0600 
    179 H179        0.0307  -11.6406  -40.3703 H         1 UNK         0.3000 
    180 H180        3.1346  -13.2044  -40.4943 H         1 UNK         0.0600 
    181 H181        1.7225  -12.5805  -37.8502 H         1 UNK         0.0600 
    182 H182        3.4117  -12.2368  -38.2030 H         1 UNK         0.0600 
    183 H183        2.8569  -13.9007  -38.1407 H         1 UNK         0.0600 
    184 H184        0.8107  -14.2897  -39.4427 H         1 UNK         0.3000 
    185 H185        0.1097  -16.1034  -41.3280 H         1 UNK         0.0600 
    186 H186       -1.0801  -15.0460  -39.4207 H         1 UNK         0.0600 
    187 H187       -2.0148  -14.0388  -40.5232 H         1 UNK         0.0600 
    188 H188       -2.2471  -15.7843  -40.4948 H         1 UNK         0.0600 
    189 H189       -2.0880  -15.0964  -42.8008 H         1 UNK         0.3000 
    190 H190       -0.6213  -21.4693  -46.5230 H         1 UNK         0.3000 
    191 H191       -2.3923  -21.9523  -48.7376 H         1 UNK         0.0600 
    192 H192       -2.1695  -19.7153  -47.7088 H         1 UNK         0.0600 
    193 H193       -3.8325  -20.2629  -47.5773 H         1 UNK         0.0600 
    194 H194       -2.7767  -20.3206  -46.1717 H         1 UNK         0.0600 
    195 H195       -2.5382  -22.7370  -45.2531 H         1 UNK         0.3000 
    196 H196       -5.0732  -23.9623  -45.2123 H         1 UNK         0.0600 
    197 H197       -4.3435  -24.7694  -42.9733 H         1 UNK         0.0600 
    198 H198       -3.8878  -23.0899  -43.2058 H         1 UNK         0.0600 
    199 H199       -2.6756  -24.3634  -43.3527 H         1 UNK         0.0600 
    200 H200       -2.2131  -25.2353  -46.5965 H         1 UNK         0.3000 
    201 H201       -2.7866  -28.0610  -46.2749 H         1 UNK         0.0600 
    202 H202       -0.9135  -28.3329  -47.8439 H         1 UNK         0.0600 
    203 H203       -0.4769  -27.1224  -46.6500 H         1 UNK         0.0600 
    204 H204       -0.9587  -26.6299  -48.2734 H         1 UNK         0.0600 
    205 H205       -4.5911  -25.8472  -47.7876 H         1 UNK         0.3000 
    206 H206       -6.3076  -25.8664  -49.1436 H         1 UNK         0.0600 
    207 H207       -6.7396  -28.2675  -48.5252 H         1 UNK         0.0600 
    208 H208       -7.2731  -27.8598  -50.1474 H         1 UNK         0.0600 
    209 H209       -5.7950  -28.7778  -49.9258 H         1 UNK         0.0600 
    210 H210       -3.3180  -25.6197  -49.9935 H         1 UNK         0.3000 
    211 H211       -3.3128  -25.7316  -52.8673 H         1 UNK         0.0600 
    212 H212       -1.5939  -24.1619  -50.8727 H         1 UNK         0.0600 
    213 H213       -1.2567  -24.2993  -52.5942 H         1 UNK         0.0600 
    214 H214       -1.2143  -25.7305  -51.5749 H         1 UNK         0.0600 
    215 H215       -4.5951  -23.4619  -50.5549 H         1 UNK         0.3000 
    216 H216       -4.7172  -21.0813  -52.0624 H         1 UNK         0.0600 
    217 H217       -6.4031  -20.4305  -50.3296 H         1 UNK         0.0600 
    218 H218       -5.0024  -21.1972  -49.6014 H         1 UNK         0.0600 
    219 H219       -6.5023  -22.1034  -49.7906 H         1 UNK         0.0600 
    220 H220       -6.4083  -23.9391  -52.7392 H         1 UNK         0.3000 
    221 H221       -8.7558  -22.8265  -54.0073 H         1 UNK         0.0600 
    222 H222       -7.2812  -25.4869  -54.4064 H         1 UNK         0.0600 
    223 H223       -8.6274  -25.2073  -53.3033 H         1 UNK         0.0600 
    224 H224       -8.8779  -25.1005  -55.0392 H         1 UNK         0.0600 
    225 H225       -5.3486  -23.0503  -54.9014 H         1 UNK         0.3000 
    226 H226       -5.7834  -22.7061  -57.7748 H         1 UNK         0.0600 
    227 H227       -3.8009  -23.9573  -56.8690 H         1 UNK         0.0600 
    228 H228       -3.3152  -22.5722  -57.8354 H         1 UNK         0.0600 
    229 H229       -3.2348  -22.4851  -56.0813 H         1 UNK         0.0600 
    230 H230       -5.5687  -20.8036  -58.9108 H         1 UNK         0.3000 
    231 H231       -6.1070  -18.3089  -57.6397 H         1 UNK         0.0600 
    232 H232       -5.2395  -18.9504  -60.5110 H         1 UNK         0.0600 
    233 H233       -5.9216  -17.4221  -59.9681 H         1 UNK         0.0600 
    234 H234       -6.9011  -18.8786  -59.9218 H         1 UNK         0.0600 
    235 H235       -3.1134  -19.8910  -58.4253 H         1 UNK         0.3000 
    236 H236       -1.3207  -17.7368  -58.6683 H         1 UNK         0.0600 
    237 H237       -0.7737  -20.0806  -59.2772 H         1 UNK         0.0600 
    238 H238        0.3960  -19.4764  -58.1153 H         1 UNK         0.0600 
    239 H239       -0.8743  -20.5726  -57.5855 H         1 UNK         0.0600 
    240 H240       -2.8724  -18.9990  -55.7946 H         1 UNK         0.3000 
    241 H241       -1.0691  -17.7411  -53.8871 H         1 UNK         0.0600 
    242 H242       -3.7196  -14.9054  -54.9718 H         1 UNK         0.3800 
    243 H243       -3.4403  -16.3036  -55.9775 H         1 UNK         0.3800 
    244 H244       -2.7914  -18.4021  -52.2044 H         1 UNK         0.0800 
    245 H245       -3.8413  -18.9607  -53.4819 H         1 UNK         0.0800 
    246 H246       -2.8150  -20.4247  -50.9048 H         1 UNK         0.0800 
    247 H247       -1.9410  -21.8850  -51.2622 H         1 UNK         0.0800 
@<TRIPOS>BOND
     1    1    2 1    
     2    1  127 1    
     3    1  128 1    
     4    1  129 1    
     5    2    3 2    
     6    2    4 am   BACKBONE|DICT|INTERRES
     7    4    5 1    
     8    4  130 1    
     9    5    6 1    
    10    5   65 1    
    11    5  131 1    
    12    6    7 1    
    13    6  132 1    
    14    6  133 1    
    15    7    8 1    
    16    8    9 1    
    17    8  134 1    
    18    8  135 1    
    19    9   10 ar   
    20    9   14 ar   
    21   10   11 ar   
    22   10  136 1    
    23   11   12 ar   
    24   11  126 1    
    25   12   13 ar   
    26   12  137 1    
    27   13   14 ar   
    28   13   15 1    
    29   14  138 1    
    30   15   16 1    
    31   15  139 1    
    32   15  140 1    
    33   16   17 1    
    34   17   18 1    
    35   17  141 1    
    36   17  142 1    
    37   18   19 1    
    38   18   67 1    
    39   18  143 1    
    40   19   20 am   BACKBONE|DICT|INTERRES
    41   19  144 1    
    42   20   21 2    
    43   20   22 1    
    44   22   23 1    
    45   22   24 1    
    46   22  145 1    
    47   23  146 1    
    48   23  147 1    
    49   23  148 1    
    50   24   25 am   BACKBONE|DICT|INTERRES
    51   24  149 1    
    52   25   26 2    
    53   25   27 1    
    54   27   28 1    
    55   27   29 1    
    56   27  150 1    
    57   28  151 1    
    58   28  152 1    
    59   28  153 1    
    60   29   30 am   BACKBONE|DICT|INTERRES
    61   29  154 1    
    62   30   31 2    
    63   30   32 1    
    64   32   33 1    
    65   32   34 1    
    66   32  155 1    
    67   33  156 1    
    68   33  157 1    
    69   33  158 1    
    70   34   35 am   BACKBONE|DICT|INTERRES
    71   34  159 1    
    72   35   36 2    
    73   35   37 1    
    74   37   38 1    
    75   37   39 1    
    76   37  160 1    
    77   38  161 1    
    78   38  162 1    
    79   38  163 1    
    80   39   40 am   BACKBONE|DICT|INTERRES
    81   39  164 1    
    82   40   41 2    
    83   40   42 1    
    84   42   43 1    
    85   42   44 1    
    86   42  165 1    
    87   43  166 1    
    88   43  167 1    
    89   43  168 1    
    90   44   45 am   BACKBONE|DICT|INTERRES
    91   44  169 1    
    92   45   46 2    
    93   45   47 1    
    94   47   48 1    
    95   47   49 1    
    96   47  170 1    
    97   48  171 1    
    98   48  172 1    
    99   48  173 1    
   100   49   50 am   BACKBONE|DICT|INTERRES
   101   49  174 1    
   102   50   51 2    
   103   50   52 1    
   104   52   53 1    
   105   52   54 1    
   106   52  175 1    
   107   53  176 1    
   108   53  177 1    
   109   53  178 1    
   110   54   55 am   BACKBONE|DICT|INTERRES
   111   54  179 1    
   112   55   56 2    
   113   55   57 1    
   114   57   58 1    
   115   57   59 1    
   116   57  180 1    
   117   58  181 1    
   118   58  182 1    
   119   58  183 1    
   120   59   60 am   BACKBONE|DICT|INTERRES
   121   59  184 1    
   122   60   61 2    
   123   60   62 1    
   124   62   63 1    
   125   62   64 1    
   126   62  185 1    
   127   63  186 1    
   128   63  187 1    
   129   63  188 1    
   130   64   65 am   BACKBONE|DICT|INTERRES
   131   64  189 1    
   132   65   66 2    
   133   67   68 2    
   134   67   69 am   BACKBONE|DICT|INTERRES
   135   69   70 1    
   136   69  190 1    
   137   70   71 1    
   138   70   72 1    
   139   70  191 1    
   140   71  192 1    
   141   71  193 1    
   142   71  194 1    
   143   72   73 2    
   144   72   74 am   BACKBONE|DICT|INTERRES
   145   74   75 1    
   146   74  195 1    
   147   75   76 1    
   148   75   77 1    
   149   75  196 1    
   150   76  197 1    
   151   76  198 1    
   152   76  199 1    
   153   77   78 2    
   154   77   79 am   BACKBONE|DICT|INTERRES
   155   79   80 1    
   156   79  200 1    
   157   80   81 1    
   158   80   82 1    
   159   80  201 1    
   160   81  202 1    
   161   81  203 1    
   162   81  204 1    
   163   82   83 2    
   164   82   84 am   BACKBONE|DICT|INTERRES
   165   84   85 1    
   166   84  205 1    
   167   85   86 1    
   168   85   87 1    
   169   85  206 1    
   170   86  207 1    
   171   86  208 1    
   172   86  209 1    
   173   87   88 2    
   174   87   89 am   BACKBONE|DICT|INTERRES
   175   89   90 1    
   176   89  210 1    
   177   90   91 1    
   178   90   92 1    
   179   90  211 1    
   180   91  212 1    
   181   91  213 1    
   182   91  214 1    
   183   92   93 2    
   184   92   94 am   BACKBONE|DICT|INTERRES
   185   94   95 1    
   186   94  215 1    
   187   95   96 1    
   188   95   97 1    
   189   95  216 1    
   190   96  217 1    
   191   96  218 1    
   192   96  219 1    
   193   97   98 2    
   194   97   99 am   BACKBONE|DICT|INTERRES
   195   99  100 1    
   196   99  220 1    
   197  100  101 1    
   198  100  102 1    
   199  100  221 1    
   200  101  222 1    
   201  101  223 1    
   202  101  224 1    
   203  102  103 2    
   204  102  104 am   BACKBONE|DICT|INTERRES
   205  104  105 1    
   206  104  225 1    
   207  105  106 1    
   208  105  107 1    
   209  105  226 1    
   210  106  227 1    
   211  106  228 1    
   212  106  229 1    
   213  107  108 2    
   214  107  109 am   BACKBONE|DICT|INTERRES
   215  109  110 1    
   216  109  230 1    
   217  110  111 1    
   218  110  112 1    
   219  110  231 1    
   220  111  232 1    
   221  111  233 1    
   222  111  234 1    
   223  112  113 2    
   224  112  114 am   BACKBONE|DICT|INTERRES
   225  114  115 1    
   226  114  235 1    
   227  115  116 1    
   228  115  117 1    
   229  115  236 1    
   230  116  237 1    
   231  116  238 1    
   232  116  239 1    
   233  117  118 2    
   234  117  119 am   BACKBONE|DICT|INTERRES
   235  119  120 1    
   236  119  240 1    
   237  120  121 1    
   238  120  124 1    
   239  120  241 1    
   240  121  122 am   BACKBONE|DICT|INTERRES
   241  121  123 2    
   242  122  242 1    
   243  122  243 1    
   244  124  125 1    
   245  124  244 1    
   246  124  245 1    
   247  125  126 1    
   248  126  246 1    
   249  126  247 1    
@<TRIPOS>SUBSTRUCTURE
     1 UNK         1 GROUP             0       ****    0 ROOT    
