@<TRIPOS>MOLECULE
3R540
247   249    1
SMALL
USER_CHARGES


@<TRIPOS>ATOM
      1 CA          5.4814  -11.8526  -47.5638 C.3       0 UNK        -0.1800 
      2 C           5.5883  -13.3549  -47.7833 C.2       0 UNK         0.5000 
      3 O           6.6695  -13.8532  -48.0963 O.2       0 UNK        -0.5000 
      4 N           4.4710  -14.0763  -47.6201 N.am      1 UNK        -0.5000 
      5 CA          4.3842  -15.5386  -47.7503 C.3       1 UNK         0.1400 
      6 C6          2.9085  -15.9909  -47.9011 C.3       23 UNK        -0.0398 
      7 S7          2.7304  -17.5398  -48.8517 S.3       23 UNK        -0.2404 
      8 C8          2.6001  -16.9111  -50.5593 C.3       23 UNK        -0.0205 
      9 C9          1.1656  -16.7784  -51.0644 C.ar      23 UNK        -0.0193 
     10 C10         0.8266  -17.2919  -52.3208 C.ar      23 UNK        -0.1150 
     11 C11        -0.4648  -17.1352  -52.8330 C.ar      23 UNK        -0.0193 
     12 C12        -1.4323  -16.4779  -52.0694 C.ar      23 UNK        -0.1150 
     13 C13        -1.1105  -15.9620  -50.8116 C.ar      23 UNK        -0.0193 
     14 C14         0.1895  -16.1061  -50.3206 C.ar      23 UNK        -0.1150 
     15 C15        -2.1618  -15.2292  -49.9937 C.3       23 UNK        -0.0205 
     16 S16        -3.1971  -16.3802  -49.0395 S.3       23 UNK        -0.2404 
     17 C17        -2.0495  -16.9337  -47.7279 C.3       23 UNK        -0.0398 
     18 CA         -1.4089  -18.3260  -47.9628 C.3       11 UNK         0.1400 
     19 N          -0.4620  -18.6619  -46.8962 N.am      11 UNK        -0.5000 
     20 C           0.3454  -19.7329  -46.8821 C.2       10 UNK         0.5000 
     21 O           0.4334  -20.5366  -47.8089 O.2       10 UNK        -0.5000 
     22 CA          1.1303  -19.9944  -45.5823 C.3       10 UNK         0.1400 
     23 CB          2.3831  -19.1120  -45.4915 C.3       10 UNK        -0.1800 
     24 N           0.3057  -19.7982  -44.3902 N.am      10 UNK        -0.5000 
     25 C          -0.7797  -20.5235  -44.0869 C.2       9 UNK         0.5000 
     26 O          -1.1668  -21.4844  -44.7496 O.2       9 UNK        -0.5000 
     27 CA         -1.6007  -20.0657  -42.8704 C.3       9 UNK         0.1400 
     28 CB         -1.0185  -20.6289  -41.5651 C.3       9 UNK        -0.1800 
     29 N          -1.6829  -18.6074  -42.7907 N.am      9 UNK        -0.5000 
     30 C          -2.3992  -17.8458  -43.6291 C.2       8 UNK         0.5000 
     31 O          -3.0942  -18.2995  -44.5386 O.2       8 UNK        -0.5000 
     32 CA         -2.2844  -16.3208  -43.4452 C.3       8 UNK         0.1400 
     33 CB         -3.2015  -15.8394  -42.3113 C.3       8 UNK        -0.1800 
     34 N          -0.9117  -15.8895  -43.1761 N.am      8 UNK        -0.5000 
     35 C           0.0902  -15.9668  -44.0623 C.2       7 UNK         0.5000 
     36 O          -0.0488  -16.3689  -45.2164 O.2       7 UNK        -0.5000 
     37 CA          1.4940  -15.5763  -43.5678 C.3       7 UNK         0.1400 
     38 CB          1.7435  -14.0747  -43.7693 C.3       7 UNK        -0.1800 
     39 N           1.7682  -15.9296  -42.1725 N.am      7 UNK        -0.5000 
     40 C           1.6864  -17.1568  -41.6400 C.2       6 UNK         0.5000 
     41 O           1.2697  -18.1346  -42.2587 O.2       6 UNK        -0.5000 
     42 CA          2.1541  -17.3402  -40.1864 C.3       6 UNK         0.1400 
     43 CB          3.5663  -17.9460  -40.1660 C.3       6 UNK        -0.1800 
     44 N           2.1800  -16.0835  -39.4356 N.am      6 UNK        -0.5000 
     45 C           1.3270  -15.7454  -38.4602 C.2       5 UNK         0.5000 
     46 O           0.3653  -16.4388  -38.1268 O.2       5 UNK        -0.5000 
     47 CA          1.5984  -14.4282  -37.7021 C.3       5 UNK         0.1400 
     48 CB          2.2674  -14.7234  -36.3505 C.3       5 UNK        -0.1800 
     49 N           2.4403  -13.4857  -38.4422 N.am      5 UNK        -0.5000 
     50 C           2.0029  -12.6900  -39.4265 C.2       4 UNK         0.5000 
     51 O           0.8284  -12.6422  -39.7932 O.2       4 UNK        -0.5000 
     52 CA          3.0562  -11.8173  -40.1439 C.3       4 UNK         0.1400 
     53 CB          3.1527  -10.4393  -39.4715 C.3       4 UNK        -0.1800 
     54 N           4.4064  -12.3921  -40.2526 N.am      4 UNK        -0.5000 
     55 C           4.6954  -13.5965  -40.7612 C.2       3 UNK         0.5000 
     56 O           3.8387  -14.4387  -41.0288 O.2       3 UNK        -0.5000 
     57 CA          6.1804  -13.9394  -40.9918 C.3       3 UNK         0.1400 
     58 CB          6.8055  -14.4850  -39.6991 C.3       3 UNK        -0.1800 
     59 N           6.3301  -14.9452  -42.0496 N.am      3 UNK        -0.5000 
     60 C           5.9719  -14.7562  -43.3270 C.2       2 UNK         0.5000 
     61 O           5.6658  -13.6517  -43.7896 O.2       2 UNK        -0.5000 
     62 CA          5.9100  -16.0018  -44.2316 C.3       2 UNK         0.1400 
     63 CB          5.2344  -17.2067  -43.5423 C.3       2 UNK        -0.1800 
     64 N           5.1791  -15.6181  -45.4334 N.am      2 UNK        -0.5000 
     65 C           5.1089  -16.2735  -46.5968 C.2       1 UNK         0.5000 
     66 O           5.6134  -17.3797  -46.7915 O.2       1 UNK        -0.5000 
     67 C          -2.4616  -19.4385  -48.1511 C.2       11 UNK         0.5000 
     68 O          -2.6675  -19.8898  -49.2774 O.2       11 UNK        -0.5000 
     69 N          -3.0721  -19.8977  -47.0477 N.am      12 UNK        -0.5000 
     70 CA         -4.0445  -20.9926  -47.0449 C.3       12 UNK         0.1400 
     71 CB         -4.6437  -21.1561  -45.6410 C.3       12 UNK        -0.1800 
     72 C          -3.4591  -22.3242  -47.5505 C.2       12 UNK         0.5000 
     73 O          -4.1394  -23.0358  -48.2894 O.2       12 UNK        -0.5000 
     74 N          -2.2063  -22.6194  -47.1783 N.am      13 UNK        -0.5000 
     75 CA         -1.4475  -23.7753  -47.6522 C.3       13 UNK         0.1400 
     76 CB         -0.1775  -23.9482  -46.8055 C.3       13 UNK        -0.1800 
     77 C          -1.1059  -23.6834  -49.1504 C.2       13 UNK         0.5000 
     78 O          -1.2996  -24.6642  -49.8683 O.2       13 UNK        -0.5000 
     79 N          -0.6454  -22.5079  -49.6048 N.am      14 UNK        -0.5000 
     80 CA         -0.3377  -22.2127  -51.0086 C.3       14 UNK         0.1400 
     81 CB          0.3259  -20.8297  -51.1150 C.3       14 UNK        -0.1800 
     82 C          -1.5773  -22.2931  -51.9186 C.2       14 UNK         0.5000 
     83 O          -1.4994  -22.8456  -53.0168 O.2       14 UNK        -0.5000 
     84 N          -2.7097  -21.7802  -51.4215 N.am      15 UNK        -0.5000 
     85 CA         -4.0141  -21.8469  -52.0745 C.3       15 UNK         0.1400 
     86 CB         -4.9315  -20.7854  -51.4502 C.3       15 UNK        -0.1800 
     87 C          -4.6730  -23.2380  -51.9931 C.2       15 UNK         0.5000 
     88 O          -5.6581  -23.4699  -52.6973 O.2       15 UNK        -0.5000 
     89 N          -4.1553  -24.1154  -51.1215 N.am      16 UNK        -0.5000 
     90 CA         -4.6671  -25.4429  -50.7675 C.3       16 UNK         0.1400 
     91 CB         -4.4988  -26.4231  -51.9452 C.3       16 UNK        -0.1800 
     92 C          -6.1157  -25.3718  -50.2459 C.2       16 UNK         0.5000 
     93 O          -6.9936  -26.0695  -50.7522 O.2       16 UNK        -0.5000 
     94 N          -6.3520  -24.4584  -49.2926 N.am      17 UNK        -0.5000 
     95 CA         -7.6604  -24.0884  -48.7343 C.3       17 UNK         0.1400 
     96 CB         -8.2434  -25.2443  -47.8955 C.3       17 UNK        -0.1800 
     97 C          -8.6421  -23.5654  -49.8093 C.2       17 UNK         0.5000 
     98 O          -9.8467  -23.8082  -49.7255 O.2       17 UNK        -0.5000 
     99 N          -8.0814  -22.8724  -50.8115 N.am      18 UNK        -0.5000 
    100 CA        -8.7157  -22.3244  -52.0147 C.3       18 UNK         0.1400 
    101 CB        -9.8436  -21.3328  -51.6620 C.3       18 UNK        -0.1800 
    102 C         -9.1534  -23.3845  -53.0480 C.2       18 UNK         0.5000 
    103 O         -9.8438  -23.0300  -54.0048 O.2       18 UNK        -0.5000 
    104 N         -8.7309  -24.6481  -52.8833 N.am      19 UNK        -0.5000 
    105 CA        -8.9852  -25.7176  -53.8516 C.3       19 UNK         0.1400 
    106 CB        -8.8198  -27.0878  -53.1780 C.3       19 UNK        -0.1800 
    107 C         -8.0727  -25.6124  -55.0870 C.2       19 UNK         0.5000 
    108 O         -8.5160  -25.9330  -56.1906 O.2       19 UNK        -0.5000 
    109 N         -6.8267  -25.1616  -54.8843 N.am      20 UNK        -0.5000 
    110 CA        -5.8529  -24.9233  -55.9510 C.3       20 UNK         0.1400 
    111 CB        -4.4597  -25.3787  -55.4883 C.3       20 UNK        -0.1800 
    112 C         -5.8175  -23.4406  -56.3494 C.2       20 UNK         0.5000 
    113 O         -5.5926  -23.1349  -57.5211 O.2       20 UNK        -0.5000 
    114 N         -6.0080  -22.5490  -55.3632 N.am      21 UNK        -0.5000 
    115 CA        -6.0109  -21.0839  -55.4734 C.3       21 UNK         0.1400 
    116 CB        -7.2761  -20.6103  -56.2165 C.3       21 UNK        -0.1800 
    117 C         -4.7068  -20.5090  -56.0738 C.2       21 UNK         0.5000 
    118 O         -4.7403  -19.4835  -56.7555 O.2       21 UNK        -0.5000 
    119 N         -3.5890  -21.2055  -55.8219 N.am      22 UNK        -0.5000 
    120 CA        -2.2482  -20.9614  -56.3804 C.3       22 UNK         0.1400 
    121 C         -2.1198  -21.2723  -57.9054 C.2       22 UNK         0.5000 
    122 N         -3.0754  -21.9427  -58.5401 N.am      22 UNK        -0.7600 
    123 O         -1.1169  -20.9304  -58.5265 O.2       22 UNK        -0.5000 
    124 C124       -1.6591  -19.5710  -56.0090 C.3       23 UNK        -0.0398 
    125 S125       -1.5587  -19.2794  -54.2108 S.3       23 UNK        -0.2404 
    126 C126       -0.7998  -17.6293  -54.2308 C.3       23 UNK        -0.0205 
    127 H127        5.7937  -11.3182  -48.4611 H         1 UNK         0.0600 
    128 H128        6.1285  -11.5484  -46.7409 H         1 UNK         0.0600 
    129 H129        4.4622  -11.5485  -47.3243 H         1 UNK         0.0600 
    130 H130        3.6148  -13.6014  -47.3723 H         1 UNK         0.3000 
    131 H131        4.9132  -15.7977  -48.6703 H         1 UNK         0.0600 
    132 H132        2.4232  -16.1077  -46.9307 H         1 UNK         0.0800 
    133 H133        2.3408  -15.2158  -48.4144 H         1 UNK         0.0800 
    134 H134        3.1574  -17.5962  -51.1997 H         1 UNK         0.0800 
    135 H135        3.1012  -15.9462  -50.6457 H         1 UNK         0.0800 
    136 H136        1.5752  -17.7972  -52.9149 H         1 UNK         0.1150 
    137 H137       -2.4337  -16.3587  -52.4589 H         1 UNK         0.1150 
    138 H138        0.4306  -15.6968  -49.3528 H         1 UNK         0.1150 
    139 H139       -1.6969  -14.5046  -49.3233 H         1 UNK         0.0800 
    140 H140       -2.8040  -14.6527  -50.6612 H         1 UNK         0.0800 
    141 H141       -2.6010  -16.9287  -46.7875 H         1 UNK         0.0800 
    142 H142       -1.2658  -16.1853  -47.6083 H         1 UNK         0.0800 
    143 H143       -0.8316  -18.2782  -48.8877 H         1 UNK         0.0600 
    144 H144       -0.4239  -18.0153  -46.1138 H         1 UNK         0.3000 
    145 H145        1.4531  -21.0374  -45.5920 H         1 UNK         0.0600 
    146 H146        2.9367  -19.3046  -44.5725 H         1 UNK         0.0600 
    147 H147        3.0583  -19.3060  -46.3256 H         1 UNK         0.0600 
    148 H148        2.1311  -18.0534  -45.5142 H         1 UNK         0.0600 
    149 H149        0.5867  -19.0614  -43.7483 H         1 UNK         0.3000 
    150 H150       -2.6132  -20.4587  -42.9831 H         1 UNK         0.0600 
    151 H151       -0.9963  -21.7191  -41.5901 H         1 UNK         0.0600 
    152 H152       -1.6217  -20.3359  -40.7058 H         1 UNK         0.0600 
    153 H153        0.0017  -20.2864  -41.3912 H         1 UNK         0.0600 
    154 H154       -1.0711  -18.1571  -42.1252 H         1 UNK         0.3000 
    155 H155       -2.6136  -15.8481  -44.3730 H         1 UNK         0.0600 
    156 H156       -2.9056  -16.2552  -41.3473 H         1 UNK         0.0600 
    157 H157       -4.2354  -16.1357  -42.4937 H         1 UNK         0.0600 
    158 H158       -3.1861  -14.7526  -42.2269 H         1 UNK         0.0600 
    159 H159       -0.7060  -15.5521  -42.2471 H         1 UNK         0.3000 
    160 H160        2.2133  -16.1171  -44.1839 H         1 UNK         0.0600 
    161 H161        1.1039  -13.4716  -43.1236 H         1 UNK         0.0600 
    162 H162        1.5473  -13.7784  -44.8005 H         1 UNK         0.0600 
    163 H163        2.7792  -13.8147  -43.5500 H         1 UNK         0.0600 
    164 H164        2.2270  -15.2128  -41.6191 H         1 UNK         0.3000 
    165 H165        1.4735  -18.0535  -39.7174 H         1 UNK         0.0600 
    166 H166        3.8785  -18.1775  -39.1477 H         1 UNK         0.0600 
    167 H167        3.6058  -18.8745  -40.7373 H         1 UNK         0.0600 
    168 H168        4.3022  -17.2638  -40.5931 H         1 UNK         0.0600 
    169 H169        2.9027  -15.4235  -39.7055 H         1 UNK         0.3000 
    170 H170        0.6323  -13.9583  -37.5054 H         1 UNK         0.0600 
    171 H171        1.6562  -15.3987  -35.7501 H         1 UNK         0.0600 
    172 H172        3.2443  -15.1914  -36.4786 H         1 UNK         0.0600 
    173 H173        2.4049  -13.8105  -35.7705 H         1 UNK         0.0600 
    174 H174        3.4221  -13.4667  -38.2083 H         1 UNK         0.3000 
    175 H175        2.6962  -11.6689  -41.1641 H         1 UNK         0.0600 
    176 H176        3.5591  -10.5132  -38.4621 H         1 UNK         0.0600 
    177 H177        3.7901   -9.7640  -40.0426 H         1 UNK         0.0600 
    178 H178        2.1709   -9.9694  -39.3967 H         1 UNK         0.0600 
    179 H179        5.1689  -11.7694  -40.0273 H         1 UNK         0.3000 
    180 H180        6.7097  -13.0337  -41.2945 H         1 UNK         0.0600 
    181 H181        6.3020  -15.3914  -39.3597 H         1 UNK         0.0600 
    182 H182        6.7424  -13.7531  -38.8928 H         1 UNK         0.0600 
    183 H183        7.8608  -14.7199  -39.8398 H         1 UNK         0.0600 
    184 H184        6.5491  -15.8810  -41.7435 H         1 UNK         0.3000 
    185 H185        6.9314  -16.2653  -44.5118 H         1 UNK         0.0600 
    186 H186        5.8167  -17.5569  -42.6900 H         1 UNK         0.0600 
    187 H187        4.2400  -16.9520  -43.1804 H         1 UNK         0.0600 
    188 H188        5.1338  -18.0540  -44.2197 H         1 UNK         0.0600 
    189 H189        4.8153  -14.6738  -45.3830 H         1 UNK         0.3000 
    190 H190       -2.8793  -19.4568  -46.1538 H         1 UNK         0.3000 
    191 H191       -4.8520  -20.7125  -47.7244 H         1 UNK         0.0600 
    192 H192       -3.8851  -21.4289  -44.9077 H         1 UNK         0.0600 
    193 H193       -5.4053  -21.9369  -45.6309 H         1 UNK         0.0600 
    194 H194       -5.1181  -20.2340  -45.3045 H         1 UNK         0.0600 
    195 H195       -1.7418  -22.0135  -46.5076 H         1 UNK         0.3000 
    196 H196       -2.0685  -24.6620  -47.5082 H         1 UNK         0.0600 
    197 H197        0.3907  -24.8216  -47.1278 H         1 UNK         0.0600 
    198 H198       -0.4231  -24.0897  -45.7529 H         1 UNK         0.0600 
    199 H199        0.4802  -23.0824  -46.8804 H         1 UNK         0.0600 
    200 H200       -0.4725  -21.7581  -48.9391 H         1 UNK         0.3000 
    201 H201        0.3778  -22.9606  -51.3558 H         1 UNK         0.0600 
    202 H202        1.2436  -20.7833  -50.5286 H         1 UNK         0.0600 
    203 H203       -0.3338  -20.0357  -50.7630 H         1 UNK         0.0600 
    204 H204        0.5877  -20.5999  -52.1485 H         1 UNK         0.0600 
    205 H205       -2.6687  -21.2723  -50.5397 H         1 UNK         0.3000 
    206 H206       -3.8815  -21.6044  -53.1282 H         1 UNK         0.0600 
    207 H207       -4.4890  -19.7917  -51.5276 H         1 UNK         0.0600 
    208 H208       -5.8962  -20.7463  -51.9542 H         1 UNK         0.0600 
    209 H209       -5.1163  -20.9855  -50.3939 H         1 UNK         0.0600 
    210 H210       -3.3533  -23.8131  -50.5844 H         1 UNK         0.3000 
    211 H211       -4.0523  -25.8023  -49.9412 H         1 UNK         0.0600 
    212 H212       -5.1571  -26.1745  -52.7761 H         1 UNK         0.0600 
    213 H213       -4.7366  -27.4421  -51.6383 H         1 UNK         0.0600 
    214 H214       -3.4736  -26.4241  -52.3153 H         1 UNK         0.0600 
    215 H215       -5.5554  -23.9245  -48.9440 H         1 UNK         0.3000 
    216 H216       -7.4768  -23.2514  -48.0591 H         1 UNK         0.0600 
    217 H217       -9.1433  -24.9285  -47.3666 H         1 UNK         0.0600 
    218 H218       -7.5300  -25.5846  -47.1451 H         1 UNK         0.0600 
    219 H219       -8.5125  -26.1000  -48.5154 H         1 UNK         0.0600 
    220 H220       -7.0752  -22.7924  -50.7942 H         1 UNK         0.3000 
    221 H221       -7.9378  -21.7501  -52.5175 H         1 UNK         0.0600 
    222 H222      -10.7153  -21.8381  -51.2459 H         1 UNK         0.0600 
    223 H223       -9.5057  -20.5913  -50.9382 H         1 UNK         0.0600 
    224 H224      -10.1772  -20.7900  -52.5472 H         1 UNK         0.0600 
    225 H225       -8.1646  -24.8880  -52.0773 H         1 UNK         0.3000 
    226 H226      -10.0207  -25.6382  -54.1899 H         1 UNK         0.0600 
    227 H227       -9.4159  -27.1584  -52.2680 H         1 UNK         0.0600 
    228 H228       -9.1447  -27.8876  -53.8445 H         1 UNK         0.0600 
    229 H229       -7.7802  -27.2876  -52.9170 H         1 UNK         0.0600 
    230 H230       -6.5555  -24.8810  -53.9491 H         1 UNK         0.3000 
    231 H231       -6.1146  -25.5019  -56.8393 H         1 UNK         0.0600 
    232 H232       -4.4583  -26.4375  -55.2295 H         1 UNK         0.0600 
    233 H233       -4.1143  -24.8201  -54.6180 H         1 UNK         0.0600 
    234 H234       -3.7220  -25.2380  -56.2793 H         1 UNK         0.0600 
    235 H235       -6.1144  -22.9140  -54.4212 H         1 UNK         0.3000 
    236 H236       -6.0669  -20.6999  -54.4545 H         1 UNK         0.0600 
    237 H237       -7.2661  -20.9143  -57.2636 H         1 UNK         0.0600 
    238 H238       -8.1770  -21.0185  -55.7576 H         1 UNK         0.0600 
    239 H239       -7.3640  -19.5237  -56.1907 H         1 UNK         0.0600 
    240 H240       -3.6720  -22.0460  -55.2711 H         1 UNK         0.3000 
    241 H241       -1.6101  -21.7073  -55.9049 H         1 UNK         0.0600 
    242 H242       -2.9636  -22.1410  -59.5216 H         1 UNK         0.3800 
    243 H243       -3.9197  -22.2477  -58.0665 H         1 UNK         0.3800 
    244 H244       -2.2395  -18.7696  -56.4674 H         1 UNK         0.0800 
    245 H245       -0.6473  -19.4749  -56.4061 H         1 UNK         0.0800 
    246 H246       -1.4789  -16.9272  -54.7172 H         1 UNK         0.0800 
    247 H247        0.1040  -17.6536  -54.8416 H         1 UNK         0.0800 
@<TRIPOS>BOND
     1    1    2 1    
     2    1  127 1    
     3    1  128 1    
     4    1  129 1    
     5    2    3 2    
     6    2    4 am   BACKBONE|DICT|INTERRES
     7    4    5 1    
     8    4  130 1    
     9    5    6 1    
    10    5   65 1    
    11    5  131 1    
    12    6    7 1    
    13    6  132 1    
    14    6  133 1    
    15    7    8 1    
    16    8    9 1    
    17    8  134 1    
    18    8  135 1    
    19    9   10 ar   
    20    9   14 ar   
    21   10   11 ar   
    22   10  136 1    
    23   11   12 ar   
    24   11  126 1    
    25   12   13 ar   
    26   12  137 1    
    27   13   14 ar   
    28   13   15 1    
    29   14  138 1    
    30   15   16 1    
    31   15  139 1    
    32   15  140 1    
    33   16   17 1    
    34   17   18 1    
    35   17  141 1    
    36   17  142 1    
    37   18   19 1    
    38   18   67 1    
    39   18  143 1    
    40   19   20 am   BACKBONE|DICT|INTERRES
    41   19  144 1    
    42   20   21 2    
    43   20   22 1    
    44   22   23 1    
    45   22   24 1    
    46   22  145 1    
    47   23  146 1    
    48   23  147 1    
    49   23  148 1    
    50   24   25 am   BACKBONE|DICT|INTERRES
    51   24  149 1    
    52   25   26 2    
    53   25   27 1    
    54   27   28 1    
    55   27   29 1    
    56   27  150 1    
    57   28  151 1    
    58   28  152 1    
    59   28  153 1    
    60   29   30 am   BACKBONE|DICT|INTERRES
    61   29  154 1    
    62   30   31 2    
    63   30   32 1    
    64   32   33 1    
    65   32   34 1    
    66   32  155 1    
    67   33  156 1    
    68   33  157 1    
    69   33  158 1    
    70   34   35 am   BACKBONE|DICT|INTERRES
    71   34  159 1    
    72   35   36 2    
    73   35   37 1    
    74   37   38 1    
    75   37   39 1    
    76   37  160 1    
    77   38  161 1    
    78   38  162 1    
    79   38  163 1    
    80   39   40 am   BACKBONE|DICT|INTERRES
    81   39  164 1    
    82   40   41 2    
    83   40   42 1    
    84   42   43 1    
    85   42   44 1    
    86   42  165 1    
    87   43  166 1    
    88   43  167 1    
    89   43  168 1    
    90   44   45 am   BACKBONE|DICT|INTERRES
    91   44  169 1    
    92   45   46 2    
    93   45   47 1    
    94   47   48 1    
    95   47   49 1    
    96   47  170 1    
    97   48  171 1    
    98   48  172 1    
    99   48  173 1    
   100   49   50 am   BACKBONE|DICT|INTERRES
   101   49  174 1    
   102   50   51 2    
   103   50   52 1    
   104   52   53 1    
   105   52   54 1    
   106   52  175 1    
   107   53  176 1    
   108   53  177 1    
   109   53  178 1    
   110   54   55 am   BACKBONE|DICT|INTERRES
   111   54  179 1    
   112   55   56 2    
   113   55   57 1    
   114   57   58 1    
   115   57   59 1    
   116   57  180 1    
   117   58  181 1    
   118   58  182 1    
   119   58  183 1    
   120   59   60 am   BACKBONE|DICT|INTERRES
   121   59  184 1    
   122   60   61 2    
   123   60   62 1    
   124   62   63 1    
   125   62   64 1    
   126   62  185 1    
   127   63  186 1    
   128   63  187 1    
   129   63  188 1    
   130   64   65 am   BACKBONE|DICT|INTERRES
   131   64  189 1    
   132   65   66 2    
   133   67   68 2    
   134   67   69 am   BACKBONE|DICT|INTERRES
   135   69   70 1    
   136   69  190 1    
   137   70   71 1    
   138   70   72 1    
   139   70  191 1    
   140   71  192 1    
   141   71  193 1    
   142   71  194 1    
   143   72   73 2    
   144   72   74 am   BACKBONE|DICT|INTERRES
   145   74   75 1    
   146   74  195 1    
   147   75   76 1    
   148   75   77 1    
   149   75  196 1    
   150   76  197 1    
   151   76  198 1    
   152   76  199 1    
   153   77   78 2    
   154   77   79 am   BACKBONE|DICT|INTERRES
   155   79   80 1    
   156   79  200 1    
   157   80   81 1    
   158   80   82 1    
   159   80  201 1    
   160   81  202 1    
   161   81  203 1    
   162   81  204 1    
   163   82   83 2    
   164   82   84 am   BACKBONE|DICT|INTERRES
   165   84   85 1    
   166   84  205 1    
   167   85   86 1    
   168   85   87 1    
   169   85  206 1    
   170   86  207 1    
   171   86  208 1    
   172   86  209 1    
   173   87   88 2    
   174   87   89 am   BACKBONE|DICT|INTERRES
   175   89   90 1    
   176   89  210 1    
   177   90   91 1    
   178   90   92 1    
   179   90  211 1    
   180   91  212 1    
   181   91  213 1    
   182   91  214 1    
   183   92   93 2    
   184   92   94 am   BACKBONE|DICT|INTERRES
   185   94   95 1    
   186   94  215 1    
   187   95   96 1    
   188   95   97 1    
   189   95  216 1    
   190   96  217 1    
   191   96  218 1    
   192   96  219 1    
   193   97   98 2    
   194   97   99 am   BACKBONE|DICT|INTERRES
   195   99  100 1    
   196   99  220 1    
   197  100  101 1    
   198  100  102 1    
   199  100  221 1    
   200  101  222 1    
   201  101  223 1    
   202  101  224 1    
   203  102  103 2    
   204  102  104 am   BACKBONE|DICT|INTERRES
   205  104  105 1    
   206  104  225 1    
   207  105  106 1    
   208  105  107 1    
   209  105  226 1    
   210  106  227 1    
   211  106  228 1    
   212  106  229 1    
   213  107  108 2    
   214  107  109 am   BACKBONE|DICT|INTERRES
   215  109  110 1    
   216  109  230 1    
   217  110  111 1    
   218  110  112 1    
   219  110  231 1    
   220  111  232 1    
   221  111  233 1    
   222  111  234 1    
   223  112  113 2    
   224  112  114 am   BACKBONE|DICT|INTERRES
   225  114  115 1    
   226  114  235 1    
   227  115  116 1    
   228  115  117 1    
   229  115  236 1    
   230  116  237 1    
   231  116  238 1    
   232  116  239 1    
   233  117  118 2    
   234  117  119 am   BACKBONE|DICT|INTERRES
   235  119  120 1    
   236  119  240 1    
   237  120  121 1    
   238  120  124 1    
   239  120  241 1    
   240  121  122 am   BACKBONE|DICT|INTERRES
   241  121  123 2    
   242  122  242 1    
   243  122  243 1    
   244  124  125 1    
   245  124  244 1    
   246  124  245 1    
   247  125  126 1    
   248  126  246 1    
   249  126  247 1    
@<TRIPOS>SUBSTRUCTURE
     1 UNK         1 GROUP             0       ****    0 ROOT    
