@<TRIPOS>MOLECULE
3R540
247   249    1
SMALL
USER_CHARGES


@<TRIPOS>ATOM
      1 CA         -0.6262  -15.8416  -47.4881 C.3       0 UNK        -0.1800 
      2 C          -0.6756  -14.4122  -48.0029 C.2       0 UNK         0.5000 
      3 O          -1.5635  -13.6498  -47.6243 O.2       0 UNK        -0.5000 
      4 N           0.2856  -14.0538  -48.8610 N.am      1 UNK        -0.5000 
      5 CA          0.4568  -12.7289  -49.4677 C.3       1 UNK         0.1400 
      6 C6          1.5159  -12.7448  -50.6030 C.3       23 UNK        -0.0398 
      7 S7          3.0570  -13.6315  -50.1526 S.3       23 UNK        -0.2404 
      8 C8          3.2831  -14.8025  -51.5325 C.3       23 UNK        -0.0205 
      9 C9          2.0883  -15.7206  -51.7646 C.ar      23 UNK        -0.0193 
     10 C10         1.3527  -15.6137  -52.9486 C.ar      23 UNK        -0.1150 
     11 C11         0.2822  -16.4736  -53.2047 C.ar      23 UNK        -0.0193 
     12 C12        -0.0592  -17.4419  -52.2569 C.ar      23 UNK        -0.1150 
     13 C13         0.6618  -17.5609  -51.0634 C.ar      23 UNK        -0.0193 
     14 C14         1.7360  -16.6949  -50.8243 C.ar      23 UNK        -0.1150 
     15 C15         0.2720  -18.6064  -50.0242 C.3       23 UNK        -0.0205 
     16 S16         1.5612  -19.8730  -49.8108 S.3       23 UNK        -0.2404 
     17 C17         0.7373  -21.4271  -50.3205 C.3       23 UNK        -0.0398 
     18 CA          0.3373  -22.3683  -49.1488 C.3       11 UNK         0.1400 
     19 N           1.3488  -22.4109  -48.0911 N.am      11 UNK        -0.5000 
     20 C           1.4063  -23.3137  -47.1044 C.2       10 UNK         0.5000 
     21 O           0.6299  -24.2624  -46.9976 O.2       10 UNK        -0.5000 
     22 CA          2.4873  -23.0788  -46.0313 C.3       10 UNK         0.1400 
     23 CB          3.8177  -23.7164  -46.4579 C.3       10 UNK        -0.1800 
     24 N           2.7039  -21.6595  -45.7236 N.am      10 UNK        -0.5000 
     25 C           1.7664  -20.8431  -45.2245 C.2       9 UNK         0.5000 
     26 O           0.6040  -21.1925  -45.0148 O.2       9 UNK        -0.5000 
     27 CA          2.1685  -19.3800  -44.9787 C.3       9 UNK         0.1400 
     28 CB          1.6597  -18.5011  -46.1311 C.3       9 UNK        -0.1800 
     29 N           1.6138  -18.9010  -43.7123 N.am      9 UNK        -0.5000 
     30 C           2.0941  -19.2531  -42.5090 C.2       8 UNK         0.5000 
     31 O           3.1280  -19.9070  -42.3611 O.2       8 UNK        -0.5000 
     32 CA          1.3044  -18.8217  -41.2537 C.3       8 UNK         0.1400 
     33 CB          1.9650  -17.6126  -40.5757 C.3       8 UNK        -0.1800 
     34 N          -0.1025  -18.5187  -41.5172 N.am      8 UNK        -0.5000 
     35 C          -1.0186  -19.4339  -41.8625 C.2       7 UNK         0.5000 
     36 O          -0.7952  -20.6443  -41.8690 O.2       7 UNK        -0.5000 
     37 CA         -2.4185  -18.9349  -42.2737 C.3       7 UNK         0.1400 
     38 CB         -3.4360  -19.2220  -41.1589 C.3       7 UNK        -0.1800 
     39 N          -2.5183  -17.5179  -42.6342 N.am      7 UNK        -0.5000 
     40 C          -1.8351  -16.8580  -43.5773 C.2       6 UNK         0.5000 
     41 O          -0.9098  -17.3518  -44.2193 O.2       6 UNK        -0.5000 
     42 CA         -2.2316  -15.3889  -43.8307 C.3       6 UNK         0.1400 
     43 CB         -3.4933  -15.2930  -44.7076 C.3       6 UNK        -0.1800 
     44 N          -2.3471  -14.5799  -42.6122 N.am      6 UNK        -0.5000 
     45 C          -3.2043  -14.6974  -41.5857 C.2       5 UNK         0.5000 
     46 O          -4.1577  -15.4783  -41.5807 O.2       5 UNK        -0.5000 
     47 CA         -2.9185  -13.8288  -40.3383 C.3       5 UNK         0.1400 
     48 CB         -3.4008  -14.4990  -39.0347 C.3       5 UNK        -0.1800 
     49 N          -1.5115  -13.4212  -40.2127 N.am      5 UNK        -0.5000 
     50 C          -0.4372  -14.2220  -40.1388 C.2       4 UNK         0.5000 
     51 O          -0.4848  -15.4539  -40.1306 O.2       4 UNK        -0.5000 
     52 CA          0.9299  -13.5126  -40.1499 C.3       4 UNK         0.1400 
     53 CB          1.7910  -13.9489  -38.9538 C.3       4 UNK        -0.1800 
     54 N           1.6699  -13.7579  -41.3908 N.am      4 UNK        -0.5000 
     55 C           1.2405  -13.4783  -42.6292 C.2       3 UNK         0.5000 
     56 O           0.1379  -12.9848  -42.8830 O.2       3 UNK        -0.5000 
     57 CA          2.2008  -13.8371  -43.7770 C.3       3 UNK         0.1400 
     58 CB          2.0408  -15.3061  -44.1874 C.3       3 UNK        -0.1800 
     59 N           1.9686  -13.0014  -44.9539 N.am      3 UNK        -0.5000 
     60 C           2.4074  -11.7433  -45.0894 C.2       2 UNK         0.5000 
     61 O           3.0885  -11.1712  -44.2363 O.2       2 UNK        -0.5000 
     62 CA          2.0450  -11.0084  -46.3949 C.3       2 UNK         0.1400 
     63 CB          3.2099  -10.1461  -46.9210 C.3       2 UNK        -0.1800 
     64 N           1.6070  -11.9338  -47.4436 N.am      2 UNK        -0.5000 
     65 C           0.7595  -11.6227  -48.4328 C.2       1 UNK         0.5000 
     66 O           0.2212  -10.5206  -48.5510 O.2       1 UNK        -0.5000 
     67 C          -1.0771  -22.0688  -48.6051 C.2       11 UNK         0.5000 
     68 O          -2.0508  -22.6326  -49.1065 O.2       11 UNK        -0.5000 
     69 N          -1.1705  -21.2166  -47.5749 N.am      12 UNK        -0.5000 
     70 CA         -2.4215  -20.9114  -46.8809 C.3       12 UNK         0.1400 
     71 CB         -2.2852  -19.5809  -46.1313 C.3       12 UNK        -0.1800 
     72 C          -2.8339  -22.0472  -45.9301 C.2       12 UNK         0.5000 
     73 O          -4.0095  -22.4104  -45.8972 O.2       12 UNK        -0.5000 
     74 N          -1.8557  -22.6124  -45.2074 N.am      13 UNK        -0.5000 
     75 CA         -2.0259  -23.7353  -44.2818 C.3       13 UNK         0.1400 
     76 CB         -0.6967  -24.0124  -43.5650 C.3       13 UNK        -0.1800 
     77 C          -2.5498  -25.0170  -44.9580 C.2       13 UNK         0.5000 
     78 O          -3.3042  -25.7654  -44.3348 O.2       13 UNK        -0.5000 
     79 N          -2.1911  -25.2249  -46.2325 N.am      14 UNK        -0.5000 
     80 CA         -2.6732  -26.2961  -47.1088 C.3       14 UNK         0.1400 
     81 CB         -1.6857  -26.4463  -48.2787 C.3       14 UNK        -0.1800 
     82 C          -4.1269  -26.0678  -47.5880 C.2       14 UNK         0.5000 
     83 O          -4.3937  -26.0705  -48.7924 O.2       14 UNK        -0.5000 
     84 N          -5.0384  -25.8401  -46.6295 N.am      15 UNK        -0.5000 
     85 CA         -6.4856  -25.6209  -46.7734 C.3       15 UNK         0.1400 
     86 CB         -7.1717  -26.9381  -47.1901 C.3       15 UNK        -0.1800 
     87 C          -6.8665  -24.4490  -47.7072 C.2       15 UNK         0.5000 
     88 O          -7.9693  -24.4374  -48.2558 O.2       15 UNK        -0.5000 
     89 N          -5.9282  -23.5114  -47.9051 N.am      16 UNK        -0.5000 
     90 CA         -5.9286  -22.4150  -48.8781 C.3       16 UNK         0.1400 
     91 CB         -7.0051  -21.3699  -48.5268 C.3       16 UNK        -0.1800 
     92 C          -6.0059  -22.8587  -50.3578 C.2       16 UNK         0.5000 
     93 O          -6.1578  -22.0045  -51.2312 O.2       16 UNK        -0.5000 
     94 N          -5.8655  -24.1618  -50.6410 N.am      17 UNK        -0.5000 
     95 CA         -5.9333  -24.7249  -51.9899 C.3       17 UNK         0.1400 
     96 CB         -6.1129  -26.2477  -51.9015 C.3       17 UNK        -0.1800 
     97 C          -4.6863  -24.3603  -52.8074 C.2       17 UNK         0.5000 
     98 O          -4.8010  -23.9224  -53.9532 O.2       17 UNK        -0.5000 
     99 N          -3.5156  -24.4835  -52.1690 N.am      18 UNK        -0.5000 
    100 CA        -2.2360  -24.0537  -52.7258 C.3       18 UNK         0.1400 
    101 CB        -1.0922  -24.6780  -51.9183 C.3       18 UNK        -0.1800 
    102 C         -2.1057  -22.5212  -52.7926 C.2       18 UNK         0.5000 
    103 O         -1.3647  -22.0259  -53.6397 O.2       18 UNK        -0.5000 
    104 N         -2.8327  -21.7941  -51.9301 N.am      19 UNK        -0.5000 
    105 CA        -2.9219  -20.3343  -51.9591 C.3       19 UNK         0.1400 
    106 CB        -3.4587  -19.7869  -50.6287 C.3       19 UNK        -0.1800 
    107 C         -3.7705  -19.8288  -53.1338 C.2       19 UNK         0.5000 
    108 O         -3.3682  -18.8724  -53.7945 O.2       19 UNK        -0.5000 
    109 N         -4.8991  -20.5026  -53.3981 N.am      20 UNK        -0.5000 
    110 CA        -5.7752  -20.2452  -54.5428 C.3       20 UNK         0.1400 
    111 CB        -7.0614  -21.0729  -54.4008 C.3       20 UNK        -0.1800 
    112 C         -5.0829  -20.5302  -55.8887 C.2       20 UNK         0.5000 
    113 O         -5.2570  -19.7646  -56.8375 O.2       20 UNK        -0.5000 
    114 N         -4.2774  -21.6009  -55.9316 N.am      21 UNK        -0.5000 
    115 CA        -3.4017  -21.9329  -57.0578 C.3       21 UNK         0.1400 
    116 CB        -2.9410  -23.3910  -56.9114 C.3       21 UNK        -0.1800 
    117 C         -2.1794  -20.9964  -57.1716 C.2       21 UNK         0.5000 
    118 O         -1.6284  -20.8524  -58.2634 O.2       21 UNK        -0.5000 
    119 N         -1.7800  -20.3916  -56.0455 N.am      22 UNK        -0.5000 
    120 CA        -0.5694  -19.5814  -55.8550 C.3       22 UNK         0.1400 
    121 C          0.7359  -20.4097  -56.0495 C.2       22 UNK         0.5000 
    122 N          0.8296  -21.5696  -55.4114 N.am      22 UNK        -0.7600 
    123 O          1.6512  -20.0279  -56.7742 O.2       22 UNK        -0.5000 
    124 C124       -0.6266  -18.2366  -56.6290 C.3       23 UNK        -0.0398 
    125 S125        0.4681  -16.9565  -55.9221 S.3       23 UNK        -0.2404 
    126 C126       -0.5020  -16.3470  -54.5042 C.3       23 UNK        -0.0205 
    127 H127        0.3426  -16.2996  -47.6840 H         1 UNK         0.0600 
    128 H128       -1.4019  -16.4423  -47.9626 H         1 UNK         0.0600 
    129 H129       -0.7875  -15.8625  -46.4136 H         1 UNK         0.0600 
    130 H130        0.9792  -14.7327  -49.1413 H         1 UNK         0.3000 
    131 H131       -0.5006  -12.4661  -49.9228 H         1 UNK         0.0600 
    132 H132        1.0756  -13.2081  -51.4850 H         1 UNK         0.0800 
    133 H133        1.7733  -11.7317  -50.9180 H         1 UNK         0.0800 
    134 H134        4.1627  -15.4149  -51.3295 H         1 UNK         0.0800 
    135 H135        3.5139  -14.2348  -52.4353 H         1 UNK         0.0800 
    136 H136        1.6207  -14.8684  -53.6845 H         1 UNK         0.1150 
    137 H137       -0.8935  -18.0944  -52.4547 H         1 UNK         0.1150 
    138 H138        2.3052  -16.7873  -49.9097 H         1 UNK         0.1150 
    139 H139        0.1152  -18.1186  -49.0644 H         1 UNK         0.0800 
    140 H140       -0.6796  -19.0695  -50.2762 H         1 UNK         0.0800 
    141 H141        1.4509  -21.9543  -50.9549 H         1 UNK         0.0800 
    142 H142       -0.1076  -21.2126  -50.9747 H         1 UNK         0.0800 
    143 H143        0.2905  -23.3785  -49.5568 H         1 UNK         0.0600 
    144 H144        2.0243  -21.6599  -48.1014 H         1 UNK         0.3000 
    145 H145        2.1552  -23.5691  -45.1146 H         1 UNK         0.0600 
    146 H146        4.5652  -23.6355  -45.6685 H         1 UNK         0.0600 
    147 H147        3.6898  -24.7779  -46.6746 H         1 UNK         0.0600 
    148 H148        4.2224  -23.2447  -47.3543 H         1 UNK         0.0600 
    149 H149        3.6350  -21.3017  -45.8815 H         1 UNK         0.3000 
    150 H150        3.2571  -19.3042  -44.9399 H         1 UNK         0.0600 
    151 H151        2.0852  -18.8220  -47.0815 H         1 UNK         0.0600 
    152 H152        1.9428  -17.4606  -45.9931 H         1 UNK         0.0600 
    153 H153        0.5743  -18.5413  -46.2247 H         1 UNK         0.0600 
    154 H154        0.7318  -18.4006  -43.7678 H         1 UNK         0.3000 
    155 H155        1.3425  -19.6577  -40.5522 H         1 UNK         0.0600 
    156 H156        1.8784  -16.7127  -41.1826 H         1 UNK         0.0600 
    157 H157        3.0258  -17.7902  -40.3948 H         1 UNK         0.0600 
    158 H158        1.5021  -17.4076  -39.6103 H         1 UNK         0.0600 
    159 H159       -0.3729  -17.5445  -41.4958 H         1 UNK         0.3000 
    160 H160       -2.7097  -19.5112  -43.1531 H         1 UNK         0.0600 
    161 H161       -3.2196  -18.6400  -40.2621 H         1 UNK         0.0600 
    162 H162       -3.4272  -20.2762  -40.8785 H         1 UNK         0.0600 
    163 H163       -4.4502  -18.9811  -41.4783 H         1 UNK         0.0600 
    164 H164       -3.2371  -16.9850  -42.1509 H         1 UNK         0.3000 
    165 H165       -1.4129  -14.9355  -44.3899 H         1 UNK         0.0600 
    166 H166       -4.3666  -15.7287  -44.2220 H         1 UNK         0.0600 
    167 H167       -3.7248  -14.2558  -44.9498 H         1 UNK         0.0600 
    168 H168       -3.3492  -15.8210  -45.6511 H         1 UNK         0.0600 
    169 H169       -1.5900  -13.9120  -42.4981 H         1 UNK         0.3000 
    170 H170       -3.4934  -12.9116  -40.4723 H         1 UNK         0.0600 
    171 H171       -4.4772  -14.6729  -39.0569 H         1 UNK         0.0600 
    172 H172       -2.9176  -15.4632  -38.8733 H         1 UNK         0.0600 
    173 H173       -3.1941  -13.8709  -38.1682 H         1 UNK         0.0600 
    174 H174       -1.3522  -12.4241  -40.2594 H         1 UNK         0.3000 
    175 H175        0.7687  -12.4356  -40.0704 H         1 UNK         0.0600 
    176 H176        2.0405  -15.0093  -38.9995 H         1 UNK         0.0600 
    177 H177        2.7240  -13.3866  -38.9126 H         1 UNK         0.0600 
    178 H178        1.2668  -13.7763  -38.0129 H         1 UNK         0.0600 
    179 H179        2.5791  -14.1818  -41.2801 H         1 UNK         0.3000 
    180 H180        3.2262  -13.6861  -43.4322 H         1 UNK         0.0600 
    181 H181        1.0452  -15.5110  -44.5802 H         1 UNK         0.0600 
    182 H182        2.2078  -15.9762  -43.3453 H         1 UNK         0.0600 
    183 H183        2.7681  -15.5702  -44.9547 H         1 UNK         0.0600 
    184 H184        1.3307  -13.3648  -45.6444 H         1 UNK         0.3000 
    185 H185        1.2155  -10.3461  -46.1387 H         1 UNK         0.0600 
    186 H186        2.9199   -9.5867  -47.8104 H         1 UNK         0.0600 
    187 H187        3.5319   -9.4168  -46.1767 H         1 UNK         0.0600 
    188 H188        4.0740  -10.7594  -47.1788 H         1 UNK         0.0600 
    189 H189        2.0398  -12.8468  -47.4480 H         1 UNK         0.3000 
    190 H190       -0.3240  -20.8475  -47.1664 H         1 UNK         0.3000 
    191 H191       -3.2161  -20.7928  -47.6183 H         1 UNK         0.0600 
    192 H192       -3.2246  -19.3037  -45.6516 H         1 UNK         0.0600 
    193 H193       -2.0130  -18.7696  -46.8063 H         1 UNK         0.0600 
    194 H194       -1.5246  -19.6389  -45.3535 H         1 UNK         0.0600 
    195 H195       -0.9252  -22.2019  -45.2492 H         1 UNK         0.3000 
    196 H196       -2.7604  -23.4315  -43.5334 H         1 UNK         0.0600 
    197 H197        0.0696  -24.3523  -44.2609 H         1 UNK         0.0600 
    198 H198       -0.3229  -23.1196  -43.0633 H         1 UNK         0.0600 
    199 H199       -0.8170  -24.7864  -42.8062 H         1 UNK         0.0600 
    200 H200       -1.5288  -24.5788  -46.6447 H         1 UNK         0.3000 
    201 H201       -2.6673  -27.2318  -46.5464 H         1 UNK         0.0600 
    202 H202       -1.6224  -25.5276  -48.8609 H         1 UNK         0.0600 
    203 H203       -1.9870  -27.2486  -48.9534 H         1 UNK         0.0600 
    204 H204       -0.6836  -26.6828  -47.9206 H         1 UNK         0.0600 
    205 H205       -4.6883  -25.8269  -45.6754 H         1 UNK         0.3000 
    206 H206       -6.8538  -25.3502  -45.7830 H         1 UNK         0.0600 
    207 H207       -6.9072  -27.7515  -46.5144 H         1 UNK         0.0600 
    208 H208       -8.2579  -26.8423  -47.1676 H         1 UNK         0.0600 
    209 H209       -6.8896  -27.2363  -48.2006 H         1 UNK         0.0600 
    210 H210       -5.0838  -23.5811  -47.3487 H         1 UNK         0.3000 
    211 H211       -4.9568  -21.9338  -48.7706 H         1 UNK         0.0600 
    212 H212       -6.9138  -20.4847  -49.1574 H         1 UNK         0.0600 
    213 H213       -6.9092  -21.0400  -47.4923 H         1 UNK         0.0600 
    214 H214       -8.0123  -21.7643  -48.6628 H         1 UNK         0.0600 
    215 H215       -5.6674  -24.8084  -49.8852 H         1 UNK         0.3000 
    216 H216       -6.8048  -24.3064  -52.4979 H         1 UNK         0.0600 
    217 H217       -5.2765  -26.7261  -51.3903 H         1 UNK         0.0600 
    218 H218       -6.1877  -26.6899  -52.8958 H         1 UNK         0.0600 
    219 H219       -7.0241  -26.5046  -51.3610 H         1 UNK         0.0600 
    220 H220       -3.5128  -24.8376  -51.2223 H         1 UNK         0.3000 
    221 H221       -2.1630  -24.4280  -53.7487 H         1 UNK         0.0600 
    222 H222       -1.0856  -25.7630  -52.0234 H         1 UNK         0.0600 
    223 H223       -1.1885  -24.4502  -50.8601 H         1 UNK         0.0600 
    224 H224       -0.1212  -24.3114  -52.2541 H         1 UNK         0.0600 
    225 H225       -3.3772  -22.2775  -51.2315 H         1 UNK         0.3000 
    226 H226       -1.9112  -19.9545  -52.0964 H         1 UNK         0.0600 
    227 H227       -4.4705  -20.1313  -50.4212 H         1 UNK         0.0600 
    228 H228       -2.8242  -20.0783  -49.7962 H         1 UNK         0.0600 
    229 H229       -3.4850  -18.6966  -50.6424 H         1 UNK         0.0600 
    230 H230       -5.1975  -21.2318  -52.7571 H         1 UNK         0.3000 
    231 H231       -6.0466  -19.1876  -54.5254 H         1 UNK         0.0600 
    232 H232       -6.8531  -22.1431  -54.3824 H         1 UNK         0.0600 
    233 H233       -7.7418  -20.8839  -55.2319 H         1 UNK         0.0600 
    234 H234       -7.5914  -20.8213  -53.4819 H         1 UNK         0.0600 
    235 H235       -4.2533  -22.2229  -55.1313 H         1 UNK         0.3000 
    236 H236       -3.9770  -21.8460  -57.9818 H         1 UNK         0.0600 
    237 H237       -3.7910  -24.0716  -56.8568 H         1 UNK         0.0600 
    238 H238       -2.3328  -23.6958  -57.7639 H         1 UNK         0.0600 
    239 H239       -2.3397  -23.5323  -56.0130 H         1 UNK         0.0600 
    240 H240       -2.2821  -20.6083  -55.1965 H         1 UNK         0.3000 
    241 H241       -0.5807  -19.3319  -54.7933 H         1 UNK         0.0600 
    242 H242        1.6541  -22.1380  -55.5171 H         1 UNK         0.3800 
    243 H243        0.0758  -21.8666  -54.7955 H         1 UNK         0.3800 
    244 H244       -1.6451  -17.8454  -56.6291 H         1 UNK         0.0800 
    245 H245       -0.3668  -18.3857  -57.6781 H         1 UNK         0.0800 
    246 H246       -0.7572  -15.2999  -54.6731 H         1 UNK         0.0800 
    247 H247       -1.4504  -16.8816  -54.4304 H         1 UNK         0.0800 
@<TRIPOS>BOND
     1    1    2 1    
     2    1  127 1    
     3    1  128 1    
     4    1  129 1    
     5    2    3 2    
     6    2    4 am   BACKBONE|DICT|INTERRES
     7    4    5 1    
     8    4  130 1    
     9    5    6 1    
    10    5   65 1    
    11    5  131 1    
    12    6    7 1    
    13    6  132 1    
    14    6  133 1    
    15    7    8 1    
    16    8    9 1    
    17    8  134 1    
    18    8  135 1    
    19    9   10 ar   
    20    9   14 ar   
    21   10   11 ar   
    22   10  136 1    
    23   11   12 ar   
    24   11  126 1    
    25   12   13 ar   
    26   12  137 1    
    27   13   14 ar   
    28   13   15 1    
    29   14  138 1    
    30   15   16 1    
    31   15  139 1    
    32   15  140 1    
    33   16   17 1    
    34   17   18 1    
    35   17  141 1    
    36   17  142 1    
    37   18   19 1    
    38   18   67 1    
    39   18  143 1    
    40   19   20 am   BACKBONE|DICT|INTERRES
    41   19  144 1    
    42   20   21 2    
    43   20   22 1    
    44   22   23 1    
    45   22   24 1    
    46   22  145 1    
    47   23  146 1    
    48   23  147 1    
    49   23  148 1    
    50   24   25 am   BACKBONE|DICT|INTERRES
    51   24  149 1    
    52   25   26 2    
    53   25   27 1    
    54   27   28 1    
    55   27   29 1    
    56   27  150 1    
    57   28  151 1    
    58   28  152 1    
    59   28  153 1    
    60   29   30 am   BACKBONE|DICT|INTERRES
    61   29  154 1    
    62   30   31 2    
    63   30   32 1    
    64   32   33 1    
    65   32   34 1    
    66   32  155 1    
    67   33  156 1    
    68   33  157 1    
    69   33  158 1    
    70   34   35 am   BACKBONE|DICT|INTERRES
    71   34  159 1    
    72   35   36 2    
    73   35   37 1    
    74   37   38 1    
    75   37   39 1    
    76   37  160 1    
    77   38  161 1    
    78   38  162 1    
    79   38  163 1    
    80   39   40 am   BACKBONE|DICT|INTERRES
    81   39  164 1    
    82   40   41 2    
    83   40   42 1    
    84   42   43 1    
    85   42   44 1    
    86   42  165 1    
    87   43  166 1    
    88   43  167 1    
    89   43  168 1    
    90   44   45 am   BACKBONE|DICT|INTERRES
    91   44  169 1    
    92   45   46 2    
    93   45   47 1    
    94   47   48 1    
    95   47   49 1    
    96   47  170 1    
    97   48  171 1    
    98   48  172 1    
    99   48  173 1    
   100   49   50 am   BACKBONE|DICT|INTERRES
   101   49  174 1    
   102   50   51 2    
   103   50   52 1    
   104   52   53 1    
   105   52   54 1    
   106   52  175 1    
   107   53  176 1    
   108   53  177 1    
   109   53  178 1    
   110   54   55 am   BACKBONE|DICT|INTERRES
   111   54  179 1    
   112   55   56 2    
   113   55   57 1    
   114   57   58 1    
   115   57   59 1    
   116   57  180 1    
   117   58  181 1    
   118   58  182 1    
   119   58  183 1    
   120   59   60 am   BACKBONE|DICT|INTERRES
   121   59  184 1    
   122   60   61 2    
   123   60   62 1    
   124   62   63 1    
   125   62   64 1    
   126   62  185 1    
   127   63  186 1    
   128   63  187 1    
   129   63  188 1    
   130   64   65 am   BACKBONE|DICT|INTERRES
   131   64  189 1    
   132   65   66 2    
   133   67   68 2    
   134   67   69 am   BACKBONE|DICT|INTERRES
   135   69   70 1    
   136   69  190 1    
   137   70   71 1    
   138   70   72 1    
   139   70  191 1    
   140   71  192 1    
   141   71  193 1    
   142   71  194 1    
   143   72   73 2    
   144   72   74 am   BACKBONE|DICT|INTERRES
   145   74   75 1    
   146   74  195 1    
   147   75   76 1    
   148   75   77 1    
   149   75  196 1    
   150   76  197 1    
   151   76  198 1    
   152   76  199 1    
   153   77   78 2    
   154   77   79 am   BACKBONE|DICT|INTERRES
   155   79   80 1    
   156   79  200 1    
   157   80   81 1    
   158   80   82 1    
   159   80  201 1    
   160   81  202 1    
   161   81  203 1    
   162   81  204 1    
   163   82   83 2    
   164   82   84 am   BACKBONE|DICT|INTERRES
   165   84   85 1    
   166   84  205 1    
   167   85   86 1    
   168   85   87 1    
   169   85  206 1    
   170   86  207 1    
   171   86  208 1    
   172   86  209 1    
   173   87   88 2    
   174   87   89 am   BACKBONE|DICT|INTERRES
   175   89   90 1    
   176   89  210 1    
   177   90   91 1    
   178   90   92 1    
   179   90  211 1    
   180   91  212 1    
   181   91  213 1    
   182   91  214 1    
   183   92   93 2    
   184   92   94 am   BACKBONE|DICT|INTERRES
   185   94   95 1    
   186   94  215 1    
   187   95   96 1    
   188   95   97 1    
   189   95  216 1    
   190   96  217 1    
   191   96  218 1    
   192   96  219 1    
   193   97   98 2    
   194   97   99 am   BACKBONE|DICT|INTERRES
   195   99  100 1    
   196   99  220 1    
   197  100  101 1    
   198  100  102 1    
   199  100  221 1    
   200  101  222 1    
   201  101  223 1    
   202  101  224 1    
   203  102  103 2    
   204  102  104 am   BACKBONE|DICT|INTERRES
   205  104  105 1    
   206  104  225 1    
   207  105  106 1    
   208  105  107 1    
   209  105  226 1    
   210  106  227 1    
   211  106  228 1    
   212  106  229 1    
   213  107  108 2    
   214  107  109 am   BACKBONE|DICT|INTERRES
   215  109  110 1    
   216  109  230 1    
   217  110  111 1    
   218  110  112 1    
   219  110  231 1    
   220  111  232 1    
   221  111  233 1    
   222  111  234 1    
   223  112  113 2    
   224  112  114 am   BACKBONE|DICT|INTERRES
   225  114  115 1    
   226  114  235 1    
   227  115  116 1    
   228  115  117 1    
   229  115  236 1    
   230  116  237 1    
   231  116  238 1    
   232  116  239 1    
   233  117  118 2    
   234  117  119 am   BACKBONE|DICT|INTERRES
   235  119  120 1    
   236  119  240 1    
   237  120  121 1    
   238  120  124 1    
   239  120  241 1    
   240  121  122 am   BACKBONE|DICT|INTERRES
   241  121  123 2    
   242  122  242 1    
   243  122  243 1    
   244  124  125 1    
   245  124  244 1    
   246  124  245 1    
   247  125  126 1    
   248  126  246 1    
   249  126  247 1    
@<TRIPOS>SUBSTRUCTURE
     1 UNK         1 GROUP             0       ****    0 ROOT    
