@<TRIPOS>MOLECULE
3R540
247   249    1
SMALL
USER_CHARGES


@<TRIPOS>ATOM
      1 CA         -5.6666  -18.1541  -45.0524 C.3       0 UNK        -0.1800 
      2 C          -5.0153  -16.8564  -45.5082 C.2       0 UNK         0.5000 
      3 O          -5.2959  -15.7962  -44.9479 O.2       0 UNK        -0.5000 
      4 N          -4.1422  -16.9339  -46.5194 N.am      1 UNK        -0.5000 
      5 CA         -3.3584  -15.8285  -47.0804 C.3       1 UNK         0.1400 
      6 C6         -2.9121  -16.1122  -48.5441 C.3       23 UNK        -0.0398 
      7 S7         -2.2693  -17.7967  -48.8655 S.3       23 UNK        -0.2404 
      8 C8         -0.5050  -17.4788  -49.1904 C.3       23 UNK        -0.0205 
      9 C9          0.2692  -18.7336  -49.5815 C.ar      23 UNK        -0.0193 
     10 C10        -0.2065  -19.6031  -50.5711 C.ar      23 UNK        -0.1150 
     11 C11         0.5281  -20.7328  -50.9418 C.ar      23 UNK        -0.0193 
     12 C12         1.7619  -20.9781  -50.3329 C.ar      23 UNK        -0.1150 
     13 C13         2.2589  -20.1108  -49.3566 C.ar      23 UNK        -0.0193 
     14 C14         1.5028  -18.9977  -48.9783 C.ar      23 UNK        -0.1150 
     15 C15         3.6326  -20.3527  -48.7466 C.3       23 UNK        -0.0205 
     16 S16         3.6553  -21.7593  -47.5920 S.3       23 UNK        -0.2404 
     17 C17         2.6787  -21.1100  -46.1953 C.3       23 UNK        -0.0398 
     18 CA          1.6026  -22.1060  -45.7035 C.3       11 UNK         0.1400 
     19 N           1.2126  -21.8306  -44.3156 N.am      11 UNK        -0.5000 
     20 C           0.4310  -22.6175  -43.5614 C.2       10 UNK         0.5000 
     21 O          -0.0362  -23.6888  -43.9477 O.2       10 UNK        -0.5000 
     22 CA          0.0824  -22.1003  -42.1540 C.3       10 UNK         0.1400 
     23 CB          1.2341  -22.3611  -41.1717 C.3       10 UNK        -0.1800 
     24 N          -0.2431  -20.6744  -42.1650 N.am      10 UNK        -0.5000 
     25 C          -1.3577  -20.1599  -42.7039 C.2       9 UNK         0.5000 
     26 O          -2.2824  -20.8459  -43.1364 O.2       9 UNK        -0.5000 
     27 CA         -1.4436  -18.6239  -42.8045 C.3       9 UNK         0.1400 
     28 CB         -2.0086  -18.0358  -41.5042 C.3       9 UNK        -0.1800 
     29 N          -0.1523  -18.0016  -43.1093 N.am      9 UNK        -0.5000 
     30 C           0.5316  -18.2002  -44.2464 C.2       8 UNK         0.5000 
     31 O           0.1244  -18.8973  -45.1722 O.2       8 UNK        -0.5000 
     32 CA          1.9323  -17.5748  -44.3462 C.3       8 UNK         0.1400 
     33 CB          1.8707  -16.1516  -44.9034 C.3       8 UNK        -0.1800 
     34 N           2.6267  -17.5710  -43.0609 N.am      8 UNK        -0.5000 
     35 C           3.1443  -18.6695  -42.4967 C.2       7 UNK         0.5000 
     36 O           3.1047  -19.7866  -43.0135 O.2       7 UNK        -0.5000 
     37 CA          3.7593  -18.4914  -41.0983 C.3       7 UNK         0.1400 
     38 CB          5.1466  -17.8382  -41.1893 C.3       7 UNK        -0.1800 
     39 N           2.9009  -17.6988  -40.2168 N.am      7 UNK        -0.5000 
     40 C           1.6924  -18.0941  -39.7923 C.2       6 UNK         0.5000 
     41 O           1.1894  -19.1783  -40.0840 O.2       6 UNK        -0.5000 
     42 CA          0.8935  -17.1086  -38.9203 C.3       6 UNK         0.1400 
     43 CB          1.1913  -17.3506  -37.4332 C.3       6 UNK        -0.1800 
     44 N           1.1212  -15.6960  -39.2299 N.am      6 UNK        -0.5000 
     45 C           0.9235  -15.1036  -40.4155 C.2       5 UNK         0.5000 
     46 O           0.5858  -15.7091  -41.4364 O.2       5 UNK        -0.5000 
     47 CA          1.1257  -13.5740  -40.4742 C.3       5 UNK         0.1400 
     48 CB          1.7914  -12.9700  -39.2164 C.3       5 UNK        -0.1800 
     49 N           1.8441  -13.1553  -41.6783 N.am      5 UNK        -0.5000 
     50 C           3.0727  -13.5319  -42.0631 C.2       4 UNK         0.5000 
     51 O           3.7728  -14.3333  -41.4413 O.2       4 UNK        -0.5000 
     52 CA          3.5746  -12.9213  -43.3843 C.3       4 UNK         0.1400 
     53 CB          4.8117  -13.6435  -43.9498 C.3       4 UNK        -0.1800 
     54 N           2.4916  -12.9498  -44.3665 N.am      4 UNK        -0.5000 
     55 C           1.9743  -11.8901  -44.9976 C.2       3 UNK         0.5000 
     56 O           2.4259  -10.7478  -44.9116 O.2       3 UNK        -0.5000 
     57 CA          0.7134  -12.1492  -45.8459 C.3       3 UNK         0.1400 
     58 CB          1.0992  -12.4707  -47.2976 C.3       3 UNK        -0.1800 
     59 N          -0.1369  -13.2297  -45.3354 N.am      3 UNK        -0.5000 
     60 C          -0.7824  -13.2480  -44.1624 C.2       2 UNK         0.5000 
     61 O          -0.6880  -12.3403  -43.3341 O.2       2 UNK        -0.5000 
     62 CA         -1.6648  -14.4863  -43.8624 C.3       2 UNK         0.1400 
     63 CB         -2.5316  -14.2897  -42.6056 C.3       2 UNK        -0.1800 
     64 N          -2.5487  -14.8914  -44.9609 N.am      2 UNK        -0.5000 
     65 C          -2.2008  -15.4243  -46.1391 C.2       1 UNK         0.5000 
     66 O          -1.0318  -15.5942  -46.4780 O.2       1 UNK        -0.5000 
     67 C           0.3914  -22.1781  -46.6622 C.2       11 UNK         0.5000 
     68 O           0.3856  -23.0127  -47.5656 O.2       11 UNK        -0.5000 
     69 N          -0.6433  -21.3665  -46.3978 N.am      12 UNK        -0.5000 
     70 CA         -1.9158  -21.3075  -47.1241 C.3       12 UNK         0.1400 
     71 CB         -2.7999  -20.2242  -46.4887 C.3       12 UNK        -0.1800 
     72 C          -2.7001  -22.6348  -47.1879 C.2       12 UNK         0.5000 
     73 O          -3.5988  -22.7576  -48.0188 O.2       12 UNK        -0.5000 
     74 N          -2.3623  -23.6073  -46.3282 N.am      13 UNK        -0.5000 
     75 CA         -2.8830  -24.9730  -46.3878 C.3       13 UNK         0.1400 
     76 CB         -2.4582  -25.7310  -45.1217 C.3       13 UNK        -0.1800 
     77 C          -2.4321  -25.7347  -47.6519 C.2       13 UNK         0.5000 
     78 O          -3.1426  -26.6398  -48.0926 O.2       13 UNK        -0.5000 
     79 N          -1.2780  -25.3581  -48.2218 N.am      14 UNK        -0.5000 
     80 CA         -0.7866  -25.8736  -49.4950 C.3       14 UNK         0.1400 
     81 CB          0.7241  -25.6148  -49.6045 C.3       14 UNK        -0.1800 
     82 C          -1.5277  -25.2097  -50.6668 C.2       14 UNK         0.5000 
     83 O          -1.8017  -24.0082  -50.6219 O.2       14 UNK        -0.5000 
     84 N          -1.8203  -26.0115  -51.6997 N.am      15 UNK        -0.5000 
     85 CA         -2.3795  -25.6242  -53.0025 C.3       15 UNK         0.1400 
     86 CB         -1.3116  -24.8822  -53.8312 C.3       15 UNK        -0.1800 
     87 C          -3.7131  -24.8445  -52.9505 C.2       15 UNK         0.5000 
     88 O          -4.0396  -24.1586  -53.9151 O.2       15 UNK        -0.5000 
     89 N          -4.4607  -24.9709  -51.8438 N.am      16 UNK        -0.5000 
     90 CA         -5.7351  -24.3015  -51.5565 C.3       16 UNK         0.1400 
     91 CB         -6.8462  -24.8104  -52.5000 C.3       16 UNK        -0.1800 
     92 C          -5.6423  -22.7575  -51.5051 C.2       16 UNK         0.5000 
     93 O          -6.6105  -22.0783  -51.8535 O.2       16 UNK        -0.5000 
     94 N          -4.4999  -22.2441  -51.0223 N.am      17 UNK        -0.5000 
     95 CA         -4.1780  -20.8326  -50.7760 C.3       17 UNK         0.1400 
     96 CB         -5.1865  -20.2002  -49.7896 C.3       17 UNK        -0.1800 
     97 C          -4.0286  -19.9821  -52.0555 C.2       17 UNK         0.5000 
     98 O          -4.2522  -20.4511  -53.1724 O.2       17 UNK        -0.5000 
     99 N          -3.6232  -18.7184  -51.8690 N.am      18 UNK        -0.5000 
    100 CA        -3.3194  -17.7501  -52.9295 C.3       18 UNK         0.1400 
    101 CB        -2.4108  -16.6481  -52.3639 C.3       18 UNK        -0.1800 
    102 C         -4.5499  -17.1574  -53.6463 C.2       18 UNK         0.5000 
    103 O         -4.3919  -16.2426  -54.4569 O.2       18 UNK        -0.5000 
    104 N         -5.7478  -17.6965  -53.3861 N.am      19 UNK        -0.5000 
    105 CA        -6.9906  -17.4139  -54.1058 C.3       19 UNK         0.1400 
    106 CB        -8.1739  -17.8810  -53.2397 C.3       19 UNK        -0.1800 
    107 C         -6.9741  -18.0767  -55.5010 C.2       19 UNK         0.5000 
    108 O         -7.7422  -19.0039  -55.7612 O.2       19 UNK        -0.5000 
    109 N         -6.0325  -17.6308  -56.3440 N.am      20 UNK        -0.5000 
    110 CA        -5.6570  -18.1028  -57.6834 C.3       20 UNK         0.1400 
    111 CB        -6.8398  -18.0071  -58.6652 C.3       20 UNK        -0.1800 
    112 C         -5.0174  -19.5068  -57.7224 C.2       20 UNK         0.5000 
    113 O         -4.1228  -19.7336  -58.5378 O.2       20 UNK        -0.5000 
    114 N         -5.4689  -20.4180  -56.8529 N.am      21 UNK        -0.5000 
    115 CA        -5.1113  -21.8368  -56.8213 C.3       21 UNK         0.1400 
    116 CB        -5.9850  -22.5391  -55.7741 C.3       21 UNK        -0.1800 
    117 C         -3.6093  -22.1286  -56.6123 C.2       21 UNK         0.5000 
    118 O         -3.1017  -23.0818  -57.2059 O.2       21 UNK        -0.5000 
    119 N         -2.9128  -21.2836  -55.8372 N.am      22 UNK        -0.5000 
    120 CA        -1.4434  -21.3093  -55.6929 C.3       22 UNK         0.1400 
    121 C         -0.6560  -20.8642  -56.9675 C.2       22 UNK         0.5000 
    122 N         -1.2864  -20.3017  -57.9929 N.am      22 UNK        -0.7600 
    123 O          0.5562  -21.0432  -57.0399 O.2       22 UNK        -0.5000 
    124 C124       -0.9670  -20.5374  -54.4279 C.3       23 UNK        -0.0398 
    125 S125        0.5391  -21.2490  -53.6712 S.3       23 UNK        -0.2404 
    126 C126       -0.0052  -21.6980  -51.9898 C.3       23 UNK        -0.0205 
    127 H127       -5.5063  -18.9607  -45.7678 H         1 UNK         0.0600 
    128 H128       -6.7416  -18.0157  -44.9369 H         1 UNK         0.0600 
    129 H129       -5.2550  -18.4617  -44.0911 H         1 UNK         0.0600 
    130 H130       -3.9342  -17.8341  -46.9264 H         1 UNK         0.3000 
    131 H131       -4.0119  -14.9546  -47.1288 H         1 UNK         0.0600 
    132 H132       -3.7791  -15.9875  -49.1937 H         1 UNK         0.0800 
    133 H133       -2.1943  -15.3652  -48.8879 H         1 UNK         0.0800 
    134 H134       -0.4004  -16.7371  -49.9815 H         1 UNK         0.0800 
    135 H135       -0.0636  -17.0383  -48.2969 H         1 UNK         0.0800 
    136 H136       -1.1479  -19.4009  -51.0562 H         1 UNK         0.1150 
    137 H137        2.3411  -21.8436  -50.6225 H         1 UNK         0.1150 
    138 H138        1.8858  -18.3219  -48.2266 H         1 UNK         0.1150 
    139 H139        4.3454  -20.5491  -49.5487 H         1 UNK         0.0800 
    140 H140        3.9939  -19.4595  -48.2343 H         1 UNK         0.0800 
    141 H141        2.2313  -20.1487  -46.4480 H         1 UNK         0.0800 
    142 H142        3.3914  -20.9062  -45.3957 H         1 UNK         0.0800 
    143 H143        2.0518  -23.1016  -45.6912 H         1 UNK         0.0600 
    144 H144        1.5853  -20.9838  -43.9024 H         1 UNK         0.3000 
    145 H145       -0.7930  -22.6503  -41.8021 H         1 UNK         0.0600 
    146 H146        0.9617  -22.0619  -40.1594 H         1 UNK         0.0600 
    147 H147        1.4888  -23.4211  -41.1408 H         1 UNK         0.0600 
    148 H148        2.1353  -21.8136  -41.4490 H         1 UNK         0.0600 
    149 H149        0.4335  -20.0479  -41.7414 H         1 UNK         0.3000 
    150 H150       -2.1271  -18.3743  -43.6192 H         1 UNK         0.0600 
    151 H151       -3.0526  -18.3223  -41.3731 H         1 UNK         0.0600 
    152 H152       -1.9632  -16.9481  -41.5005 H         1 UNK         0.0600 
    153 H153       -1.4626  -18.3955  -40.6332 H         1 UNK         0.0600 
    154 H154        0.2334  -17.3744  -42.4098 H         1 UNK         0.3000 
    155 H155        2.5131  -18.1761  -45.0482 H         1 UNK         0.0600 
    156 H156        2.8709  -15.7525  -45.0595 H         1 UNK         0.0600 
    157 H157        1.3290  -15.4891  -44.2308 H         1 UNK         0.0600 
    158 H158        1.3736  -16.1376  -45.8728 H         1 UNK         0.0600 
    159 H159        2.6417  -16.7042  -42.5416 H         1 UNK         0.3000 
    160 H160        3.8769  -19.4834  -40.6569 H         1 UNK         0.0600 
    161 H161        5.0932  -16.8285  -41.5985 H         1 UNK         0.0600 
    162 H162        5.8094  -18.4186  -41.8326 H         1 UNK         0.0600 
    163 H163        5.6181  -17.7771  -40.2084 H         1 UNK         0.0600 
    164 H164        3.2294  -16.7788  -39.9593 H         1 UNK         0.3000 
    165 H165       -0.1658  -17.3070  -39.0860 H         1 UNK         0.0600 
    166 H166        0.5563  -16.7335  -36.7972 H         1 UNK         0.0600 
    167 H167        1.0064  -18.3909  -37.1617 H         1 UNK         0.0600 
    168 H168        2.2308  -17.1274  -37.1894 H         1 UNK         0.0600 
    169 H169        1.4151  -15.1162  -38.4574 H         1 UNK         0.3000 
    170 H170        0.1265  -13.1445  -40.5554 H         1 UNK         0.0600 
    171 H171        1.1824  -13.1308  -38.3261 H         1 UNK         0.0600 
    172 H172        2.7786  -13.3949  -39.0307 H         1 UNK         0.0600 
    173 H173        1.9134  -11.8919  -39.3224 H         1 UNK         0.0600 
    174 H174        1.3199  -12.5465  -42.2944 H         1 UNK         0.3000 
    175 H175        3.8585  -11.8911  -43.1611 H         1 UNK         0.0600 
    176 H176        4.6406  -14.7118  -44.0776 H         1 UNK         0.0600 
    177 H177        5.1027  -13.2305  -44.9157 H         1 UNK         0.0600 
    178 H178        5.6646  -13.5310  -43.2794 H         1 UNK         0.0600 
    179 H179        2.0335  -13.8400  -44.4950 H         1 UNK         0.3000 
    180 H180        0.1213  -11.2319  -45.8421 H         1 UNK         0.0600 
    181 H181        0.2151  -12.5691  -47.9279 H         1 UNK         0.0600 
    182 H182        1.6641  -13.4014  -47.3661 H         1 UNK         0.0600 
    183 H183        1.7157  -11.6784  -47.7243 H         1 UNK         0.0600 
    184 H184       -0.2790  -14.0310  -45.9473 H         1 UNK         0.3000 
    185 H185       -0.9870  -15.3176  -43.6670 H         1 UNK         0.0600 
    186 H186       -3.1617  -15.1586  -42.4166 H         1 UNK         0.0600 
    187 H187       -1.9129  -14.1395  -41.7205 H         1 UNK         0.0600 
    188 H188       -3.1867  -13.4231  -42.7029 H         1 UNK         0.0600 
    189 H189       -3.5440  -14.8315  -44.7707 H         1 UNK         0.3000 
    190 H190       -0.5105  -20.6565  -45.6838 H         1 UNK         0.3000 
    191 H191       -1.6834  -21.0112  -48.1489 H         1 UNK         0.0600 
    192 H192       -3.6605  -20.0134  -47.1231 H         1 UNK         0.0600 
    193 H193       -2.2552  -19.2912  -46.3481 H         1 UNK         0.0600 
    194 H194       -3.1841  -20.5353  -45.5183 H         1 UNK         0.0600 
    195 H195       -1.6181  -23.4326  -45.6650 H         1 UNK         0.3000 
    196 H196       -3.9734  -24.9183  -46.4044 H         1 UNK         0.0600 
    197 H197       -1.3741  -25.8349  -45.0616 H         1 UNK         0.0600 
    198 H198       -2.7964  -25.2186  -44.2208 H         1 UNK         0.0600 
    199 H199       -2.8852  -26.7346  -45.1061 H         1 UNK         0.0600 
    200 H200       -0.7830  -24.5507  -47.8528 H         1 UNK         0.3000 
    201 H201       -0.9518  -26.9528  -49.5236 H         1 UNK         0.0600 
    202 H202        0.9489  -24.5484  -49.6521 H         1 UNK         0.0600 
    203 H203        1.1324  -26.0728  -50.5061 H         1 UNK         0.0600 
    204 H204        1.2613  -26.0330  -48.7532 H         1 UNK         0.0600 
    205 H205       -1.5814  -26.9902  -51.6178 H         1 UNK         0.3000 
    206 H206       -2.6045  -26.5574  -53.5207 H         1 UNK         0.0600 
    207 H207       -0.3724  -25.4344  -53.8587 H         1 UNK         0.0600 
    208 H208       -1.6376  -24.7478  -54.8633 H         1 UNK         0.0600 
    209 H209       -1.1093  -23.8933  -53.4228 H         1 UNK         0.0600 
    210 H210       -4.0896  -25.5431  -51.0987 H         1 UNK         0.3000 
    211 H211       -6.0067  -24.6090  -50.5457 H         1 UNK         0.0600 
    212 H212       -7.8235  -24.4382  -52.1908 H         1 UNK         0.0600 
    213 H213       -6.8998  -25.8990  -52.4962 H         1 UNK         0.0600 
    214 H214       -6.6850  -24.4856  -53.5278 H         1 UNK         0.0600 
    215 H215       -3.7588  -22.8949  -50.7865 H         1 UNK         0.3000 
    216 H216       -3.2002  -20.8423  -50.2923 H         1 UNK         0.0600 
    217 H217       -4.8422  -19.2315  -49.4292 H         1 UNK         0.0600 
    218 H218       -6.1624  -20.0421  -50.2491 H         1 UNK         0.0600 
    219 H219       -5.3308  -20.8318  -48.9133 H         1 UNK         0.0600 
    220 H220       -3.4656  -18.3942  -50.9241 H         1 UNK         0.3000 
    221 H221       -2.7521  -18.2688  -53.7033 H         1 UNK         0.0600 
    222 H222       -1.4778  -17.0694  -51.9939 H         1 UNK         0.0600 
    223 H223       -2.8916  -16.1066  -51.5496 H         1 UNK         0.0600 
    224 H224       -2.1429  -15.9187  -53.1293 H         1 UNK         0.0600 
    225 H225       -5.7733  -18.4808  -52.7512 H         1 UNK         0.3000 
    226 H226       -7.0829  -16.3355  -54.2505 H         1 UNK         0.0600 
    227 H227       -8.1271  -18.9519  -53.0362 H         1 UNK         0.0600 
    228 H228       -8.1912  -17.3594  -52.2827 H         1 UNK         0.0600 
    229 H229       -9.1245  -17.6805  -53.7356 H         1 UNK         0.0600 
    230 H230       -5.4170  -16.9160  -55.9649 H         1 UNK         0.3000 
    231 H231       -4.8900  -17.4083  -58.0297 H         1 UNK         0.0600 
    232 H232       -7.6428  -18.6979  -58.4070 H         1 UNK         0.0600 
    233 H233       -6.5210  -18.2467  -59.6804 H         1 UNK         0.0600 
    234 H234       -7.2558  -16.9998  -58.6848 H         1 UNK         0.0600 
    235 H235       -6.2300  -20.1321  -56.2456 H         1 UNK         0.3000 
    236 H236       -5.3781  -22.2462  -57.7977 H         1 UNK         0.0600 
    237 H237       -5.8178  -23.6162  -55.7904 H         1 UNK         0.0600 
    238 H238       -5.7669  -22.1828  -54.7664 H         1 UNK         0.0600 
    239 H239       -7.0455  -22.3747  -55.9650 H         1 UNK         0.0600 
    240 H240       -3.4184  -20.5752  -55.3227 H         1 UNK         0.3000 
    241 H241       -1.1844  -22.3592  -55.5466 H         1 UNK         0.0600 
    242 H242       -0.7534  -20.0317  -58.8041 H         1 UNK         0.3800 
    243 H243       -2.2929  -20.1716  -57.9979 H         1 UNK         0.3800 
    244 H244       -1.7484  -20.5466  -53.6743 H         1 UNK         0.0800 
    245 H245       -0.7890  -19.4838  -54.6495 H         1 UNK         0.0800 
    246 H246        0.3586  -22.7027  -51.7690 H         1 UNK         0.0800 
    247 H247       -1.0921  -21.7615  -51.9289 H         1 UNK         0.0800 
@<TRIPOS>BOND
     1    1    2 1    
     2    1  127 1    
     3    1  128 1    
     4    1  129 1    
     5    2    3 2    
     6    2    4 am   BACKBONE|DICT|INTERRES
     7    4    5 1    
     8    4  130 1    
     9    5    6 1    
    10    5   65 1    
    11    5  131 1    
    12    6    7 1    
    13    6  132 1    
    14    6  133 1    
    15    7    8 1    
    16    8    9 1    
    17    8  134 1    
    18    8  135 1    
    19    9   10 ar   
    20    9   14 ar   
    21   10   11 ar   
    22   10  136 1    
    23   11   12 ar   
    24   11  126 1    
    25   12   13 ar   
    26   12  137 1    
    27   13   14 ar   
    28   13   15 1    
    29   14  138 1    
    30   15   16 1    
    31   15  139 1    
    32   15  140 1    
    33   16   17 1    
    34   17   18 1    
    35   17  141 1    
    36   17  142 1    
    37   18   19 1    
    38   18   67 1    
    39   18  143 1    
    40   19   20 am   BACKBONE|DICT|INTERRES
    41   19  144 1    
    42   20   21 2    
    43   20   22 1    
    44   22   23 1    
    45   22   24 1    
    46   22  145 1    
    47   23  146 1    
    48   23  147 1    
    49   23  148 1    
    50   24   25 am   BACKBONE|DICT|INTERRES
    51   24  149 1    
    52   25   26 2    
    53   25   27 1    
    54   27   28 1    
    55   27   29 1    
    56   27  150 1    
    57   28  151 1    
    58   28  152 1    
    59   28  153 1    
    60   29   30 am   BACKBONE|DICT|INTERRES
    61   29  154 1    
    62   30   31 2    
    63   30   32 1    
    64   32   33 1    
    65   32   34 1    
    66   32  155 1    
    67   33  156 1    
    68   33  157 1    
    69   33  158 1    
    70   34   35 am   BACKBONE|DICT|INTERRES
    71   34  159 1    
    72   35   36 2    
    73   35   37 1    
    74   37   38 1    
    75   37   39 1    
    76   37  160 1    
    77   38  161 1    
    78   38  162 1    
    79   38  163 1    
    80   39   40 am   BACKBONE|DICT|INTERRES
    81   39  164 1    
    82   40   41 2    
    83   40   42 1    
    84   42   43 1    
    85   42   44 1    
    86   42  165 1    
    87   43  166 1    
    88   43  167 1    
    89   43  168 1    
    90   44   45 am   BACKBONE|DICT|INTERRES
    91   44  169 1    
    92   45   46 2    
    93   45   47 1    
    94   47   48 1    
    95   47   49 1    
    96   47  170 1    
    97   48  171 1    
    98   48  172 1    
    99   48  173 1    
   100   49   50 am   BACKBONE|DICT|INTERRES
   101   49  174 1    
   102   50   51 2    
   103   50   52 1    
   104   52   53 1    
   105   52   54 1    
   106   52  175 1    
   107   53  176 1    
   108   53  177 1    
   109   53  178 1    
   110   54   55 am   BACKBONE|DICT|INTERRES
   111   54  179 1    
   112   55   56 2    
   113   55   57 1    
   114   57   58 1    
   115   57   59 1    
   116   57  180 1    
   117   58  181 1    
   118   58  182 1    
   119   58  183 1    
   120   59   60 am   BACKBONE|DICT|INTERRES
   121   59  184 1    
   122   60   61 2    
   123   60   62 1    
   124   62   63 1    
   125   62   64 1    
   126   62  185 1    
   127   63  186 1    
   128   63  187 1    
   129   63  188 1    
   130   64   65 am   BACKBONE|DICT|INTERRES
   131   64  189 1    
   132   65   66 2    
   133   67   68 2    
   134   67   69 am   BACKBONE|DICT|INTERRES
   135   69   70 1    
   136   69  190 1    
   137   70   71 1    
   138   70   72 1    
   139   70  191 1    
   140   71  192 1    
   141   71  193 1    
   142   71  194 1    
   143   72   73 2    
   144   72   74 am   BACKBONE|DICT|INTERRES
   145   74   75 1    
   146   74  195 1    
   147   75   76 1    
   148   75   77 1    
   149   75  196 1    
   150   76  197 1    
   151   76  198 1    
   152   76  199 1    
   153   77   78 2    
   154   77   79 am   BACKBONE|DICT|INTERRES
   155   79   80 1    
   156   79  200 1    
   157   80   81 1    
   158   80   82 1    
   159   80  201 1    
   160   81  202 1    
   161   81  203 1    
   162   81  204 1    
   163   82   83 2    
   164   82   84 am   BACKBONE|DICT|INTERRES
   165   84   85 1    
   166   84  205 1    
   167   85   86 1    
   168   85   87 1    
   169   85  206 1    
   170   86  207 1    
   171   86  208 1    
   172   86  209 1    
   173   87   88 2    
   174   87   89 am   BACKBONE|DICT|INTERRES
   175   89   90 1    
   176   89  210 1    
   177   90   91 1    
   178   90   92 1    
   179   90  211 1    
   180   91  212 1    
   181   91  213 1    
   182   91  214 1    
   183   92   93 2    
   184   92   94 am   BACKBONE|DICT|INTERRES
   185   94   95 1    
   186   94  215 1    
   187   95   96 1    
   188   95   97 1    
   189   95  216 1    
   190   96  217 1    
   191   96  218 1    
   192   96  219 1    
   193   97   98 2    
   194   97   99 am   BACKBONE|DICT|INTERRES
   195   99  100 1    
   196   99  220 1    
   197  100  101 1    
   198  100  102 1    
   199  100  221 1    
   200  101  222 1    
   201  101  223 1    
   202  101  224 1    
   203  102  103 2    
   204  102  104 am   BACKBONE|DICT|INTERRES
   205  104  105 1    
   206  104  225 1    
   207  105  106 1    
   208  105  107 1    
   209  105  226 1    
   210  106  227 1    
   211  106  228 1    
   212  106  229 1    
   213  107  108 2    
   214  107  109 am   BACKBONE|DICT|INTERRES
   215  109  110 1    
   216  109  230 1    
   217  110  111 1    
   218  110  112 1    
   219  110  231 1    
   220  111  232 1    
   221  111  233 1    
   222  111  234 1    
   223  112  113 2    
   224  112  114 am   BACKBONE|DICT|INTERRES
   225  114  115 1    
   226  114  235 1    
   227  115  116 1    
   228  115  117 1    
   229  115  236 1    
   230  116  237 1    
   231  116  238 1    
   232  116  239 1    
   233  117  118 2    
   234  117  119 am   BACKBONE|DICT|INTERRES
   235  119  120 1    
   236  119  240 1    
   237  120  121 1    
   238  120  124 1    
   239  120  241 1    
   240  121  122 am   BACKBONE|DICT|INTERRES
   241  121  123 2    
   242  122  242 1    
   243  122  243 1    
   244  124  125 1    
   245  124  244 1    
   246  124  245 1    
   247  125  126 1    
   248  126  246 1    
   249  126  247 1    
@<TRIPOS>SUBSTRUCTURE
     1 UNK         1 GROUP             0       ****    0 ROOT    
