@<TRIPOS>MOLECULE
3R540
247   249    1
SMALL
USER_CHARGES


@<TRIPOS>ATOM
      1 CA         -6.7102  -14.6521  -48.8782 C.3       0 UNK        -0.1800 
      2 C          -5.4131  -15.3051  -48.4205 C.2       0 UNK         0.5000 
      3 O          -5.2958  -15.6661  -47.2499 O.2       0 UNK        -0.5000 
      4 N          -4.4644  -15.4624  -49.3520 N.am      1 UNK        -0.5000 
      5 CA         -3.1305  -16.0574  -49.2048 C.3       1 UNK         0.1400 
      6 C6         -3.1337  -17.5165  -48.6696 C.3       23 UNK        -0.0398 
      7 S7         -4.0000  -18.6292  -49.8373 S.3       23 UNK        -0.2404 
      8 C8         -2.6738  -19.4721  -50.7708 C.3       23 UNK        -0.0205 
      9 C9         -1.4044  -18.6526  -50.9522 C.ar      23 UNK        -0.0193 
     10 C10        -1.3593  -17.5834  -51.8496 C.ar      23 UNK        -0.1150 
     11 C11        -0.1915  -16.8265  -51.9865 C.ar      23 UNK        -0.0193 
     12 C12         0.9374  -17.1633  -51.2349 C.ar      23 UNK        -0.1150 
     13 C13         0.9124  -18.2331  -50.3365 C.ar      23 UNK        -0.0193 
     14 C14        -0.2677  -18.9730  -50.2057 C.ar      23 UNK        -0.1150 
     15 C15         2.1705  -18.5235  -49.5167 C.3       23 UNK        -0.0205 
     16 S16         2.3024  -20.2047  -48.8165 S.3       23 UNK        -0.2404 
     17 C17         1.3999  -20.0307  -47.2381 C.3       23 UNK        -0.0398 
     18 CA          0.8446  -21.3875  -46.7395 C.3       11 UNK         0.1400 
     19 N           0.7446  -21.4447  -45.2805 N.am      11 UNK        -0.5000 
     20 C           0.6673  -22.5822  -44.5755 C.2       10 UNK         0.5000 
     21 O           0.7070  -23.7049  -45.0803 O.2       10 UNK        -0.5000 
     22 CA          0.4754  -22.4351  -43.0546 C.3       10 UNK         0.1400 
     23 CB          1.8213  -22.1731  -42.3640 C.3       10 UNK        -0.1800 
     24 N          -0.4632  -21.3661  -42.7083 N.am      10 UNK        -0.5000 
     25 C          -1.7706  -21.3912  -43.0048 C.2       9 UNK         0.5000 
     26 O          -2.3227  -22.3352  -43.5663 O.2       9 UNK        -0.5000 
     27 CA         -2.5970  -20.1412  -42.6581 C.3       9 UNK         0.1400 
     28 CB         -3.1272  -20.2314  -41.2198 C.3       9 UNK        -0.1800 
     29 N          -1.8680  -18.8850  -42.8176 N.am      9 UNK        -0.5000 
     30 C          -1.2609  -18.4353  -43.9220 C.2       8 UNK         0.5000 
     31 O          -1.2219  -19.0666  -44.9790 O.2       8 UNK        -0.5000 
     32 CA         -0.5377  -17.0766  -43.8242 C.3       8 UNK         0.1400 
     33 CB         -1.4653  -15.9170  -44.2271 C.3       8 UNK        -0.1800 
     34 N           0.1269  -16.8108  -42.5399 N.am      8 UNK        -0.5000 
     35 C          -0.3967  -16.6761  -41.3110 C.2       7 UNK         0.5000 
     36 O          -1.6067  -16.7047  -41.0835 O.2       7 UNK        -0.5000 
     37 CA          0.5840  -16.5050  -40.1315 C.3       7 UNK         0.1400 
     38 CB          0.1498  -17.3169  -38.8932 C.3       7 UNK        -0.1800 
     39 N           1.9865  -16.7761  -40.4699 N.am      7 UNK        -0.5000 
     40 C           2.5487  -17.9403  -40.8360 C.2       6 UNK         0.5000 
     41 O           1.9242  -18.9984  -40.9255 O.2       6 UNK        -0.5000 
     42 CA          4.0484  -17.9010  -41.2048 C.3       6 UNK         0.1400 
     43 CB          4.3653  -18.8261  -42.3935 C.3       6 UNK        -0.1800 
     44 N           4.4653  -16.5410  -41.5515 N.am      6 UNK        -0.5000 
     45 C           5.1791  -15.7134  -40.7757 C.2       5 UNK         0.5000 
     46 O           5.6633  -16.0396  -39.6918 O.2       5 UNK        -0.5000 
     47 CA          5.3526  -14.2621  -41.2764 C.3       5 UNK         0.1400 
     48 CB          6.7020  -14.1008  -41.9925 C.3       5 UNK        -0.1800 
     49 N           4.2818  -13.8221  -42.1770 N.am      5 UNK        -0.5000 
     50 C           2.9912  -13.6884  -41.8373 C.2       4 UNK         0.5000 
     51 O           2.5770  -13.8274  -40.6869 O.2       4 UNK        -0.5000 
     52 CA          1.9821  -13.4255  -42.9756 C.3       4 UNK         0.1400 
     53 CB          1.6185  -11.9352  -43.0402 C.3       4 UNK        -0.1800 
     54 N           2.4362  -13.8659  -44.3001 N.am      4 UNK        -0.5000 
     55 C           2.7655  -15.1217  -44.6354 C.2       3 UNK         0.5000 
     56 O           2.7118  -16.0708  -43.8500 O.2       3 UNK        -0.5000 
     57 CA          3.2630  -15.3157  -46.0791 C.3       3 UNK         0.1400 
     58 CB          3.6862  -16.7665  -46.3875 C.3       3 UNK        -0.1800 
     59 N           2.3035  -14.7899  -47.0585 N.am      3 UNK        -0.5000 
     60 C           1.0922  -15.2793  -47.3647 C.2       2 UNK         0.5000 
     61 O           0.6396  -16.3323  -46.9150 O.2       2 UNK        -0.5000 
     62 CA          0.2496  -14.4389  -48.3447 C.3       2 UNK         0.1400 
     63 CB          1.0813  -13.9078  -49.5282 C.3       2 UNK        -0.1800 
     64 N          -0.8655  -15.2238  -48.8745 N.am      2 UNK        -0.5000 
     65 C          -2.1351  -15.1441  -48.4578 C.2       1 UNK         0.5000 
     66 O          -2.5144  -14.3762  -47.5709 O.2       1 UNK        -0.5000 
     67 C          -0.5020  -21.7497  -47.3933 C.2       11 UNK         0.5000 
     68 O          -0.5186  -22.5017  -48.3666 O.2       11 UNK        -0.5000 
     69 N          -1.6101  -21.2621  -46.8147 N.am      12 UNK        -0.5000 
     70 CA         -2.9732  -21.6016  -47.2234 C.3       12 UNK         0.1400 
     71 CB         -3.9868  -20.7725  -46.4236 C.3       12 UNK        -0.1800 
     72 C          -3.2711  -23.1062  -47.1009 C.2       12 UNK         0.5000 
     73 O          -3.8358  -23.6808  -48.0288 O.2       12 UNK        -0.5000 
     74 N          -2.8470  -23.7320  -45.9946 N.am      13 UNK        -0.5000 
     75 CA         -2.9643  -25.1728  -45.7628 C.3       13 UNK         0.1400 
     76 CB         -2.5271  -25.5038  -44.3280 C.3       13 UNK        -0.1800 
     77 C          -2.1713  -26.0139  -46.7801 C.2       13 UNK         0.5000 
     78 O          -2.6783  -27.0360  -47.2429 O.2       13 UNK        -0.5000 
     79 N          -0.9612  -25.5566  -47.1316 N.am      14 UNK        -0.5000 
     80 CA         -0.1036  -26.1820  -48.1397 C.3       14 UNK         0.1400 
     81 CB          1.3098  -25.5864  -48.0474 C.3       14 UNK        -0.1800 
     82 C          -0.6659  -26.0444  -49.5680 C.2       14 UNK         0.5000 
     83 O          -0.6110  -27.0025  -50.3398 O.2       14 UNK        -0.5000 
     84 N          -1.2050  -24.8613  -49.8877 N.am      15 UNK        -0.5000 
     85 CA         -1.7941  -24.5276  -51.1859 C.3       15 UNK         0.1400 
     86 CB         -1.8883  -23.0012  -51.2906 C.3       15 UNK        -0.1800 
     87 C          -3.1896  -25.1384  -51.4197 C.2       15 UNK         0.5000 
     88 O          -3.6259  -25.2028  -52.5693 O.2       15 UNK        -0.5000 
     89 N          -3.8659  -25.5387  -50.3331 N.am      16 UNK        -0.5000 
     90 CA         -5.2781  -25.9266  -50.2541 C.3       16 UNK         0.1400 
     91 CB         -5.5874  -27.1646  -51.1226 C.3       16 UNK        -0.1800 
     92 C          -6.2075  -24.7235  -50.5258 C.2       16 UNK         0.5000 
     93 O          -7.1560  -24.8240  -51.3063 O.2       16 UNK        -0.5000 
     94 N          -5.9010  -23.6083  -49.8481 N.am      17 UNK        -0.5000 
     95 CA         -6.5692  -22.3083  -49.8778 C.3       17 UNK         0.1400 
     96 CB         -7.9703  -22.4053  -49.2331 C.3       17 UNK        -0.1800 
     97 C          -6.5470  -21.6769  -51.2847 C.2       17 UNK         0.5000 
     98 O          -5.4631  -21.4833  -51.8342 O.2       17 UNK        -0.5000 
     99 N          -7.7290  -21.3317  -51.8168 N.am      18 UNK        -0.5000 
    100 CA        -7.9906  -20.7280  -53.1313 C.3       18 UNK         0.1400 
    101 CB        -7.4943  -21.6400  -54.2714 C.3       18 UNK        -0.1800 
    102 C         -7.5055  -19.2696  -53.2896 C.2       18 UNK         0.5000 
    103 O         -7.5769  -18.7317  -54.3951 O.2       18 UNK        -0.5000 
    104 N         -7.0536  -18.6457  -52.1910 N.am      19 UNK        -0.5000 
    105 CA        -6.6808  -17.2360  -51.9893 C.3       19 UNK         0.1400 
    106 CB        -7.9010  -16.3195  -52.1957 C.3       19 UNK        -0.1800 
    107 C         -5.4724  -16.7104  -52.7938 C.2       19 UNK         0.5000 
    108 O         -4.7706  -15.8282  -52.2967 O.2       19 UNK        -0.5000 
    109 N         -5.2578  -17.2298  -54.0056 N.am      20 UNK        -0.5000 
    110 CA        -4.2517  -16.7747  -54.9644 C.3       20 UNK         0.1400 
    111 CB        -4.9378  -15.9032  -56.0314 C.3       20 UNK        -0.1800 
    112 C         -3.4694  -17.9459  -55.5869 C.2       20 UNK         0.5000 
    113 O         -2.8208  -17.7643  -56.6190 O.2       20 UNK        -0.5000 
    114 N         -3.5055  -19.1254  -54.9517 N.am      21 UNK        -0.5000 
    115 CA        -2.7096  -20.2990  -55.3235 C.3       21 UNK         0.1400 
    116 CB        -3.4389  -21.5695  -54.8575 C.3       21 UNK        -0.1800 
    117 C         -1.2759  -20.1853  -54.7645 C.2       21 UNK         0.5000 
    118 O         -0.8664  -20.9863  -53.9244 O.2       21 UNK        -0.5000 
    119 N         -0.5565  -19.1533  -55.2176 N.am      22 UNK        -0.5000 
    120 CA         0.7544  -18.7335  -54.6944 C.3       22 UNK         0.1400 
    121 C          1.9596  -19.6181  -55.1298 C.2       22 UNK         0.5000 
    122 N          1.7913  -20.5842  -56.0244 N.am      22 UNK        -0.7600 
    123 O          3.0718  -19.4240  -54.6468 O.2       22 UNK        -0.5000 
    124 C124        1.0422  -17.2307  -54.9755 C.3       23 UNK        -0.0398 
    125 S125       -0.3761  -16.1152  -54.6706 S.3       23 UNK        -0.2404 
    126 C126       -0.1455  -15.6355  -52.9319 C.3       23 UNK        -0.0205 
    127 H127       -6.6324  -14.2671  -49.8953 H         1 UNK         0.0600 
    128 H128       -6.9652  -13.8205  -48.2212 H         1 UNK         0.0600 
    129 H129       -7.5254  -15.3752  -48.8483 H         1 UNK         0.0600 
    130 H130       -4.6645  -15.1681  -50.3013 H         1 UNK         0.3000 
    131 H131       -2.7685  -16.0859  -50.2305 H         1 UNK         0.0600 
    132 H132       -2.1230  -17.8821  -48.4884 H         1 UNK         0.0800 
    133 H133       -3.6300  -17.5731  -47.7012 H         1 UNK         0.0800 
    134 H134       -2.4353  -20.3964  -50.2507 H         1 UNK         0.0800 
    135 H135       -3.0592  -19.7701  -51.7469 H         1 UNK         0.0800 
    136 H136       -2.2368  -17.3302  -52.4280 H         1 UNK         0.1150 
    137 H137        1.8449  -16.5870  -51.3475 H         1 UNK         0.1150 
    138 H138       -0.3172  -19.8022  -49.5182 H         1 UNK         0.1150 
    139 H139        3.0460  -18.3675  -50.1487 H         1 UNK         0.0800 
    140 H140        2.2396  -17.7920  -48.7128 H         1 UNK         0.0800 
    141 H141        2.1176  -19.6421  -46.5155 H         1 UNK         0.0800 
    142 H142        0.6171  -19.2729  -47.3161 H         1 UNK         0.0800 
    143 H143        1.5567  -22.1642  -47.0289 H         1 UNK         0.0600 
    144 H144        0.6242  -20.5651  -44.7991 H         1 UNK         0.3000 
    145 H145        0.0729  -23.3769  -42.6755 H         1 UNK         0.0600 
    146 H146        1.7069  -22.1200  -41.2811 H         1 UNK         0.0600 
    147 H147        2.5333  -22.9711  -42.5783 H         1 UNK         0.0600 
    148 H148        2.2663  -21.2358  -42.6988 H         1 UNK         0.0600 
    149 H149       -0.0832  -20.5537  -42.2424 H         1 UNK         0.3000 
    150 H150       -3.4520  -20.1075  -43.3341 H         1 UNK         0.0600 
    151 H151       -3.6968  -21.1495  -41.0691 H         1 UNK         0.0600 
    152 H152       -3.7903  -19.3968  -40.9910 H         1 UNK         0.0600 
    153 H153       -2.3155  -20.2231  -40.4910 H         1 UNK         0.0600 
    154 H154       -1.8664  -18.2575  -42.0175 H         1 UNK         0.3000 
    155 H155        0.2715  -17.1231  -44.5511 H         1 UNK         0.0600 
    156 H156       -0.9206  -14.9736  -44.2625 H         1 UNK         0.0600 
    157 H157       -2.3004  -15.8011  -43.5362 H         1 UNK         0.0600 
    158 H158       -1.8835  -16.0843  -45.2208 H         1 UNK         0.0600 
    159 H159        1.1370  -16.7682  -42.6134 H         1 UNK         0.3000 
    160 H160        0.5393  -15.4497  -39.8604 H         1 UNK         0.0600 
    161 H161        0.0769  -18.3829  -39.1102 H         1 UNK         0.0600 
    162 H162       -0.8275  -16.9918  -38.5345 H         1 UNK         0.0600 
    163 H163        0.8533  -17.1885  -38.0706 H         1 UNK         0.0600 
    164 H164        2.5813  -15.9565  -40.4510 H         1 UNK         0.3000 
    165 H165        4.6036  -18.2600  -40.3362 H         1 UNK         0.0600 
    166 H166        3.7584  -18.5837  -43.2670 H         1 UNK         0.0600 
    167 H167        5.4135  -18.7506  -42.6831 H         1 UNK         0.0600 
    168 H168        4.1775  -19.8691  -42.1382 H         1 UNK         0.0600 
    169 H169        4.0700  -16.1838  -42.4156 H         1 UNK         0.3000 
    170 H170        5.3465  -13.6090  -40.4014 H         1 UNK         0.0600 
    171 H171        7.5272  -14.3926  -41.3414 H         1 UNK         0.0600 
    172 H172        6.7578  -14.7184  -42.8899 H         1 UNK         0.0600 
    173 H173        6.8724  -13.0646  -42.2854 H         1 UNK         0.0600 
    174 H174        4.5367  -13.6776  -43.1425 H         1 UNK         0.3000 
    175 H175        1.0762  -13.9863  -42.7374 H         1 UNK         0.0600 
    176 H176        2.4801  -11.3221  -43.3073 H         1 UNK         0.0600 
    177 H177        0.8336  -11.7519  -43.7743 H         1 UNK         0.0600 
    178 H178        1.2488  -11.5805  -42.0770 H         1 UNK         0.0600 
    179 H179        2.5064  -13.1473  -45.0056 H         1 UNK         0.3000 
    180 H180        4.1588  -14.7002  -46.1737 H         1 UNK         0.0600 
    181 H181        2.8642  -17.4672  -46.2518 H         1 UNK         0.0600 
    182 H182        4.4902  -17.0846  -45.7228 H         1 UNK         0.0600 
    183 H183        4.0536  -16.8632  -47.4087 H         1 UNK         0.0600 
    184 H184        2.5819  -13.9283  -47.5064 H         1 UNK         0.3000 
    185 H185       -0.1302  -13.5794  -47.7889 H         1 UNK         0.0600 
    186 H186        0.4438  -13.4552  -50.2882 H         1 UNK         0.0600 
    187 H187        1.7828  -13.1377  -49.2063 H         1 UNK         0.0600 
    188 H188        1.6600  -14.6974  -50.0055 H         1 UNK         0.0600 
    189 H189       -0.6177  -15.9224  -49.5613 H         1 UNK         0.3000 
    190 H190       -1.5110  -20.6103  -46.0405 H         1 UNK         0.3000 
    191 H191       -3.0770  -21.3313  -48.2742 H         1 UNK         0.0600 
    192 H192       -3.7615  -19.7078  -46.4789 H         1 UNK         0.0600 
    193 H193       -4.9953  -20.9135  -46.8139 H         1 UNK         0.0600 
    194 H194       -4.0011  -21.0596  -45.3733 H         1 UNK         0.0600 
    195 H195       -2.4486  -23.1823  -45.2373 H         1 UNK         0.3000 
    196 H196       -4.0182  -25.4396  -45.8655 H         1 UNK         0.0600 
    197 H197       -2.6014  -26.5742  -44.1323 H         1 UNK         0.0600 
    198 H198       -3.1577  -24.9962  -43.5979 H         1 UNK         0.0600 
    199 H199       -1.4947  -25.2053  -44.1428 H         1 UNK         0.0600 
    200 H200       -0.6080  -24.7184  -46.6870 H         1 UNK         0.3000 
    201 H201       -0.0354  -27.2476  -47.9107 H         1 UNK         0.0600 
    202 H202        1.7354  -25.7340  -47.0546 H         1 UNK         0.0600 
    203 H203        1.3126  -24.5161  -48.2551 H         1 UNK         0.0600 
    204 H204        1.9809  -26.0614  -48.7639 H         1 UNK         0.0600 
    205 H205       -1.1448  -24.1018  -49.2140 H         1 UNK         0.3000 
    206 H206       -1.1311  -24.8893  -51.9744 H         1 UNK         0.0600 
    207 H207       -0.9154  -22.5259  -51.1628 H         1 UNK         0.0600 
    208 H208       -2.2725  -22.6981  -52.2640 H         1 UNK         0.0600 
    209 H209       -2.5653  -22.6058  -50.5336 H         1 UNK         0.0600 
    210 H210       -3.4149  -25.3859  -49.4398 H         1 UNK         0.3000 
    211 H211       -5.4491  -26.2119  -49.2150 H         1 UNK         0.0600 
    212 H212       -5.5260  -26.9457  -52.1886 H         1 UNK         0.0600 
    213 H213       -6.5956  -27.5308  -50.9265 H         1 UNK         0.0600 
    214 H214       -4.8975  -27.9801  -50.9059 H         1 UNK         0.0600 
    215 H215       -5.0837  -23.6494  -49.2397 H         1 UNK         0.3000 
    216 H216       -5.9674  -21.6496  -49.2497 H         1 UNK         0.0600 
    217 H217       -7.9033  -22.8122  -48.2239 H         1 UNK         0.0600 
    218 H218       -8.6427  -23.0492  -49.8012 H         1 UNK         0.0600 
    219 H219       -8.4365  -21.4230  -49.1470 H         1 UNK         0.0600 
    220 H220       -8.5547  -21.5291  -51.2684 H         1 UNK         0.3000 
    221 H221       -9.0770  -20.6770  -53.2152 H         1 UNK         0.0600 
    222 H222       -6.4084  -21.7122  -54.2859 H         1 UNK         0.0600 
    223 H223       -7.8941  -22.6490  -54.1700 H         1 UNK         0.0600 
    224 H224       -7.8093  -21.2633  -55.2452 H         1 UNK         0.0600 
    225 H225       -6.9875  -19.2153  -51.3602 H         1 UNK         0.3000 
    226 H226       -6.3986  -17.1611  -50.9386 H         1 UNK         0.0600 
    227 H227       -7.6542  -15.2814  -51.9704 H         1 UNK         0.0600 
    228 H228       -8.2626  -16.3501  -53.2239 H         1 UNK         0.0600 
    229 H229       -8.7242  -16.6058  -51.5411 H         1 UNK         0.0600 
    230 H230       -5.9396  -17.9044  -54.3460 H         1 UNK         0.3000 
    231 H231       -3.5064  -16.1606  -54.4555 H         1 UNK         0.0600 
    232 H232       -4.2125  -15.4965  -56.7371 H         1 UNK         0.0600 
    233 H233       -5.4524  -15.0569  -55.5760 H         1 UNK         0.0600 
    234 H234       -5.6714  -16.4742  -56.6018 H         1 UNK         0.0600 
    235 H235       -4.0306  -19.1905  -54.0921 H         1 UNK         0.3000 
    236 H236       -2.6270  -20.3536  -56.4111 H         1 UNK         0.0600 
    237 H237       -3.6566  -21.5405  -53.7902 H         1 UNK         0.0600 
    238 H238       -2.8426  -22.4625  -55.0492 H         1 UNK         0.0600 
    239 H239       -4.3801  -21.6929  -55.3915 H         1 UNK         0.0600 
    240 H240       -0.9930  -18.5249  -55.8823 H         1 UNK         0.3000 
    241 H241        0.7054  -18.8539  -53.6117 H         1 UNK         0.0600 
    242 H242        2.5772  -21.1530  -56.2978 H         1 UNK         0.3800 
    243 H243        0.8818  -20.7587  -56.4207 H         1 UNK         0.3800 
    244 H244        1.3305  -17.0977  -56.0196 H         1 UNK         0.0800 
    245 H245        1.8936  -16.8898  -54.3838 H         1 UNK         0.0800 
    246 H246       -0.9341  -14.9349  -52.6538 H         1 UNK         0.0800 
    247 H247        0.7953  -15.0915  -52.8341 H         1 UNK         0.0800 
@<TRIPOS>BOND
     1    1    2 1    
     2    1  127 1    
     3    1  128 1    
     4    1  129 1    
     5    2    3 2    
     6    2    4 am   BACKBONE|DICT|INTERRES
     7    4    5 1    
     8    4  130 1    
     9    5    6 1    
    10    5   65 1    
    11    5  131 1    
    12    6    7 1    
    13    6  132 1    
    14    6  133 1    
    15    7    8 1    
    16    8    9 1    
    17    8  134 1    
    18    8  135 1    
    19    9   10 ar   
    20    9   14 ar   
    21   10   11 ar   
    22   10  136 1    
    23   11   12 ar   
    24   11  126 1    
    25   12   13 ar   
    26   12  137 1    
    27   13   14 ar   
    28   13   15 1    
    29   14  138 1    
    30   15   16 1    
    31   15  139 1    
    32   15  140 1    
    33   16   17 1    
    34   17   18 1    
    35   17  141 1    
    36   17  142 1    
    37   18   19 1    
    38   18   67 1    
    39   18  143 1    
    40   19   20 am   BACKBONE|DICT|INTERRES
    41   19  144 1    
    42   20   21 2    
    43   20   22 1    
    44   22   23 1    
    45   22   24 1    
    46   22  145 1    
    47   23  146 1    
    48   23  147 1    
    49   23  148 1    
    50   24   25 am   BACKBONE|DICT|INTERRES
    51   24  149 1    
    52   25   26 2    
    53   25   27 1    
    54   27   28 1    
    55   27   29 1    
    56   27  150 1    
    57   28  151 1    
    58   28  152 1    
    59   28  153 1    
    60   29   30 am   BACKBONE|DICT|INTERRES
    61   29  154 1    
    62   30   31 2    
    63   30   32 1    
    64   32   33 1    
    65   32   34 1    
    66   32  155 1    
    67   33  156 1    
    68   33  157 1    
    69   33  158 1    
    70   34   35 am   BACKBONE|DICT|INTERRES
    71   34  159 1    
    72   35   36 2    
    73   35   37 1    
    74   37   38 1    
    75   37   39 1    
    76   37  160 1    
    77   38  161 1    
    78   38  162 1    
    79   38  163 1    
    80   39   40 am   BACKBONE|DICT|INTERRES
    81   39  164 1    
    82   40   41 2    
    83   40   42 1    
    84   42   43 1    
    85   42   44 1    
    86   42  165 1    
    87   43  166 1    
    88   43  167 1    
    89   43  168 1    
    90   44   45 am   BACKBONE|DICT|INTERRES
    91   44  169 1    
    92   45   46 2    
    93   45   47 1    
    94   47   48 1    
    95   47   49 1    
    96   47  170 1    
    97   48  171 1    
    98   48  172 1    
    99   48  173 1    
   100   49   50 am   BACKBONE|DICT|INTERRES
   101   49  174 1    
   102   50   51 2    
   103   50   52 1    
   104   52   53 1    
   105   52   54 1    
   106   52  175 1    
   107   53  176 1    
   108   53  177 1    
   109   53  178 1    
   110   54   55 am   BACKBONE|DICT|INTERRES
   111   54  179 1    
   112   55   56 2    
   113   55   57 1    
   114   57   58 1    
   115   57   59 1    
   116   57  180 1    
   117   58  181 1    
   118   58  182 1    
   119   58  183 1    
   120   59   60 am   BACKBONE|DICT|INTERRES
   121   59  184 1    
   122   60   61 2    
   123   60   62 1    
   124   62   63 1    
   125   62   64 1    
   126   62  185 1    
   127   63  186 1    
   128   63  187 1    
   129   63  188 1    
   130   64   65 am   BACKBONE|DICT|INTERRES
   131   64  189 1    
   132   65   66 2    
   133   67   68 2    
   134   67   69 am   BACKBONE|DICT|INTERRES
   135   69   70 1    
   136   69  190 1    
   137   70   71 1    
   138   70   72 1    
   139   70  191 1    
   140   71  192 1    
   141   71  193 1    
   142   71  194 1    
   143   72   73 2    
   144   72   74 am   BACKBONE|DICT|INTERRES
   145   74   75 1    
   146   74  195 1    
   147   75   76 1    
   148   75   77 1    
   149   75  196 1    
   150   76  197 1    
   151   76  198 1    
   152   76  199 1    
   153   77   78 2    
   154   77   79 am   BACKBONE|DICT|INTERRES
   155   79   80 1    
   156   79  200 1    
   157   80   81 1    
   158   80   82 1    
   159   80  201 1    
   160   81  202 1    
   161   81  203 1    
   162   81  204 1    
   163   82   83 2    
   164   82   84 am   BACKBONE|DICT|INTERRES
   165   84   85 1    
   166   84  205 1    
   167   85   86 1    
   168   85   87 1    
   169   85  206 1    
   170   86  207 1    
   171   86  208 1    
   172   86  209 1    
   173   87   88 2    
   174   87   89 am   BACKBONE|DICT|INTERRES
   175   89   90 1    
   176   89  210 1    
   177   90   91 1    
   178   90   92 1    
   179   90  211 1    
   180   91  212 1    
   181   91  213 1    
   182   91  214 1    
   183   92   93 2    
   184   92   94 am   BACKBONE|DICT|INTERRES
   185   94   95 1    
   186   94  215 1    
   187   95   96 1    
   188   95   97 1    
   189   95  216 1    
   190   96  217 1    
   191   96  218 1    
   192   96  219 1    
   193   97   98 2    
   194   97   99 am   BACKBONE|DICT|INTERRES
   195   99  100 1    
   196   99  220 1    
   197  100  101 1    
   198  100  102 1    
   199  100  221 1    
   200  101  222 1    
   201  101  223 1    
   202  101  224 1    
   203  102  103 2    
   204  102  104 am   BACKBONE|DICT|INTERRES
   205  104  105 1    
   206  104  225 1    
   207  105  106 1    
   208  105  107 1    
   209  105  226 1    
   210  106  227 1    
   211  106  228 1    
   212  106  229 1    
   213  107  108 2    
   214  107  109 am   BACKBONE|DICT|INTERRES
   215  109  110 1    
   216  109  230 1    
   217  110  111 1    
   218  110  112 1    
   219  110  231 1    
   220  111  232 1    
   221  111  233 1    
   222  111  234 1    
   223  112  113 2    
   224  112  114 am   BACKBONE|DICT|INTERRES
   225  114  115 1    
   226  114  235 1    
   227  115  116 1    
   228  115  117 1    
   229  115  236 1    
   230  116  237 1    
   231  116  238 1    
   232  116  239 1    
   233  117  118 2    
   234  117  119 am   BACKBONE|DICT|INTERRES
   235  119  120 1    
   236  119  240 1    
   237  120  121 1    
   238  120  124 1    
   239  120  241 1    
   240  121  122 am   BACKBONE|DICT|INTERRES
   241  121  123 2    
   242  122  242 1    
   243  122  243 1    
   244  124  125 1    
   245  124  244 1    
   246  124  245 1    
   247  125  126 1    
   248  126  246 1    
   249  126  247 1    
@<TRIPOS>SUBSTRUCTURE
     1 UNK         1 GROUP             0       ****    0 ROOT    
