@<TRIPOS>MOLECULE
3R540
247   249    1
SMALL
USER_CHARGES


@<TRIPOS>ATOM
      1 CA         -3.1973  -11.8848  -50.8044 C.3       0 UNK        -0.1800 
      2 C          -2.1004  -12.2401  -49.8141 C.2       0 UNK         0.5000 
      3 O          -2.1409  -11.7924  -48.6674 O.2       0 UNK        -0.5000 
      4 N          -1.1202  -13.0463  -50.2465 N.am      1 UNK        -0.5000 
      5 CA          0.0355  -13.4480  -49.4365 C.3       1 UNK         0.1400 
      6 C6          1.1954  -14.0489  -50.2735 C.3       23 UNK        -0.0398 
      7 S7          0.7881  -15.5878  -51.1694 S.3       23 UNK        -0.2404 
      8 C8          1.4729  -16.8489  -50.0334 C.3       23 UNK        -0.0205 
      9 C9          0.7220  -18.1752  -50.0859 C.ar      23 UNK        -0.0193 
     10 C10        -0.6745  -18.1954  -50.1543 C.ar      23 UNK        -0.1150 
     11 C11        -1.3748  -19.3990  -50.2284 C.ar      23 UNK        -0.0193 
     12 C12        -0.6643  -20.6004  -50.1674 C.ar      23 UNK        -0.1150 
     13 C13         0.7298  -20.6052  -50.0795 C.ar      23 UNK        -0.0193 
     14 C14         1.4200  -19.3880  -50.0482 C.ar      23 UNK        -0.1150 
     15 C15         1.4695  -21.9372  -50.0610 C.3       23 UNK        -0.0205 
     16 S16         2.5057  -22.2253  -48.5817 S.3       23 UNK        -0.2404 
     17 C17         1.4996  -21.6313  -47.1786 C.3       23 UNK        -0.0398 
     18 CA          0.5847  -22.6998  -46.5277 C.3       11 UNK         0.1400 
     19 N           0.3439  -22.4152  -45.1025 N.am      11 UNK        -0.5000 
     20 C          -0.4395  -23.1194  -44.2687 C.2       10 UNK         0.5000 
     21 O          -1.0505  -24.1343  -44.6001 O.2       10 UNK        -0.5000 
     22 CA         -0.6306  -22.5650  -42.8451 C.3       10 UNK         0.1400 
     23 CB          0.5719  -22.8956  -41.9492 C.3       10 UNK        -0.1800 
     24 N          -0.8738  -21.1227  -42.8519 N.am      10 UNK        -0.5000 
     25 C          -1.9911  -20.5486  -43.3227 C.2       9 UNK         0.5000 
     26 O          -2.9823  -21.1847  -43.6786 O.2       9 UNK        -0.5000 
     27 CA         -1.9858  -19.0132  -43.4642 C.3       9 UNK         0.1400 
     28 CB         -2.4413  -18.3359  -42.1638 C.3       9 UNK        -0.1800 
     29 N          -0.6746  -18.4962  -43.8585 N.am      9 UNK        -0.5000 
     30 C          -0.0898  -18.7519  -45.0368 C.2       8 UNK         0.5000 
     31 O          -0.6320  -19.3867  -45.9411 O.2       8 UNK        -0.5000 
     32 CA          1.3661  -18.2811  -45.2071 C.3       8 UNK         0.1400 
     33 CB          1.4334  -16.8411  -45.7232 C.3       8 UNK        -0.1800 
     34 N           2.1243  -18.3896  -43.9617 N.am      8 UNK        -0.5000 
     35 C           2.5508  -19.5488  -43.4427 C.2       7 UNK         0.5000 
     36 O           2.3739  -20.6394  -43.9824 O.2       7 UNK        -0.5000 
     37 CA          3.2494  -19.4837  -42.0721 C.3       7 UNK         0.1400 
     38 CB          4.7411  -19.1599  -42.2404 C.3       7 UNK        -0.1800 
     39 N           2.6371  -18.4985  -41.1805 N.am      7 UNK        -0.5000 
     40 C           1.3930  -18.5898  -40.6890 C.2       6 UNK         0.5000 
     41 O           0.6568  -19.5569  -40.8786 O.2       6 UNK        -0.5000 
     42 CA          0.8673  -17.3739  -39.9010 C.3       6 UNK         0.1400 
     43 CB          1.1672  -17.5319  -38.4033 C.3       6 UNK        -0.1800 
     44 N           1.4194  -16.1009  -40.3759 N.am      6 UNK        -0.5000 
     45 C           1.2183  -15.5938  -41.5993 C.2       5 UNK         0.5000 
     46 O           0.5167  -16.1324  -42.4586 O.2       5 UNK        -0.5000 
     47 CA          1.9971  -14.3189  -41.9385 C.3       5 UNK         0.1400 
     48 CB          3.4524  -14.6697  -42.3071 C.3       5 UNK        -0.1800 
     49 N           1.3556  -13.6293  -43.0538 N.am      5 UNK        -0.5000 
     50 C           1.5541  -12.3441  -43.3697 C.2       4 UNK         0.5000 
     51 O           2.2844  -11.5911  -42.7232 O.2       4 UNK        -0.5000 
     52 CA          0.8378  -11.7943  -44.6166 C.3       4 UNK         0.1400 
     53 CB          1.7879  -11.8088  -45.8243 C.3       4 UNK        -0.1800 
     54 N          -0.3997  -12.5009  -44.9591 N.am      4 UNK        -0.5000 
     55 C          -1.5542  -12.3496  -44.2914 C.2       3 UNK         0.5000 
     56 O          -1.6490  -11.6873  -43.2569 O.2       3 UNK        -0.5000 
     57 CA         -2.8279  -12.9960  -44.8743 C.3       3 UNK         0.1400 
     58 CB         -3.8238  -11.9127  -45.3204 C.3       3 UNK        -0.1800 
     59 N          -2.5618  -13.8654  -46.0179 N.am      3 UNK        -0.5000 
     60 C          -2.3026  -15.1765  -45.9352 C.2       2 UNK         0.5000 
     61 O          -2.2835  -15.8005  -44.8760 O.2       2 UNK        -0.5000 
     62 CA         -2.0148  -15.9169  -47.2581 C.3       2 UNK         0.1400 
     63 CB         -3.2988  -16.5911  -47.7570 C.3       2 UNK        -0.1800 
     64 N          -1.4724  -15.0656  -48.3247 N.am      2 UNK        -0.5000 
     65 C          -0.3481  -14.3363  -48.2353 C.2       1 UNK         0.5000 
     66 O           0.3574  -14.3030  -47.2297 O.2       1 UNK        -0.5000 
     67 C          -0.7231  -22.8528  -47.3317 C.2       11 UNK         0.5000 
     68 O          -0.8303  -23.7647  -48.1529 O.2       11 UNK        -0.5000 
     69 N          -1.7104  -21.9962  -47.0326 N.am      12 UNK        -0.5000 
     70 CA         -3.0548  -21.9995  -47.6119 C.3       12 UNK         0.1400 
     71 CB         -3.8443  -20.8085  -47.0456 C.3       12 UNK        -0.1800 
     72 C          -3.8442  -23.3065  -47.4014 C.2       12 UNK         0.5000 
     73 O          -4.7331  -23.5960  -48.2013 O.2       12 UNK        -0.5000 
     74 N          -3.5133  -24.0652  -46.3491 N.am      13 UNK        -0.5000 
     75 CA         -4.0945  -25.3725  -46.0540 C.3       13 UNK         0.1400 
     76 CB         -4.4384  -25.4398  -44.5575 C.3       13 UNK        -0.1800 
     77 C          -3.1330  -26.5101  -46.4367 C.2       13 UNK         0.5000 
     78 O          -3.5753  -27.5159  -46.9925 O.2       13 UNK        -0.5000 
     79 N          -1.8432  -26.3448  -46.1131 N.am      14 UNK        -0.5000 
     80 CA         -0.8071  -27.3668  -46.2547 C.3       14 UNK         0.1400 
     81 CB          0.4189  -26.9544  -45.4251 C.3       14 UNK        -0.1800 
     82 C          -0.3939  -27.6501  -47.7089 C.2       14 UNK         0.5000 
     83 O          -0.0582  -28.7945  -48.0187 O.2       14 UNK        -0.5000 
     84 N          -0.4047  -26.6186  -48.5616 N.am      15 UNK        -0.5000 
     85 CA          0.0181  -26.7006  -49.9599 C.3       15 UNK         0.1400 
     86 CB          1.3646  -25.9795  -50.1297 C.3       15 UNK        -0.1800 
     87 C          -1.0444  -26.1314  -50.9101 C.2       15 UNK         0.5000 
     88 O          -1.3110  -26.7507  -51.9408 O.2       15 UNK        -0.5000 
     89 N          -1.6434  -24.9886  -50.5409 N.am      16 UNK        -0.5000 
     90 CA         -2.6669  -24.2485  -51.2846 C.3       16 UNK         0.1400 
     91 CB         -4.0031  -25.0262  -51.2762 C.3       16 UNK        -0.1800 
     92 C          -2.1751  -23.8495  -52.6948 C.2       16 UNK         0.5000 
     93 O          -1.2547  -23.0376  -52.8002 O.2       16 UNK        -0.5000 
     94 N          -2.7774  -24.4427  -53.7351 N.am      17 UNK        -0.5000 
     95 CA         -2.5149  -24.2352  -55.1605 C.3       17 UNK         0.1400 
     96 CB         -1.0509  -24.5817  -55.5207 C.3       17 UNK        -0.1800 
     97 C          -2.9805  -22.8460  -55.6475 C.2       17 UNK         0.5000 
     98 O          -3.9684  -22.3170  -55.1347 O.2       17 UNK        -0.5000 
     99 N          -2.3010  -22.3057  -56.6662 N.am      18 UNK        -0.5000 
    100 CA        -2.6678  -21.0821  -57.3851 C.3       18 UNK         0.1400 
    101 CB        -2.1521  -21.2039  -58.8302 C.3       18 UNK        -0.1800 
    102 C         -2.1650  -19.7814  -56.7221 C.2       18 UNK         0.5000 
    103 O         -2.2625  -18.7184  -57.3387 O.2       18 UNK        -0.5000 
    104 N         -1.6148  -19.8727  -55.5045 N.am      19 UNK        -0.5000 
    105 CA        -1.1273  -18.7378  -54.7206 C.3       19 UNK         0.1400 
    106 CB        -0.2802  -19.2712  -53.5595 C.3       19 UNK        -0.1800 
    107 C         -2.2602  -17.8013  -54.2418 C.2       19 UNK         0.5000 
    108 O         -3.4360  -18.1768  -54.2431 O.2       19 UNK        -0.5000 
    109 N         -1.8836  -16.5659  -53.8939 N.am      20 UNK        -0.5000 
    110 CA        -2.8079  -15.4685  -53.6241 C.3       20 UNK         0.1400 
    111 CB        -2.0341  -14.1430  -53.6889 C.3       20 UNK        -0.1800 
    112 C         -3.5531  -15.6206  -52.2841 C.2       20 UNK         0.5000 
    113 O         -2.9157  -15.7199  -51.2339 O.2       20 UNK        -0.5000 
    114 N         -4.8900  -15.5646  -52.3593 N.am      21 UNK        -0.5000 
    115 CA        -5.8542  -15.5938  -51.2533 C.3       21 UNK         0.1400 
    116 CB        -5.6582  -14.3983  -50.2960 C.3       21 UNK        -0.1800 
    117 C         -5.9568  -16.9514  -50.5268 C.2       21 UNK         0.5000 
    118 O         -6.2661  -16.9837  -49.3349 O.2       21 UNK        -0.5000 
    119 N         -5.7513  -18.0557  -51.2593 N.am      22 UNK        -0.5000 
    120 CA        -5.9958  -19.4232  -50.7593 C.3       22 UNK         0.1400 
    121 C         -7.5047  -19.7817  -50.5928 C.2       22 UNK         0.5000 
    122 N         -8.4398  -19.0369  -51.1713 N.am      22 UNK        -0.7600 
    123 O         -7.8334  -20.7544  -49.9200 O.2       22 UNK        -0.5000 
    124 C124       -5.2931  -20.5046  -51.6232 C.3       23 UNK        -0.0398 
    125 S125       -3.4674  -20.4885  -51.7170 S.3       23 UNK        -0.2404 
    126 C126       -2.8893  -19.3823  -50.3899 C.3       23 UNK        -0.0205 
    127 H127       -4.1017  -11.5782  -50.2788 H         1 UNK         0.0600 
    128 H128       -3.4471  -12.7370  -51.4327 H         1 UNK         0.0600 
    129 H129       -2.8775  -11.0620  -51.4434 H         1 UNK         0.0600 
    130 H130       -1.1565  -13.4315  -51.1788 H         1 UNK         0.3000 
    131 H131        0.4291  -12.5276  -48.9990 H         1 UNK         0.0600 
    132 H132        2.0710  -14.2153  -49.6432 H         1 UNK         0.0800 
    133 H133        1.5149  -13.3158  -51.0152 H         1 UNK         0.0800 
    134 H134        1.4388  -16.4872  -49.0070 H         1 UNK         0.0800 
    135 H135        2.5267  -16.9944  -50.2750 H         1 UNK         0.0800 
    136 H136       -1.2189  -17.2644  -50.1810 H         1 UNK         0.1150 
    137 H137       -1.1970  -21.5380  -50.2237 H         1 UNK         0.1150 
    138 H138        2.4993  -19.3897  -49.9907 H         1 UNK         0.1150 
    139 H139        0.7597  -22.7593  -50.1535 H         1 UNK         0.0800 
    140 H140        2.1041  -21.9949  -50.9460 H         1 UNK         0.0800 
    141 H141        0.9462  -20.7348  -47.4553 H         1 UNK         0.0800 
    142 H142        2.2322  -21.2945  -46.4468 H         1 UNK         0.0800 
    143 H143        1.1004  -23.6612  -46.5591 H         1 UNK         0.0600 
    144 H144        0.8524  -21.6252  -44.7177 H         1 UNK         0.3000 
    145 H145       -1.5084  -23.0524  -42.4154 H         1 UNK         0.0600 
    146 H146        0.4124  -22.5405  -40.9308 H         1 UNK         0.0600 
    147 H147        1.4932  -22.4462  -42.3173 H         1 UNK         0.0600 
    148 H148        0.7322  -23.9732  -41.8973 H         1 UNK         0.0600 
    149 H149       -0.1370  -20.5285  -42.4882 H         1 UNK         0.3000 
    150 H150       -2.6955  -18.7472  -44.2508 H         1 UNK         0.0600 
    151 H151       -3.4621  -18.6268  -41.9135 H         1 UNK         0.0600 
    152 H152       -2.4248  -17.2497  -42.2585 H         1 UNK         0.0600 
    153 H153       -1.8085  -18.6109  -41.3211 H         1 UNK         0.0600 
    154 H154       -0.1983  -17.8904  -43.1996 H         1 UNK         0.3000 
    155 H155        1.8427  -18.9189  -45.9534 H         1 UNK         0.0600 
    156 H156        1.0205  -16.7893  -46.7287 H         1 UNK         0.0600 
    157 H157        2.4605  -16.4808  -45.7788 H         1 UNK         0.0600 
    158 H158        0.8661  -16.1516  -45.0977 H         1 UNK         0.0600 
    159 H159        2.2484  -17.5401  -43.4318 H         1 UNK         0.3000 
    160 H160        3.1615  -20.4672  -41.6055 H         1 UNK         0.0600 
    161 H161        4.8939  -18.1738  -42.6809 H         1 UNK         0.0600 
    162 H162        5.2272  -19.8890  -42.8902 H         1 UNK         0.0600 
    163 H163        5.2601  -19.1839  -41.2821 H         1 UNK         0.0600 
    164 H164        3.1810  -17.6768  -40.9639 H         1 UNK         0.3000 
    165 H165       -0.2159  -17.3376  -40.0303 H         1 UNK         0.0600 
    166 H166        0.7317  -16.7165  -37.8255 H         1 UNK         0.0600 
    167 H167        0.7471  -18.4619  -38.0176 H         1 UNK         0.0600 
    168 H168        2.2397  -17.5493  -38.2058 H         1 UNK         0.0600 
    169 H169        2.0145  -15.6021  -39.7299 H         1 UNK         0.3000 
    170 H170        1.9849  -13.6691  -41.0609 H         1 UNK         0.0600 
    171 H171        3.4997  -15.2986  -43.1971 H         1 UNK         0.0600 
    172 H172        4.0411  -13.7735  -42.5028 H         1 UNK         0.0600 
    173 H173        3.9492  -15.2055  -41.4976 H         1 UNK         0.0600 
    174 H174        0.7073  -14.1906  -43.5918 H         1 UNK         0.3000 
    175 H175        0.5829  -10.7523  -44.4117 H         1 UNK         0.0600 
    176 H176        2.1520  -12.8142  -46.0380 H         1 UNK         0.0600 
    177 H177        1.2981  -11.4280  -46.7206 H         1 UNK         0.0600 
    178 H178        2.6606  -11.1815  -45.6390 H         1 UNK         0.0600 
    179 H179       -0.3674  -13.1002  -45.7771 H         1 UNK         0.3000 
    180 H180       -3.2948  -13.5742  -44.0742 H         1 UNK         0.0600 
    181 H181       -4.7472  -12.3558  -45.6938 H         1 UNK         0.0600 
    182 H182       -3.4085  -11.2869  -46.1116 H         1 UNK         0.0600 
    183 H183       -4.0922  -11.2582  -44.4901 H         1 UNK         0.0600 
    184 H184       -2.5352  -13.4200  -46.9262 H         1 UNK         0.3000 
    185 H185       -1.2816  -16.6974  -47.0532 H         1 UNK         0.0600 
    186 H186       -4.0916  -15.8635  -47.9310 H         1 UNK         0.0600 
    187 H187       -3.1305  -17.1273  -48.6873 H         1 UNK         0.0600 
    188 H188       -3.6702  -17.3128  -47.0286 H         1 UNK         0.0600 
    189 H189       -1.9847  -15.0503  -49.1987 H         1 UNK         0.3000 
    190 H190       -1.5049  -21.2470  -46.3801 H         1 UNK         0.3000 
    191 H191       -2.9440  -21.8629  -48.6874 H         1 UNK         0.0600 
    192 H192       -4.1009  -20.9589  -45.9978 H         1 UNK         0.0600 
    193 H193       -4.7794  -20.6689  -47.5892 H         1 UNK         0.0600 
    194 H194       -3.2783  -19.8795  -47.1172 H         1 UNK         0.0600 
    195 H195       -2.7535  -23.7632  -45.7508 H         1 UNK         0.3000 
    196 H196       -5.0201  -25.5163  -46.6154 H         1 UNK         0.0600 
    197 H197       -5.1639  -24.6723  -44.2874 H         1 UNK         0.0600 
    198 H198       -3.5563  -25.2992  -43.9314 H         1 UNK         0.0600 
    199 H199       -4.8748  -26.4057  -44.2998 H         1 UNK         0.0600 
    200 H200       -1.5661  -25.4971  -45.6221 H         1 UNK         0.3000 
    201 H201       -1.1968  -28.2979  -45.8375 H         1 UNK         0.0600 
    202 H202        0.1591  -26.8250  -44.3743 H         1 UNK         0.0600 
    203 H203        0.8477  -26.0172  -45.7812 H         1 UNK         0.0600 
    204 H204        1.2002  -27.7138  -45.4758 H         1 UNK         0.0600 
    205 H205       -0.7028  -25.7068  -48.2296 H         1 UNK         0.3000 
    206 H206        0.1632  -27.7421  -50.2543 H         1 UNK         0.0600 
    207 H207        1.3220  -24.9573  -49.7572 H         1 UNK         0.0600 
    208 H208        2.1547  -26.4959  -49.5845 H         1 UNK         0.0600 
    209 H209        1.6634  -25.9401  -51.1780 H         1 UNK         0.0600 
    210 H210       -1.3236  -24.5359  -49.6873 H         1 UNK         0.3000 
    211 H211       -2.8281  -23.3184  -50.7395 H         1 UNK         0.0600 
    212 H212       -3.9338  -25.9820  -51.7962 H         1 UNK         0.0600 
    213 H213       -4.7976  -24.4440  -51.7446 H         1 UNK         0.0600 
    214 H214       -4.3216  -25.2387  -50.2562 H         1 UNK         0.0600 
    215 H215       -3.5266  -25.0870  -53.5274 H         1 UNK         0.3000 
    216 H216       -3.1502  -24.9542  -55.6792 H         1 UNK         0.0600 
    217 H217       -0.9170  -24.6682  -56.5993 H         1 UNK         0.0600 
    218 H218       -0.7595  -25.5394  -55.0886 H         1 UNK         0.0600 
    219 H219       -0.3495  -23.8293  -55.1584 H         1 UNK         0.0600 
    220 H220       -1.4888  -22.7957  -57.0127 H         1 UNK         0.3000 
    221 H221       -3.7569  -21.0121  -57.4253 H         1 UNK         0.0600 
    222 H222       -1.0629  -21.2467  -58.8653 H         1 UNK         0.0600 
    223 H223       -2.5397  -22.1010  -59.3134 H         1 UNK         0.0600 
    224 H224       -2.4672  -20.3535  -59.4362 H         1 UNK         0.0600 
    225 H225       -1.6203  -20.7707  -55.0435 H         1 UNK         0.3000 
    226 H226       -0.4725  -18.1484  -55.3660 H         1 UNK         0.0600 
    227 H227        0.6003  -19.7999  -53.9242 H         1 UNK         0.0600 
    228 H228        0.0722  -18.4615  -52.9207 H         1 UNK         0.0600 
    229 H229       -0.8460  -19.9657  -52.9410 H         1 UNK         0.0600 
    230 H230       -0.9001  -16.3420  -53.8542 H         1 UNK         0.3000 
    231 H231       -3.5430  -15.4534  -54.4320 H         1 UNK         0.0600 
    232 H232       -2.7027  -13.2917  -53.5613 H         1 UNK         0.0600 
    233 H233       -1.5458  -14.0207  -54.6559 H         1 UNK         0.0600 
    234 H234       -1.2645  -14.0860  -52.9201 H         1 UNK         0.0600 
    235 H235       -5.3039  -15.4870  -53.2779 H         1 UNK         0.3000 
    236 H236       -6.8305  -15.4569  -51.7202 H         1 UNK         0.0600 
    237 H237       -4.6976  -14.4349  -49.7831 H         1 UNK         0.0600 
    238 H238       -5.7188  -13.4547  -50.8369 H         1 UNK         0.0600 
    239 H239       -6.4342  -14.3730  -49.5303 H         1 UNK         0.0600 
    240 H240       -5.4673  -17.9671  -52.2250 H         1 UNK         0.3000 
    241 H241       -5.5861  -19.4852  -49.7509 H         1 UNK         0.0600 
    242 H242       -9.4105  -19.2804  -51.0502 H         1 UNK         0.3800 
    243 H243       -8.1912  -18.2405  -51.7349 H         1 UNK         0.3800 
    244 H244       -5.6693  -20.4606  -52.6468 H         1 UNK         0.0800 
    245 H245       -5.5564  -21.4996  -51.2587 H         1 UNK         0.0800 
    246 H246       -3.3475  -19.6515  -49.4437 H         1 UNK         0.0800 
    247 H247       -3.2161  -18.3721  -50.6300 H         1 UNK         0.0800 
@<TRIPOS>BOND
     1    1    2 1    
     2    1  127 1    
     3    1  128 1    
     4    1  129 1    
     5    2    3 2    
     6    2    4 am   BACKBONE|DICT|INTERRES
     7    4    5 1    
     8    4  130 1    
     9    5    6 1    
    10    5   65 1    
    11    5  131 1    
    12    6    7 1    
    13    6  132 1    
    14    6  133 1    
    15    7    8 1    
    16    8    9 1    
    17    8  134 1    
    18    8  135 1    
    19    9   10 ar   
    20    9   14 ar   
    21   10   11 ar   
    22   10  136 1    
    23   11   12 ar   
    24   11  126 1    
    25   12   13 ar   
    26   12  137 1    
    27   13   14 ar   
    28   13   15 1    
    29   14  138 1    
    30   15   16 1    
    31   15  139 1    
    32   15  140 1    
    33   16   17 1    
    34   17   18 1    
    35   17  141 1    
    36   17  142 1    
    37   18   19 1    
    38   18   67 1    
    39   18  143 1    
    40   19   20 am   BACKBONE|DICT|INTERRES
    41   19  144 1    
    42   20   21 2    
    43   20   22 1    
    44   22   23 1    
    45   22   24 1    
    46   22  145 1    
    47   23  146 1    
    48   23  147 1    
    49   23  148 1    
    50   24   25 am   BACKBONE|DICT|INTERRES
    51   24  149 1    
    52   25   26 2    
    53   25   27 1    
    54   27   28 1    
    55   27   29 1    
    56   27  150 1    
    57   28  151 1    
    58   28  152 1    
    59   28  153 1    
    60   29   30 am   BACKBONE|DICT|INTERRES
    61   29  154 1    
    62   30   31 2    
    63   30   32 1    
    64   32   33 1    
    65   32   34 1    
    66   32  155 1    
    67   33  156 1    
    68   33  157 1    
    69   33  158 1    
    70   34   35 am   BACKBONE|DICT|INTERRES
    71   34  159 1    
    72   35   36 2    
    73   35   37 1    
    74   37   38 1    
    75   37   39 1    
    76   37  160 1    
    77   38  161 1    
    78   38  162 1    
    79   38  163 1    
    80   39   40 am   BACKBONE|DICT|INTERRES
    81   39  164 1    
    82   40   41 2    
    83   40   42 1    
    84   42   43 1    
    85   42   44 1    
    86   42  165 1    
    87   43  166 1    
    88   43  167 1    
    89   43  168 1    
    90   44   45 am   BACKBONE|DICT|INTERRES
    91   44  169 1    
    92   45   46 2    
    93   45   47 1    
    94   47   48 1    
    95   47   49 1    
    96   47  170 1    
    97   48  171 1    
    98   48  172 1    
    99   48  173 1    
   100   49   50 am   BACKBONE|DICT|INTERRES
   101   49  174 1    
   102   50   51 2    
   103   50   52 1    
   104   52   53 1    
   105   52   54 1    
   106   52  175 1    
   107   53  176 1    
   108   53  177 1    
   109   53  178 1    
   110   54   55 am   BACKBONE|DICT|INTERRES
   111   54  179 1    
   112   55   56 2    
   113   55   57 1    
   114   57   58 1    
   115   57   59 1    
   116   57  180 1    
   117   58  181 1    
   118   58  182 1    
   119   58  183 1    
   120   59   60 am   BACKBONE|DICT|INTERRES
   121   59  184 1    
   122   60   61 2    
   123   60   62 1    
   124   62   63 1    
   125   62   64 1    
   126   62  185 1    
   127   63  186 1    
   128   63  187 1    
   129   63  188 1    
   130   64   65 am   BACKBONE|DICT|INTERRES
   131   64  189 1    
   132   65   66 2    
   133   67   68 2    
   134   67   69 am   BACKBONE|DICT|INTERRES
   135   69   70 1    
   136   69  190 1    
   137   70   71 1    
   138   70   72 1    
   139   70  191 1    
   140   71  192 1    
   141   71  193 1    
   142   71  194 1    
   143   72   73 2    
   144   72   74 am   BACKBONE|DICT|INTERRES
   145   74   75 1    
   146   74  195 1    
   147   75   76 1    
   148   75   77 1    
   149   75  196 1    
   150   76  197 1    
   151   76  198 1    
   152   76  199 1    
   153   77   78 2    
   154   77   79 am   BACKBONE|DICT|INTERRES
   155   79   80 1    
   156   79  200 1    
   157   80   81 1    
   158   80   82 1    
   159   80  201 1    
   160   81  202 1    
   161   81  203 1    
   162   81  204 1    
   163   82   83 2    
   164   82   84 am   BACKBONE|DICT|INTERRES
   165   84   85 1    
   166   84  205 1    
   167   85   86 1    
   168   85   87 1    
   169   85  206 1    
   170   86  207 1    
   171   86  208 1    
   172   86  209 1    
   173   87   88 2    
   174   87   89 am   BACKBONE|DICT|INTERRES
   175   89   90 1    
   176   89  210 1    
   177   90   91 1    
   178   90   92 1    
   179   90  211 1    
   180   91  212 1    
   181   91  213 1    
   182   91  214 1    
   183   92   93 2    
   184   92   94 am   BACKBONE|DICT|INTERRES
   185   94   95 1    
   186   94  215 1    
   187   95   96 1    
   188   95   97 1    
   189   95  216 1    
   190   96  217 1    
   191   96  218 1    
   192   96  219 1    
   193   97   98 2    
   194   97   99 am   BACKBONE|DICT|INTERRES
   195   99  100 1    
   196   99  220 1    
   197  100  101 1    
   198  100  102 1    
   199  100  221 1    
   200  101  222 1    
   201  101  223 1    
   202  101  224 1    
   203  102  103 2    
   204  102  104 am   BACKBONE|DICT|INTERRES
   205  104  105 1    
   206  104  225 1    
   207  105  106 1    
   208  105  107 1    
   209  105  226 1    
   210  106  227 1    
   211  106  228 1    
   212  106  229 1    
   213  107  108 2    
   214  107  109 am   BACKBONE|DICT|INTERRES
   215  109  110 1    
   216  109  230 1    
   217  110  111 1    
   218  110  112 1    
   219  110  231 1    
   220  111  232 1    
   221  111  233 1    
   222  111  234 1    
   223  112  113 2    
   224  112  114 am   BACKBONE|DICT|INTERRES
   225  114  115 1    
   226  114  235 1    
   227  115  116 1    
   228  115  117 1    
   229  115  236 1    
   230  116  237 1    
   231  116  238 1    
   232  116  239 1    
   233  117  118 2    
   234  117  119 am   BACKBONE|DICT|INTERRES
   235  119  120 1    
   236  119  240 1    
   237  120  121 1    
   238  120  124 1    
   239  120  241 1    
   240  121  122 am   BACKBONE|DICT|INTERRES
   241  121  123 2    
   242  122  242 1    
   243  122  243 1    
   244  124  125 1    
   245  124  244 1    
   246  124  245 1    
   247  125  126 1    
   248  126  246 1    
   249  126  247 1    
@<TRIPOS>SUBSTRUCTURE
     1 UNK         1 GROUP             0       ****    0 ROOT    
