@<TRIPOS>MOLECULE
3R540
247   249    1
SMALL
USER_CHARGES


@<TRIPOS>ATOM
      1 CA         -6.9109  -15.4862  -49.5228 C.3       0 UNK        -0.1800 
      2 C          -5.5248  -15.8999  -49.0527 C.2       0 UNK         0.5000 
      3 O          -4.5382  -15.2516  -49.4026 O.2       0 UNK        -0.5000 
      4 N          -5.4400  -16.9811  -48.2678 N.am      1 UNK        -0.5000 
      5 CA         -4.2079  -17.5059  -47.6728 C.3       1 UNK         0.1400 
      6 C6         -4.3134  -19.0183  -47.3418 C.3       23 UNK        -0.0398 
      7 S7         -5.7266  -19.5216  -46.2919 S.3       23 UNK        -0.2404 
      8 C8         -6.7772  -20.4643  -47.4457 C.3       23 UNK        -0.0205 
      9 C9         -6.0828  -21.6996  -48.0051 C.ar      23 UNK        -0.0193 
     10 C10        -5.7037  -21.7371  -49.3502 C.ar      23 UNK        -0.1150 
     11 C11        -5.0661  -22.8614  -49.8798 C.ar      23 UNK        -0.0193 
     12 C12        -4.8374  -23.9682  -49.0604 C.ar      23 UNK        -0.1150 
     13 C13        -5.2187  -23.9503  -47.7154 C.ar      23 UNK        -0.0193 
     14 C14        -5.8354  -22.8099  -47.1900 C.ar      23 UNK        -0.1150 
     15 C15        -4.9927  -25.1841  -46.8550 C.3       23 UNK        -0.0205 
     16 S16        -3.2200  -25.5436  -46.6272 S.3       23 UNK        -0.2404 
     17 C17        -2.8882  -24.9928  -44.9168 C.3       23 UNK        -0.0398 
     18 CA         -1.7830  -23.9038  -44.7973 C.3       11 UNK         0.1400 
     19 N          -1.9311  -23.0812  -43.5906 N.am      11 UNK        -0.5000 
     20 C          -1.9696  -23.5212  -42.3228 C.2       10 UNK         0.5000 
     21 O          -1.9052  -24.7125  -42.0181 O.2       10 UNK        -0.5000 
     22 CA         -2.0713  -22.4733  -41.1944 C.3       10 UNK         0.1400 
     23 CB         -0.7896  -22.4869  -40.3451 C.3       10 UNK        -0.1800 
     24 N          -2.3054  -21.1093  -41.6704 N.am      10 UNK        -0.5000 
     25 C          -3.4621  -20.6435  -42.1611 C.2       9 UNK         0.5000 
     26 O          -4.5047  -21.2978  -42.1874 O.2       9 UNK        -0.5000 
     27 CA         -3.4349  -19.2244  -42.7649 C.3       9 UNK         0.1400 
     28 CB         -3.7579  -18.1717  -41.6955 C.3       9 UNK        -0.1800 
     29 N          -2.1619  -18.8851  -43.4092 N.am      9 UNK        -0.5000 
     30 C          -1.6452  -19.5365  -44.4612 C.2       8 UNK         0.5000 
     31 O          -2.1554  -20.5320  -44.9704 O.2       8 UNK        -0.5000 
     32 CA         -0.2862  -19.0483  -44.9833 C.3       8 UNK         0.1400 
     33 CB         -0.4195  -17.7903  -45.8526 C.3       8 UNK        -0.1800 
     34 N           0.6392  -18.8163  -43.8775 N.am      8 UNK        -0.5000 
     35 C           1.1952  -19.8104  -43.1716 C.2       7 UNK         0.5000 
     36 O           1.0552  -21.0019  -43.4536 O.2       7 UNK        -0.5000 
     37 CA          2.0219  -19.4094  -41.9391 C.3       7 UNK         0.1400 
     38 CB          3.4764  -19.1200  -42.3346 C.3       7 UNK        -0.1800 
     39 N           1.4561  -18.2527  -41.2408 N.am      7 UNK        -0.5000 
     40 C           0.3070  -18.2960  -40.5500 C.2       6 UNK         0.5000 
     41 O          -0.3770  -19.3110  -40.4374 O.2       6 UNK        -0.5000 
     42 CA         -0.1877  -16.9918  -39.8995 C.3       6 UNK         0.1400 
     43 CB          0.3676  -16.8610  -38.4737 C.3       6 UNK        -0.1800 
     44 N           0.1400  -15.7837  -40.6544 N.am      6 UNK        -0.5000 
     45 C          -0.2336  -15.5206  -41.9134 C.2       5 UNK         0.5000 
     46 O          -0.8834  -16.3010  -42.6138 O.2       5 UNK        -0.5000 
     47 CA          0.2166  -14.1701  -42.5081 C.3       5 UNK         0.1400 
     48 CB          0.9794  -13.2578  -41.5210 C.3       5 UNK        -0.1800 
     49 N           1.0003  -14.3504  -43.7309 N.am      5 UNK        -0.5000 
     50 C           2.1110  -15.0889  -43.8875 C.2       4 UNK         0.5000 
     51 O           2.6303  -15.7391  -42.9785 O.2       4 UNK        -0.5000 
     52 CA          2.7263  -15.1263  -45.3014 C.3       4 UNK         0.1400 
     53 CB          3.3716  -16.4877  -45.6125 C.3       4 UNK        -0.1800 
     54 N           1.7128  -14.8350  -46.3176 N.am      4 UNK        -0.5000 
     55 C           1.6438  -13.7171  -47.0500 C.2       3 UNK         0.5000 
     56 O           2.4844  -12.8182  -47.0207 O.2       3 UNK        -0.5000 
     57 CA          0.3973  -13.5665  -47.9444 C.3       3 UNK         0.1400 
     58 CB          0.6761  -14.1502  -49.3345 C.3       3 UNK        -0.1800 
     59 N          -0.8144  -14.1869  -47.3876 N.am      3 UNK        -0.5000 
     60 C          -1.4160  -13.7802  -46.2571 C.2       2 UNK         0.5000 
     61 O          -0.9518  -12.8968  -45.5358 O.2       2 UNK        -0.5000 
     62 CA         -2.7300  -14.4621  -45.8347 C.3       2 UNK         0.1400 
     63 CB         -3.8456  -13.4321  -45.5845 C.3       2 UNK        -0.1800 
     64 N          -3.2013  -15.4474  -46.8086 N.am      2 UNK        -0.5000 
     65 C          -3.7423  -16.6285  -46.4894 C.2       1 UNK         0.5000 
     66 O          -3.8924  -17.0108  -45.3306 O.2       1 UNK        -0.5000 
     67 C          -0.3403  -24.4507  -44.9618 C.2       11 UNK         0.5000 
     68 O          -0.1164  -25.3702  -45.7493 O.2       11 UNK        -0.5000 
     69 N           0.6305  -23.8752  -44.2360 N.am      12 UNK        -0.5000 
     70 CA          2.0407  -24.2607  -44.3006 C.3       12 UNK         0.1400 
     71 CB          2.7215  -23.9504  -42.9576 C.3       12 UNK        -0.1800 
     72 C           2.7626  -23.5544  -45.4598 C.2       12 UNK         0.5000 
     73 O           3.5694  -24.1821  -46.1460 O.2       12 UNK        -0.5000 
     74 N           2.4451  -22.2690  -45.6607 N.am      13 UNK        -0.5000 
     75 CA          3.0416  -21.3991  -46.6768 C.3       13 UNK         0.1400 
     76 CB          3.6795  -20.1868  -45.9797 C.3       13 UNK        -0.1800 
     77 C           2.0256  -20.9668  -47.7512 C.2       13 UNK         0.5000 
     78 O           2.3060  -20.0367  -48.5077 O.2       13 UNK        -0.5000 
     79 N           0.8721  -21.6464  -47.8332 N.am      14 UNK        -0.5000 
     80 CA         -0.1643  -21.4405  -48.8524 C.3       14 UNK         0.1400 
     81 CB         -1.5025  -21.9941  -48.3296 C.3       14 UNK        -0.1800 
     82 C           0.2448  -22.0582  -50.2090 C.2       14 UNK         0.5000 
     83 O          -0.4156  -22.9711  -50.7086 O.2       14 UNK        -0.5000 
     84 N           1.3625  -21.5701  -50.7593 N.am      15 UNK        -0.5000 
     85 CA          2.0348  -22.0355  -51.9727 C.3       15 UNK         0.1400 
     86 CB          3.4775  -21.4980  -51.9578 C.3       15 UNK        -0.1800 
     87 C           1.2809  -21.6666  -53.2683 C.2       15 UNK         0.5000 
     88 O           1.8049  -20.9261  -54.1030 O.2       15 UNK        -0.5000 
     89 N           0.0598  -22.1980  -53.4079 N.am      16 UNK        -0.5000 
     90 CA         -0.8616  -22.0247  -54.5340 C.3       16 UNK         0.1400 
     91 CB         -0.3222  -22.7550  -55.7842 C.3       16 UNK        -0.1800 
     92 C          -1.2123  -20.5410  -54.7798 C.2       16 UNK         0.5000 
     93 O          -1.2684  -19.7652  -53.8254 O.2       16 UNK        -0.5000 
     94 N          -1.4267  -20.1619  -56.0458 N.am      17 UNK        -0.5000 
     95 CA         -1.8075  -18.8167  -56.4887 C.3       17 UNK         0.1400 
     96 CB         -2.0275  -18.8514  -58.0094 C.3       17 UNK        -0.1800 
     97 C          -0.8017  -17.7015  -56.1293 C.2       17 UNK         0.5000 
     98 O          -1.1721  -16.5272  -56.1436 O.2       17 UNK        -0.5000 
     99 N           0.4505  -18.0751  -55.8323 N.am      18 UNK        -0.5000 
    100 CA         1.5269  -17.1555  -55.4712 C.3       18 UNK         0.1400 
    101 CB         2.8765  -17.8576  -55.6875 C.3       18 UNK        -0.1800 
    102 C          1.4253  -16.6181  -54.0306 C.2       18 UNK         0.5000 
    103 O          2.0097  -15.5694  -53.7540 O.2       18 UNK        -0.5000 
    104 N          0.7190  -17.3292  -53.1388 N.am      19 UNK        -0.5000 
    105 CA         0.6436  -16.9954  -51.7118 C.3       19 UNK         0.1400 
    106 CB         1.7356  -17.7747  -50.9588 C.3       19 UNK        -0.1800 
    107 C         -0.7450  -17.2300  -51.0902 C.2       19 UNK         0.5000 
    108 O         -0.9041  -17.0459  -49.8811 O.2       19 UNK        -0.5000 
    109 N         -1.7273  -17.6381  -51.8971 N.am      20 UNK        -0.5000 
    110 CA        -3.0635  -18.0068  -51.4567 C.3       20 UNK         0.1400 
    111 CB        -3.0161  -19.4115  -50.8277 C.3       20 UNK        -0.1800 
    112 C         -4.0586  -17.9215  -52.6236 C.2       20 UNK         0.5000 
    113 O         -3.6753  -17.5904  -53.7468 O.2       20 UNK        -0.5000 
    114 N         -5.3319  -18.2119  -52.3271 N.am      21 UNK        -0.5000 
    115 CA        -6.4497  -18.1575  -53.2724 C.3       21 UNK         0.1400 
    116 CB        -7.7623  -18.1649  -52.4725 C.3       21 UNK        -0.1800 
    117 C         -6.4596  -19.2939  -54.3158 C.2       21 UNK         0.5000 
    118 O         -7.1580  -19.1714  -55.3237 O.2       21 UNK        -0.5000 
    119 N         -5.7140  -20.3772  -54.0599 N.am      22 UNK        -0.5000 
    120 CA        -5.6428  -21.6036  -54.8778 C.3       22 UNK         0.1400 
    121 C         -4.9032  -21.4220  -56.2407 C.2       22 UNK         0.5000 
    122 N         -5.2550  -20.4182  -57.0300 N.am      22 UNK        -0.7600 
    123 O         -4.0073  -22.1862  -56.5905 O.2       22 UNK        -0.5000 
    124 C124       -5.1013  -22.8149  -54.0697 C.3       23 UNK        -0.0398 
    125 S125       -5.9729  -23.1016  -52.4903 S.3       23 UNK        -0.2404 
    126 C126       -4.5976  -22.8680  -51.3252 C.3       23 UNK        -0.0205 
    127 H127       -6.9112  -15.3376  -50.6026 H         1 UNK         0.0600 
    128 H128       -7.6620  -16.2389  -49.2821 H         1 UNK         0.0600 
    129 H129       -7.2013  -14.5483  -49.0497 H         1 UNK         0.0600 
    130 H130       -6.2866  -17.4430  -47.9675 H         1 UNK         0.3000 
    131 H131       -3.4148  -17.4255  -48.4183 H         1 UNK         0.0600 
    132 H132       -3.3963  -19.3602  -46.8661 H         1 UNK         0.0800 
    133 H133       -4.3595  -19.5749  -48.2736 H         1 UNK         0.0800 
    134 H134       -7.1050  -19.8054  -48.2510 H         1 UNK         0.0800 
    135 H135       -7.6819  -20.7739  -46.9209 H         1 UNK         0.0800 
    136 H136       -5.9054  -20.8898  -49.9887 H         1 UNK         0.1150 
    137 H137       -4.3539  -24.8461  -49.4656 H         1 UNK         0.1150 
    138 H138       -6.1330  -22.7858  -46.1510 H         1 UNK         0.1150 
    139 H139       -5.5014  -25.0944  -45.8947 H         1 UNK         0.0800 
    140 H140       -5.4525  -26.0386  -47.3534 H         1 UNK         0.0800 
    141 H141       -2.6344  -25.8692  -44.3185 H         1 UNK         0.0800 
    142 H142       -3.8163  -24.6089  -44.4928 H         1 UNK         0.0800 
    143 H143       -1.9265  -23.2054  -45.6219 H         1 UNK         0.0600 
    144 H144       -2.0074  -22.0840  -43.7662 H         1 UNK         0.3000 
    145 H145       -2.9079  -22.7643  -40.5561 H         1 UNK         0.0600 
    146 H146       -0.8792  -21.8209  -39.4869 H         1 UNK         0.0600 
    147 H147       -0.5821  -23.4846  -39.9562 H         1 UNK         0.0600 
    148 H148        0.0792  -22.1729  -40.9251 H         1 UNK         0.0600 
    149 H149       -1.5196  -20.4708  -41.6002 H         1 UNK         0.3000 
    150 H150       -4.2099  -19.1788  -43.5327 H         1 UNK         0.0600 
    151 H151       -4.7403  -18.3508  -41.2572 H         1 UNK         0.0600 
    152 H152       -3.7679  -17.1678  -42.1213 H         1 UNK         0.0600 
    153 H153       -3.0292  -18.1885  -40.8859 H         1 UNK         0.0600 
    154 H154       -1.6866  -18.0555  -43.0672 H         1 UNK         0.3000 
    155 H155        0.1221  -19.8378  -45.6170 H         1 UNK         0.0600 
    156 H156        0.5309  -17.5317  -46.3153 H         1 UNK         0.0600 
    157 H157       -1.1247  -17.9584  -46.6667 H         1 UNK         0.0600 
    158 H158       -0.7691  -16.9327  -45.2774 H         1 UNK         0.0600 
    159 H159        0.7405  -17.8678  -43.5443 H         1 UNK         0.3000 
    160 H160        2.0216  -20.2578  -41.2513 H         1 UNK         0.0600 
    161 H161        3.5472  -18.2971  -43.0459 H         1 UNK         0.0600 
    162 H162        3.9337  -19.9949  -42.7981 H         1 UNK         0.0600 
    163 H163        4.0788  -18.8628  -41.4633 H         1 UNK         0.0600 
    164 H164        1.9435  -17.3709  -41.3368 H         1 UNK         0.3000 
    165 H165       -1.2752  -17.0490  -39.8337 H         1 UNK         0.0600 
    166 H166       -0.0512  -15.9929  -37.9643 H         1 UNK         0.0600 
    167 H167        0.1180  -17.7384  -37.8753 H         1 UNK         0.0600 
    168 H168        1.4538  -16.7608  -38.4724 H         1 UNK         0.0600 
    169 H169        0.6967  -15.0934  -40.1721 H         1 UNK         0.3000 
    170 H170       -0.6975  -13.6508  -42.7992 H         1 UNK         0.0600 
    171 H171        0.3775  -13.0358  -40.6388 H         1 UNK         0.0600 
    172 H172        1.9172  -13.7035  -41.1871 H         1 UNK         0.0600 
    173 H173        1.2204  -12.3022  -41.9871 H         1 UNK         0.0600 
    174 H174        0.6365  -13.8596  -44.5392 H         1 UNK         0.3000 
    175 H175        3.5138  -14.3707  -45.3203 H         1 UNK         0.0600 
    176 H176        2.6630  -17.3035  -45.4850 H         1 UNK         0.0600 
    177 H177        3.7473  -16.5251  -46.6352 H         1 UNK         0.0600 
    178 H178        4.2163  -16.6821  -44.9507 H         1 UNK         0.0600 
    179 H179        0.9647  -15.5053  -46.4114 H         1 UNK         0.3000 
    180 H180        0.1991  -12.4985  -48.0580 H         1 UNK         0.0600 
    181 H181        0.9477  -15.2035  -49.2689 H         1 UNK         0.0600 
    182 H182        1.5037  -13.6299  -49.8182 H         1 UNK         0.0600 
    183 H183       -0.1922  -14.0606  -49.9876 H         1 UNK         0.0600 
    184 H184       -1.2178  -14.9439  -47.9204 H         1 UNK         0.3000 
    185 H185       -2.5055  -14.9574  -44.8873 H         1 UNK         0.0600 
    186 H186       -3.5447  -12.6939  -44.8400 H         1 UNK         0.0600 
    187 H187       -4.1053  -12.8948  -46.4973 H         1 UNK         0.0600 
    188 H188       -4.7491  -13.9147  -45.2116 H         1 UNK         0.0600 
    189 H189       -3.2269  -15.1606  -47.7819 H         1 UNK         0.3000 
    190 H190        0.4037  -23.0810  -43.6502 H         1 UNK         0.3000 
    191 H191        2.1125  -25.3381  -44.4650 H         1 UNK         0.0600 
    192 H192        2.7257  -22.8835  -42.7349 H         1 UNK         0.0600 
    193 H193        3.7594  -24.2851  -42.9633 H         1 UNK         0.0600 
    194 H194        2.2199  -24.4611  -42.1353 H         1 UNK         0.0600 
    195 H195        1.7997  -21.8309  -45.0091 H         1 UNK         0.3000 
    196 H196        3.8355  -21.9266  -47.2089 H         1 UNK         0.0600 
    197 H197        4.1924  -19.5414  -46.6938 H         1 UNK         0.0600 
    198 H198        4.4172  -20.5002  -45.2412 H         1 UNK         0.0600 
    199 H199        2.9307  -19.5833  -45.4720 H         1 UNK         0.0600 
    200 H200        0.7435  -22.4299  -47.2107 H         1 UNK         0.3000 
    201 H201       -0.2911  -20.3673  -49.0116 H         1 UNK         0.0600 
    202 H202       -1.8131  -21.4816  -47.4205 H         1 UNK         0.0600 
    203 H203       -1.4428  -23.0614  -48.1127 H         1 UNK         0.0600 
    204 H204       -2.2990  -21.8551  -49.0614 H         1 UNK         0.0600 
    205 H205        1.8371  -20.8359  -50.2428 H         1 UNK         0.3000 
    206 H206        2.0879  -23.1253  -51.9341 H         1 UNK         0.0600 
    207 H207        4.0128  -21.8287  -51.0676 H         1 UNK         0.0600 
    208 H208        4.0379  -21.8543  -52.8231 H         1 UNK         0.0600 
    209 H209        3.5010  -20.4075  -51.9765 H         1 UNK         0.0600 
    210 H210       -0.3017  -22.7155  -52.6113 H         1 UNK         0.3000 
    211 H211       -1.7891  -22.5137  -54.2404 H         1 UNK         0.0600 
    212 H212        0.5593  -22.2620  -56.1959 H         1 UNK         0.0600 
    213 H213       -1.0760  -22.8071  -56.5708 H         1 UNK         0.0600 
    214 H214       -0.0451  -23.7821  -55.5464 H         1 UNK         0.0600 
    215 H215       -1.3706  -20.8658  -56.7674 H         1 UNK         0.3000 
    216 H216       -2.7575  -18.5715  -56.0115 H         1 UNK         0.0600 
    217 H217       -2.3871  -17.8886  -58.3747 H         1 UNK         0.0600 
    218 H218       -2.7682  -19.6002  -58.2880 H         1 UNK         0.0600 
    219 H219       -1.1040  -19.0811  -58.5424 H         1 UNK         0.0600 
    220 H220        0.6706  -19.0612  -55.8164 H         1 UNK         0.3000 
    221 H221        1.4851  -16.2963  -56.1441 H         1 UNK         0.0600 
    222 H222        2.9936  -18.7178  -55.0280 H         1 UNK         0.0600 
    223 H223        2.9825  -18.2044  -56.7155 H         1 UNK         0.0600 
    224 H224        3.7060  -17.1782  -55.4874 H         1 UNK         0.0600 
    225 H225        0.2674  -18.1872  -53.4352 H         1 UNK         0.3000 
    226 H226        0.8347  -15.9297  -51.5792 H         1 UNK         0.0600 
    227 H227        2.7296  -17.5150  -51.3227 H         1 UNK         0.0600 
    228 H228        1.7179  -17.5608  -49.8894 H         1 UNK         0.0600 
    229 H229        1.6058  -18.8487  -51.0809 H         1 UNK         0.0600 
    230 H230       -1.5674  -17.7705  -52.8885 H         1 UNK         0.3000 
    231 H231       -3.3981  -17.2841  -50.7138 H         1 UNK         0.0600 
    232 H232       -2.4130  -19.4158  -49.9205 H         1 UNK         0.0600 
    233 H233       -2.5843  -20.1406  -51.5134 H         1 UNK         0.0600 
    234 H234       -4.0077  -19.7595  -50.5522 H         1 UNK         0.0600 
    235 H235       -5.5698  -18.4602  -51.3791 H         1 UNK         0.3000 
    236 H236       -6.3886  -17.2149  -53.8206 H         1 UNK         0.0600 
    237 H237       -8.6260  -18.0987  -53.1357 H         1 UNK         0.0600 
    238 H238       -7.8704  -19.0774  -51.8846 H         1 UNK         0.0600 
    239 H239       -7.8166  -17.3168  -51.7909 H         1 UNK         0.0600 
    240 H240       -5.1648  -20.3790  -53.2157 H         1 UNK         0.3000 
    241 H241       -6.6687  -21.8594  -55.1492 H         1 UNK         0.0600 
    242 H242       -5.9949  -19.7923  -56.7274 H         1 UNK         0.3800 
    243 H243       -4.8078  -20.2914  -57.9226 H         1 UNK         0.3800 
    244 H244       -4.0366  -22.6887  -53.8779 H         1 UNK         0.0800 
    245 H245       -5.1905  -23.7279  -54.6609 H         1 UNK         0.0800 
    246 H246       -4.0939  -21.9290  -51.5446 H         1 UNK         0.0800 
    247 H247       -3.8563  -23.6535  -51.4821 H         1 UNK         0.0800 
@<TRIPOS>BOND
     1    1    2 1    
     2    1  127 1    
     3    1  128 1    
     4    1  129 1    
     5    2    3 2    
     6    2    4 am   BACKBONE|DICT|INTERRES
     7    4    5 1    
     8    4  130 1    
     9    5    6 1    
    10    5   65 1    
    11    5  131 1    
    12    6    7 1    
    13    6  132 1    
    14    6  133 1    
    15    7    8 1    
    16    8    9 1    
    17    8  134 1    
    18    8  135 1    
    19    9   10 ar   
    20    9   14 ar   
    21   10   11 ar   
    22   10  136 1    
    23   11   12 ar   
    24   11  126 1    
    25   12   13 ar   
    26   12  137 1    
    27   13   14 ar   
    28   13   15 1    
    29   14  138 1    
    30   15   16 1    
    31   15  139 1    
    32   15  140 1    
    33   16   17 1    
    34   17   18 1    
    35   17  141 1    
    36   17  142 1    
    37   18   19 1    
    38   18   67 1    
    39   18  143 1    
    40   19   20 am   BACKBONE|DICT|INTERRES
    41   19  144 1    
    42   20   21 2    
    43   20   22 1    
    44   22   23 1    
    45   22   24 1    
    46   22  145 1    
    47   23  146 1    
    48   23  147 1    
    49   23  148 1    
    50   24   25 am   BACKBONE|DICT|INTERRES
    51   24  149 1    
    52   25   26 2    
    53   25   27 1    
    54   27   28 1    
    55   27   29 1    
    56   27  150 1    
    57   28  151 1    
    58   28  152 1    
    59   28  153 1    
    60   29   30 am   BACKBONE|DICT|INTERRES
    61   29  154 1    
    62   30   31 2    
    63   30   32 1    
    64   32   33 1    
    65   32   34 1    
    66   32  155 1    
    67   33  156 1    
    68   33  157 1    
    69   33  158 1    
    70   34   35 am   BACKBONE|DICT|INTERRES
    71   34  159 1    
    72   35   36 2    
    73   35   37 1    
    74   37   38 1    
    75   37   39 1    
    76   37  160 1    
    77   38  161 1    
    78   38  162 1    
    79   38  163 1    
    80   39   40 am   BACKBONE|DICT|INTERRES
    81   39  164 1    
    82   40   41 2    
    83   40   42 1    
    84   42   43 1    
    85   42   44 1    
    86   42  165 1    
    87   43  166 1    
    88   43  167 1    
    89   43  168 1    
    90   44   45 am   BACKBONE|DICT|INTERRES
    91   44  169 1    
    92   45   46 2    
    93   45   47 1    
    94   47   48 1    
    95   47   49 1    
    96   47  170 1    
    97   48  171 1    
    98   48  172 1    
    99   48  173 1    
   100   49   50 am   BACKBONE|DICT|INTERRES
   101   49  174 1    
   102   50   51 2    
   103   50   52 1    
   104   52   53 1    
   105   52   54 1    
   106   52  175 1    
   107   53  176 1    
   108   53  177 1    
   109   53  178 1    
   110   54   55 am   BACKBONE|DICT|INTERRES
   111   54  179 1    
   112   55   56 2    
   113   55   57 1    
   114   57   58 1    
   115   57   59 1    
   116   57  180 1    
   117   58  181 1    
   118   58  182 1    
   119   58  183 1    
   120   59   60 am   BACKBONE|DICT|INTERRES
   121   59  184 1    
   122   60   61 2    
   123   60   62 1    
   124   62   63 1    
   125   62   64 1    
   126   62  185 1    
   127   63  186 1    
   128   63  187 1    
   129   63  188 1    
   130   64   65 am   BACKBONE|DICT|INTERRES
   131   64  189 1    
   132   65   66 2    
   133   67   68 2    
   134   67   69 am   BACKBONE|DICT|INTERRES
   135   69   70 1    
   136   69  190 1    
   137   70   71 1    
   138   70   72 1    
   139   70  191 1    
   140   71  192 1    
   141   71  193 1    
   142   71  194 1    
   143   72   73 2    
   144   72   74 am   BACKBONE|DICT|INTERRES
   145   74   75 1    
   146   74  195 1    
   147   75   76 1    
   148   75   77 1    
   149   75  196 1    
   150   76  197 1    
   151   76  198 1    
   152   76  199 1    
   153   77   78 2    
   154   77   79 am   BACKBONE|DICT|INTERRES
   155   79   80 1    
   156   79  200 1    
   157   80   81 1    
   158   80   82 1    
   159   80  201 1    
   160   81  202 1    
   161   81  203 1    
   162   81  204 1    
   163   82   83 2    
   164   82   84 am   BACKBONE|DICT|INTERRES
   165   84   85 1    
   166   84  205 1    
   167   85   86 1    
   168   85   87 1    
   169   85  206 1    
   170   86  207 1    
   171   86  208 1    
   172   86  209 1    
   173   87   88 2    
   174   87   89 am   BACKBONE|DICT|INTERRES
   175   89   90 1    
   176   89  210 1    
   177   90   91 1    
   178   90   92 1    
   179   90  211 1    
   180   91  212 1    
   181   91  213 1    
   182   91  214 1    
   183   92   93 2    
   184   92   94 am   BACKBONE|DICT|INTERRES
   185   94   95 1    
   186   94  215 1    
   187   95   96 1    
   188   95   97 1    
   189   95  216 1    
   190   96  217 1    
   191   96  218 1    
   192   96  219 1    
   193   97   98 2    
   194   97   99 am   BACKBONE|DICT|INTERRES
   195   99  100 1    
   196   99  220 1    
   197  100  101 1    
   198  100  102 1    
   199  100  221 1    
   200  101  222 1    
   201  101  223 1    
   202  101  224 1    
   203  102  103 2    
   204  102  104 am   BACKBONE|DICT|INTERRES
   205  104  105 1    
   206  104  225 1    
   207  105  106 1    
   208  105  107 1    
   209  105  226 1    
   210  106  227 1    
   211  106  228 1    
   212  106  229 1    
   213  107  108 2    
   214  107  109 am   BACKBONE|DICT|INTERRES
   215  109  110 1    
   216  109  230 1    
   217  110  111 1    
   218  110  112 1    
   219  110  231 1    
   220  111  232 1    
   221  111  233 1    
   222  111  234 1    
   223  112  113 2    
   224  112  114 am   BACKBONE|DICT|INTERRES
   225  114  115 1    
   226  114  235 1    
   227  115  116 1    
   228  115  117 1    
   229  115  236 1    
   230  116  237 1    
   231  116  238 1    
   232  116  239 1    
   233  117  118 2    
   234  117  119 am   BACKBONE|DICT|INTERRES
   235  119  120 1    
   236  119  240 1    
   237  120  121 1    
   238  120  124 1    
   239  120  241 1    
   240  121  122 am   BACKBONE|DICT|INTERRES
   241  121  123 2    
   242  122  242 1    
   243  122  243 1    
   244  124  125 1    
   245  124  244 1    
   246  124  245 1    
   247  125  126 1    
   248  126  246 1    
   249  126  247 1    
@<TRIPOS>SUBSTRUCTURE
     1 UNK         1 GROUP             0       ****    0 ROOT    
