@<TRIPOS>MOLECULE
3R540
247   249    1
SMALL
USER_CHARGES


@<TRIPOS>ATOM
      1 CA          3.8411  -16.6571  -46.7443 C.3       0 UNK        -0.1800 
      2 C           2.8551  -15.5345  -47.0348 C.2       0 UNK         0.5000 
      3 O           2.2423  -15.0064  -46.1090 O.2       0 UNK        -0.5000 
      4 N           2.7142  -15.1656  -48.3158 N.am      1 UNK        -0.5000 
      5 CA          1.7346  -14.2084  -48.8562 C.3       1 UNK         0.1400 
      6 C6          1.9136  -14.0396  -50.3881 C.3       23 UNK        -0.0398 
      7 S7          0.3552  -13.6378  -51.2504 S.3       23 UNK        -0.2404 
      8 C8          0.2198  -15.0019  -52.4492 C.3       23 UNK        -0.0205 
      9 C9         -0.2938  -16.2837  -51.8102 C.ar      23 UNK        -0.0193 
     10 C10        -1.6696  -16.5296  -51.7479 C.ar      23 UNK        -0.1150 
     11 C11        -2.1518  -17.7242  -51.2068 C.ar      23 UNK        -0.0193 
     12 C12        -1.2487  -18.6652  -50.7134 C.ar      23 UNK        -0.1150 
     13 C13         0.1273  -18.4353  -50.7664 C.ar      23 UNK        -0.0193 
     14 C14         0.5999  -17.2433  -51.3216 C.ar      23 UNK        -0.1150 
     15 C15         1.0986  -19.4967  -50.2701 C.3       23 UNK        -0.0205 
     16 S16         1.8710  -19.0651  -48.6796 S.3       23 UNK        -0.2404 
     17 C17         0.4442  -19.0441  -47.5463 C.3       23 UNK        -0.0398 
     18 CA         -0.0662  -20.4679  -47.1745 C.3       11 UNK         0.1400 
     19 N           0.0402  -20.7489  -45.7389 N.am      11 UNK        -0.5000 
     20 C          -0.2407  -21.9249  -45.1579 C.2       10 UNK         0.5000 
     21 O          -0.5508  -22.9403  -45.7813 O.2       10 UNK        -0.5000 
     22 CA         -0.2361  -21.9562  -43.6175 C.3       10 UNK         0.1400 
     23 CB          1.1872  -22.1384  -43.0704 C.3       10 UNK        -0.1800 
     24 N          -0.8499  -20.7619  -43.0312 N.am      10 UNK        -0.5000 
     25 C          -2.1395  -20.4276  -43.1885 C.2       9 UNK         0.5000 
     26 O          -2.9545  -21.1252  -43.7892 O.2       9 UNK        -0.5000 
     27 CA         -2.5911  -19.0676  -42.6304 C.3       9 UNK         0.1400 
     28 CB         -2.8909  -19.1691  -41.1279 C.3       9 UNK        -0.1800 
     29 N          -1.6186  -18.0033  -42.8790 N.am      9 UNK        -0.5000 
     30 C          -1.2522  -17.5742  -44.0962 C.2       8 UNK         0.5000 
     31 O          -1.7363  -17.9988  -45.1456 O.2       8 UNK        -0.5000 
     32 CA         -0.1080  -16.5465  -44.1548 C.3       8 UNK         0.1400 
     33 CB         -0.6138  -15.1302  -43.8466 C.3       8 UNK        -0.1800 
     34 N           0.9870  -16.8853  -43.2473 N.am      8 UNK        -0.5000 
     35 C           1.7391  -17.9898  -43.3383 C.2       7 UNK         0.5000 
     36 O           1.6253  -18.8231  -44.2362 O.2       7 UNK        -0.5000 
     37 CA          2.7449  -18.2363  -42.2021 C.3       7 UNK         0.1400 
     38 CB          4.0458  -17.4520  -42.4252 C.3       7 UNK        -0.1800 
     39 N           2.1824  -17.8941  -40.8964 N.am      7 UNK        -0.5000 
     40 C           1.2365  -18.6077  -40.2715 C.2       6 UNK         0.5000 
     41 O           0.7626  -19.6523  -40.7187 O.2       6 UNK        -0.5000 
     42 CA          0.7118  -18.0402  -38.9390 C.3       6 UNK         0.1400 
     43 CB          1.6457  -18.4243  -37.7816 C.3       6 UNK        -0.1800 
     44 N           0.5462  -16.5851  -38.9664 N.am      6 UNK        -0.5000 
     45 C          -0.3694  -15.9471  -39.7085 C.2       5 UNK         0.5000 
     46 O          -1.1787  -16.5217  -40.4344 O.2       5 UNK        -0.5000 
     47 CA         -0.3535  -14.4070  -39.6718 C.3       5 UNK         0.1400 
     48 CB         -1.1664  -13.8902  -38.4753 C.3       5 UNK        -0.1800 
     49 N           0.9846  -13.8055  -39.6456 N.am      5 UNK        -0.5000 
     50 C           1.9589  -14.0443  -40.5334 C.2       4 UNK         0.5000 
     51 O           1.8839  -14.9016  -41.4157 O.2       4 UNK        -0.5000 
     52 CA          3.2462  -13.2106  -40.3807 C.3       4 UNK         0.1400 
     53 CB          4.1250  -13.7945  -39.2631 C.3       4 UNK        -0.1800 
     54 N           4.0332  -13.1676  -41.6151 N.am      4 UNK        -0.5000 
     55 C           3.6273  -12.6403  -42.7784 C.2       3 UNK         0.5000 
     56 O           2.5723  -12.0128  -42.9102 O.2       3 UNK        -0.5000 
     57 CA          4.5714  -12.8490  -43.9812 C.3       3 UNK         0.1400 
     58 CB          5.0555  -14.3051  -44.0954 C.3       3 UNK        -0.1800 
     59 N           3.9192  -12.4857  -45.2384 N.am      3 UNK        -0.5000 
     60 C           3.9412  -11.2649  -45.7886 C.2       2 UNK         0.5000 
     61 O           4.5663  -10.3169  -45.3090 O.2       2 UNK        -0.5000 
     62 CA          3.1515  -11.0727  -47.0988 C.3       2 UNK         0.1400 
     63 CB          3.8601  -10.1111  -48.0705 C.3       2 UNK        -0.1800 
     64 N           2.9264  -12.3489  -47.7812 N.am      2 UNK        -0.5000 
     65 C           1.7338  -12.8273  -48.1576 C.2       1 UNK         0.5000 
     66 O           0.6680  -12.2382  -47.9713 O.2       1 UNK        -0.5000 
     67 C          -1.5057  -20.6891  -47.6829 C.2       11 UNK         0.5000 
     68 O          -1.7043  -21.3995  -48.6702 O.2       11 UNK        -0.5000 
     69 N          -2.4812  -20.0953  -46.9814 N.am      12 UNK        -0.5000 
     70 CA         -3.9073  -20.1999  -47.2833 C.3       12 UNK         0.1400 
     71 CB         -4.6957  -19.2243  -46.3982 C.3       12 UNK        -0.1800 
     72 C          -4.4520  -21.6327  -47.1482 C.2       12 UNK         0.5000 
     73 O          -5.2390  -22.0551  -47.9936 O.2       12 UNK        -0.5000 
     74 N          -3.9936  -22.3698  -46.1265 N.am      13 UNK        -0.5000 
     75 CA         -4.3109  -23.7830  -45.9053 C.3       13 UNK         0.1400 
     76 CB         -3.7909  -24.2198  -44.5276 C.3       13 UNK        -0.1800 
     77 C          -3.7578  -24.7016  -47.0111 C.2       13 UNK         0.5000 
     78 O          -4.4268  -25.6630  -47.3911 O.2       13 UNK        -0.5000 
     79 N          -2.5684  -24.3702  -47.5335 N.am      14 UNK        -0.5000 
     80 CA         -1.9620  -25.0205  -48.6973 C.3       14 UNK         0.1400 
     81 CB         -0.4581  -24.7048  -48.7240 C.3       14 UNK        -0.1800 
     82 C          -2.6210  -24.6136  -50.0312 C.2       14 UNK         0.5000 
     83 O          -2.3851  -25.2774  -51.0405 O.2       14 UNK        -0.5000 
     84 N          -3.4074  -23.5271  -50.0226 N.am      15 UNK        -0.5000 
     85 CA         -4.1572  -22.9421  -51.1384 C.3       15 UNK         0.1400 
     86 CB         -5.3151  -23.8720  -51.5491 C.3       15 UNK        -0.1800 
     87 C          -3.2597  -22.5422  -52.3263 C.2       15 UNK         0.5000 
     88 O          -3.6365  -22.7531  -53.4819 O.2       15 UNK        -0.5000 
     89 N          -2.0724  -22.0054  -52.0022 N.am      16 UNK        -0.5000 
     90 CA         -0.9718  -21.6736  -52.9167 C.3       16 UNK         0.1400 
     91 CB         -1.3474  -20.5091  -53.8550 C.3       16 UNK        -0.1800 
     92 C          -0.4452  -22.9130  -53.6706 C.2       16 UNK         0.5000 
     93 O          -0.2787  -22.8762  -54.8900 O.2       16 UNK        -0.5000 
     94 N          -0.2049  -23.9909  -52.9092 N.am      17 UNK        -0.5000 
     95 CA          0.2393  -25.3156  -53.3553 C.3       17 UNK         0.1400 
     96 CB          1.6423  -25.2529  -53.9961 C.3       17 UNK        -0.1800 
     97 C          -0.8149  -26.0066  -54.2430 C.2       17 UNK         0.5000 
     98 O          -0.5137  -26.4325  -55.3597 O.2       17 UNK        -0.5000 
     99 N          -2.0395  -26.0977  -53.7049 N.am      18 UNK        -0.5000 
    100 CA        -3.2265  -26.7337  -54.2838 C.3       18 UNK         0.1400 
    101 CB        -3.0223  -28.2578  -54.4130 C.3       18 UNK        -0.1800 
    102 C         -3.7107  -26.0756  -55.5936 C.2       18 UNK         0.5000 
    103 O         -4.2510  -26.7597  -56.4647 O.2       18 UNK        -0.5000 
    104 N         -3.5399  -24.7514  -55.7001 N.am      19 UNK        -0.5000 
    105 CA        -4.0194  -23.9387  -56.8209 C.3       19 UNK         0.1400 
    106 CB        -3.0860  -22.7308  -56.9894 C.3       19 UNK        -0.1800 
    107 C         -5.4770  -23.4712  -56.6304 C.2       19 UNK         0.5000 
    108 O         -6.0362  -22.8666  -57.5460 O.2       19 UNK        -0.5000 
    109 N         -6.0523  -23.7397  -55.4471 N.am      20 UNK        -0.5000 
    110 CA        -7.3800  -23.3249  -54.9776 C.3       20 UNK         0.1400 
    111 CB        -8.5016  -23.8887  -55.8759 C.3       20 UNK        -0.1800 
    112 C         -7.4861  -21.8008  -54.7533 C.2       20 UNK         0.5000 
    113 O         -8.5776  -21.2366  -54.8503 O.2       20 UNK        -0.5000 
    114 N         -6.3484  -21.1637  -54.4485 N.am      21 UNK        -0.5000 
    115 CA        -6.2521  -19.7506  -54.0917 C.3       21 UNK         0.1400 
    116 CB        -4.8401  -19.2667  -54.4518 C.3       21 UNK        -0.1800 
    117 C         -6.5438  -19.5412  -52.5922 C.2       21 UNK         0.5000 
    118 O         -6.5213  -20.5052  -51.8235 O.2       21 UNK        -0.5000 
    119 N         -6.7708  -18.2777  -52.2042 N.am      22 UNK        -0.5000 
    120 CA        -7.1428  -17.8304  -50.8458 C.3       22 UNK         0.1400 
    121 C         -8.5773  -18.2792  -50.4187 C.2       22 UNK         0.5000 
    122 N         -9.0311  -17.9016  -49.2301 N.am      22 UNK        -0.7600 
    123 O         -9.3133  -18.9258  -51.1613 O.2       22 UNK        -0.5000 
    124 C124       -6.0624  -18.1607  -49.7674 C.3       23 UNK        -0.0398 
    125 S125       -4.5375  -17.1635  -49.9024 S.3       23 UNK        -0.2404 
    126 C126       -3.6380  -18.0385  -51.2137 C.3       23 UNK        -0.0205 
    127 H127        3.3759  -17.4059  -46.1029 H         1 UNK         0.0600 
    128 H128        4.1673  -17.1537  -47.6582 H         1 UNK         0.0600 
    129 H129        4.7231  -16.2708  -46.2365 H         1 UNK         0.0600 
    130 H130        3.2741  -15.6415  -49.0083 H         1 UNK         0.3000 
    131 H131        0.7584  -14.6615  -48.6696 H         1 UNK         0.0600 
    132 H132        2.6532  -13.2717  -50.6234 H         1 UNK         0.0800 
    133 H133        2.3169  -14.9536  -50.8214 H         1 UNK         0.0800 
    134 H134        1.1832  -15.1725  -52.9323 H         1 UNK         0.0800 
    135 H135       -0.4609  -14.6958  -53.2450 H         1 UNK         0.0800 
    136 H136       -2.3655  -15.8003  -52.1384 H         1 UNK         0.1150 
    137 H137       -1.6248  -19.5953  -50.3229 H         1 UNK         0.1150 
    138 H138        1.6651  -17.0751  -51.3840 H         1 UNK         0.1150 
    139 H139        0.6008  -20.4620  -50.1713 H         1 UNK         0.0800 
    140 H140        1.8843  -19.6369  -51.0138 H         1 UNK         0.0800 
    141 H141       -0.3330  -18.4077  -47.9743 H         1 UNK         0.0800 
    142 H142        0.7666  -18.5054  -46.6563 H         1 UNK         0.0800 
    143 H143        0.5552  -21.2148  -47.6728 H         1 UNK         0.0600 
    144 H144        0.3486  -19.9823  -45.1479 H         1 UNK         0.3000 
    145 H145       -0.8275  -22.8186  -43.3036 H         1 UNK         0.0600 
    146 H146        1.1840  -22.2181  -41.9832 H         1 UNK         0.0600 
    147 H147        1.6403  -23.0496  -43.4625 H         1 UNK         0.0600 
    148 H148        1.8369  -21.3072  -43.3423 H         1 UNK         0.0600 
    149 H149       -0.2485  -20.1607  -42.4790 H         1 UNK         0.3000 
    150 H150       -3.5168  -18.7932  -43.1399 H         1 UNK         0.0600 
    151 H151       -3.6127  -19.9615  -40.9258 H         1 UNK         0.0600 
    152 H152       -3.3156  -18.2399  -40.7480 H         1 UNK         0.0600 
    153 H153       -1.9923  -19.3875  -40.5507 H         1 UNK         0.0600 
    154 H154       -1.2141  -17.5618  -42.0580 H         1 UNK         0.3000 
    155 H155        0.2874  -16.5516  -45.1717 H         1 UNK         0.0600 
    156 H156       -1.0189  -15.0572  -42.8375 H         1 UNK         0.0600 
    157 H157       -1.4019  -14.8382  -44.5415 H         1 UNK         0.0600 
    158 H158        0.1903  -14.3991  -43.9388 H         1 UNK         0.0600 
    159 H159        1.1894  -16.2211  -42.5032 H         1 UNK         0.3000 
    160 H160        2.9903  -19.3004  -42.2044 H         1 UNK         0.0600 
    161 H161        4.8080  -17.7441  -41.7029 H         1 UNK         0.0600 
    162 H162        3.8889  -16.3790  -42.3252 H         1 UNK         0.0600 
    163 H163        4.4514  -17.6368  -43.4208 H         1 UNK         0.0600 
    164 H164        2.4541  -17.0029  -40.5070 H         1 UNK         0.3000 
    165 H165       -0.2655  -18.4896  -38.7499 H         1 UNK         0.0600 
    166 H166        1.2405  -18.0981  -36.8235 H         1 UNK         0.0600 
    167 H167        1.7746  -19.5062  -37.7273 H         1 UNK         0.0600 
    168 H168        2.6355  -17.9809  -37.8965 H         1 UNK         0.0600 
    169 H169        1.1801  -16.0373  -38.4037 H         1 UNK         0.3000 
    170 H170       -0.8413  -14.0590  -40.5842 H         1 UNK         0.0600 
    171 H171       -2.1748  -14.3064  -38.4787 H         1 UNK         0.0600 
    172 H172       -0.7025  -14.1609  -37.5260 H         1 UNK         0.0600 
    173 H173       -1.2654  -12.8049  -38.5040 H         1 UNK         0.0600 
    174 H174        1.1390  -13.1028  -38.9370 H         1 UNK         0.3000 
    175 H175        2.9678  -12.1877  -40.1195 H         1 UNK         0.0600 
    176 H176        4.4314  -14.8176  -39.4857 H         1 UNK         0.0600 
    177 H177        5.0262  -13.1985  -39.1177 H         1 UNK         0.0600 
    178 H178        3.5939  -13.8112  -38.3106 H         1 UNK         0.0600 
    179 H179        4.9051  -13.6746  -41.5986 H         1 UNK         0.3000 
    180 H180        5.4462  -12.2148  -43.8239 H         1 UNK         0.0600 
    181 H181        4.2153  -14.9938  -44.1824 H         1 UNK         0.0600 
    182 H182        5.6462  -14.6072  -43.2304 H         1 UNK         0.0600 
    183 H183        5.6907  -14.4369  -44.9712 H         1 UNK         0.0600 
    184 H184        3.3080  -13.1882  -45.6395 H         1 UNK         0.3000 
    185 H185        2.2002  -10.6216  -46.8107 H         1 UNK         0.0600 
    186 H186        3.9917   -9.1243  -47.6252 H         1 UNK         0.0600 
    187 H187        4.8465  -10.4810  -48.3524 H         1 UNK         0.0600 
    188 H188        3.2793   -9.9766  -48.9832 H         1 UNK         0.0600 
    189 H189        3.7468  -12.9147  -47.9485 H         1 UNK         0.3000 
    190 H190       -2.2257  -19.4922  -46.2029 H         1 UNK         0.3000 
    191 H191       -4.0378  -19.8974  -48.3234 H         1 UNK         0.0600 
    192 H192       -4.5689  -19.4497  -45.3393 H         1 UNK         0.0600 
    193 H193       -5.7627  -19.2706  -46.6189 H         1 UNK         0.0600 
    194 H194       -4.3726  -18.1961  -46.5631 H         1 UNK         0.0600 
    195 H195       -3.4040  -21.9234  -45.4278 H         1 UNK         0.3000 
    196 H196       -5.3982  -23.8838  -45.9050 H         1 UNK         0.0600 
    197 H197       -4.0320  -25.2653  -44.3318 H         1 UNK         0.0600 
    198 H198       -4.2411  -23.6278  -43.7306 H         1 UNK         0.0600 
    199 H199       -2.7085  -24.1125  -44.4539 H         1 UNK         0.0600 
    200 H200       -2.0511  -23.5995  -47.1239 H         1 UNK         0.3000 
    201 H201       -2.0796  -26.1009  -48.5923 H         1 UNK         0.0600 
    202 H202        0.0283  -25.0334  -47.8053 H         1 UNK         0.0600 
    203 H203       -0.2696  -23.6370  -48.8355 H         1 UNK         0.0600 
    204 H204        0.0356  -25.2146  -49.5522 H         1 UNK         0.0600 
    205 H205       -3.5067  -23.0395  -49.1416 H         1 UNK         0.3000 
    206 H206       -4.5907  -22.0166  -50.7582 H         1 UNK         0.0600 
    207 H207       -5.9223  -24.1460  -50.6863 H         1 UNK         0.0600 
    208 H208       -5.9733  -23.3722  -52.2582 H         1 UNK         0.0600 
    209 H209       -4.9558  -24.7900  -52.0141 H         1 UNK         0.0600 
    210 H210       -1.8750  -21.8955  -51.0150 H         1 UNK         0.3000 
    211 H211       -0.1469  -21.3300  -52.2931 H         1 UNK         0.0600 
    212 H212       -2.1249  -20.7915  -54.5617 H         1 UNK         0.0600 
    213 H213       -0.4837  -20.1844  -54.4359 H         1 UNK         0.0600 
    214 H214       -1.7016  -19.6444  -53.2978 H         1 UNK         0.0600 
    215 H215       -0.4349  -23.9272  -51.9283 H         1 UNK         0.3000 
    216 H216        0.3238  -25.9261  -52.4548 H         1 UNK         0.0600 
    217 H217        1.6403  -24.7002  -54.9358 H         1 UNK         0.0600 
    218 H218        2.0148  -26.2551  -54.2108 H         1 UNK         0.0600 
    219 H219        2.3596  -24.7765  -53.3280 H         1 UNK         0.0600 
    220 H220       -2.1696  -25.7207  -52.7662 H         1 UNK         0.3000 
    221 H221       -4.0276  -26.5762  -53.5606 H         1 UNK         0.0600 
    222 H222       -2.2758  -28.5044  -55.1685 H         1 UNK         0.0600 
    223 H223       -2.6997  -28.6934  -53.4673 H         1 UNK         0.0600 
    224 H224       -3.9504  -28.7552  -54.6966 H         1 UNK         0.0600 
    225 H225       -3.1230  -24.2423  -54.9285 H         1 UNK         0.3000 
    226 H226       -3.9787  -24.5267  -57.7401 H         1 UNK         0.0600 
    227 H227       -2.0491  -23.0446  -57.1112 H         1 UNK         0.0600 
    228 H228       -3.3551  -22.1460  -57.8696 H         1 UNK         0.0600 
    229 H229       -3.1380  -22.0670  -56.1277 H         1 UNK         0.0600 
    230 H230       -5.4738  -24.2055  -54.7630 H         1 UNK         0.3000 
    231 H231       -7.5057  -23.7792  -53.9946 H         1 UNK         0.0600 
    232 H232       -8.3840  -24.9616  -56.0278 H         1 UNK         0.0600 
    233 H233       -8.5207  -23.4099  -56.8550 H         1 UNK         0.0600 
    234 H234       -9.4801  -23.7322  -55.4206 H         1 UNK         0.0600 
    235 H235       -5.5045  -21.7113  -54.3381 H         1 UNK         0.3000 
    236 H236       -6.9778  -19.1802  -54.6752 H         1 UNK         0.0600 
    237 H237       -4.7611  -18.1830  -54.3655 H         1 UNK         0.0600 
    238 H238       -4.0932  -19.7101  -53.7944 H         1 UNK         0.0600 
    239 H239       -4.5794  -19.5261  -55.4783 H         1 UNK         0.0600 
    240 H240       -6.7834  -17.5542  -52.9084 H         1 UNK         0.3000 
    241 H241       -7.2126  -16.7445  -50.9191 H         1 UNK         0.0600 
    242 H242       -8.4864  -17.3282  -48.6053 H         1 UNK         0.3800 
    243 H243       -9.9634  -18.1745  -48.9591 H         1 UNK         0.3800 
    244 H244       -6.4420  -17.9579  -48.7661 H         1 UNK         0.0800 
    245 H245       -5.8138  -19.2213  -49.7618 H         1 UNK         0.0800 
    246 H246       -3.7980  -19.1140  -51.1209 H         1 UNK         0.0800 
    247 H247       -4.0526  -17.7410  -52.1749 H         1 UNK         0.0800 
@<TRIPOS>BOND
     1    1    2 1    
     2    1  127 1    
     3    1  128 1    
     4    1  129 1    
     5    2    3 2    
     6    2    4 am   BACKBONE|DICT|INTERRES
     7    4    5 1    
     8    4  130 1    
     9    5    6 1    
    10    5   65 1    
    11    5  131 1    
    12    6    7 1    
    13    6  132 1    
    14    6  133 1    
    15    7    8 1    
    16    8    9 1    
    17    8  134 1    
    18    8  135 1    
    19    9   10 ar   
    20    9   14 ar   
    21   10   11 ar   
    22   10  136 1    
    23   11   12 ar   
    24   11  126 1    
    25   12   13 ar   
    26   12  137 1    
    27   13   14 ar   
    28   13   15 1    
    29   14  138 1    
    30   15   16 1    
    31   15  139 1    
    32   15  140 1    
    33   16   17 1    
    34   17   18 1    
    35   17  141 1    
    36   17  142 1    
    37   18   19 1    
    38   18   67 1    
    39   18  143 1    
    40   19   20 am   BACKBONE|DICT|INTERRES
    41   19  144 1    
    42   20   21 2    
    43   20   22 1    
    44   22   23 1    
    45   22   24 1    
    46   22  145 1    
    47   23  146 1    
    48   23  147 1    
    49   23  148 1    
    50   24   25 am   BACKBONE|DICT|INTERRES
    51   24  149 1    
    52   25   26 2    
    53   25   27 1    
    54   27   28 1    
    55   27   29 1    
    56   27  150 1    
    57   28  151 1    
    58   28  152 1    
    59   28  153 1    
    60   29   30 am   BACKBONE|DICT|INTERRES
    61   29  154 1    
    62   30   31 2    
    63   30   32 1    
    64   32   33 1    
    65   32   34 1    
    66   32  155 1    
    67   33  156 1    
    68   33  157 1    
    69   33  158 1    
    70   34   35 am   BACKBONE|DICT|INTERRES
    71   34  159 1    
    72   35   36 2    
    73   35   37 1    
    74   37   38 1    
    75   37   39 1    
    76   37  160 1    
    77   38  161 1    
    78   38  162 1    
    79   38  163 1    
    80   39   40 am   BACKBONE|DICT|INTERRES
    81   39  164 1    
    82   40   41 2    
    83   40   42 1    
    84   42   43 1    
    85   42   44 1    
    86   42  165 1    
    87   43  166 1    
    88   43  167 1    
    89   43  168 1    
    90   44   45 am   BACKBONE|DICT|INTERRES
    91   44  169 1    
    92   45   46 2    
    93   45   47 1    
    94   47   48 1    
    95   47   49 1    
    96   47  170 1    
    97   48  171 1    
    98   48  172 1    
    99   48  173 1    
   100   49   50 am   BACKBONE|DICT|INTERRES
   101   49  174 1    
   102   50   51 2    
   103   50   52 1    
   104   52   53 1    
   105   52   54 1    
   106   52  175 1    
   107   53  176 1    
   108   53  177 1    
   109   53  178 1    
   110   54   55 am   BACKBONE|DICT|INTERRES
   111   54  179 1    
   112   55   56 2    
   113   55   57 1    
   114   57   58 1    
   115   57   59 1    
   116   57  180 1    
   117   58  181 1    
   118   58  182 1    
   119   58  183 1    
   120   59   60 am   BACKBONE|DICT|INTERRES
   121   59  184 1    
   122   60   61 2    
   123   60   62 1    
   124   62   63 1    
   125   62   64 1    
   126   62  185 1    
   127   63  186 1    
   128   63  187 1    
   129   63  188 1    
   130   64   65 am   BACKBONE|DICT|INTERRES
   131   64  189 1    
   132   65   66 2    
   133   67   68 2    
   134   67   69 am   BACKBONE|DICT|INTERRES
   135   69   70 1    
   136   69  190 1    
   137   70   71 1    
   138   70   72 1    
   139   70  191 1    
   140   71  192 1    
   141   71  193 1    
   142   71  194 1    
   143   72   73 2    
   144   72   74 am   BACKBONE|DICT|INTERRES
   145   74   75 1    
   146   74  195 1    
   147   75   76 1    
   148   75   77 1    
   149   75  196 1    
   150   76  197 1    
   151   76  198 1    
   152   76  199 1    
   153   77   78 2    
   154   77   79 am   BACKBONE|DICT|INTERRES
   155   79   80 1    
   156   79  200 1    
   157   80   81 1    
   158   80   82 1    
   159   80  201 1    
   160   81  202 1    
   161   81  203 1    
   162   81  204 1    
   163   82   83 2    
   164   82   84 am   BACKBONE|DICT|INTERRES
   165   84   85 1    
   166   84  205 1    
   167   85   86 1    
   168   85   87 1    
   169   85  206 1    
   170   86  207 1    
   171   86  208 1    
   172   86  209 1    
   173   87   88 2    
   174   87   89 am   BACKBONE|DICT|INTERRES
   175   89   90 1    
   176   89  210 1    
   177   90   91 1    
   178   90   92 1    
   179   90  211 1    
   180   91  212 1    
   181   91  213 1    
   182   91  214 1    
   183   92   93 2    
   184   92   94 am   BACKBONE|DICT|INTERRES
   185   94   95 1    
   186   94  215 1    
   187   95   96 1    
   188   95   97 1    
   189   95  216 1    
   190   96  217 1    
   191   96  218 1    
   192   96  219 1    
   193   97   98 2    
   194   97   99 am   BACKBONE|DICT|INTERRES
   195   99  100 1    
   196   99  220 1    
   197  100  101 1    
   198  100  102 1    
   199  100  221 1    
   200  101  222 1    
   201  101  223 1    
   202  101  224 1    
   203  102  103 2    
   204  102  104 am   BACKBONE|DICT|INTERRES
   205  104  105 1    
   206  104  225 1    
   207  105  106 1    
   208  105  107 1    
   209  105  226 1    
   210  106  227 1    
   211  106  228 1    
   212  106  229 1    
   213  107  108 2    
   214  107  109 am   BACKBONE|DICT|INTERRES
   215  109  110 1    
   216  109  230 1    
   217  110  111 1    
   218  110  112 1    
   219  110  231 1    
   220  111  232 1    
   221  111  233 1    
   222  111  234 1    
   223  112  113 2    
   224  112  114 am   BACKBONE|DICT|INTERRES
   225  114  115 1    
   226  114  235 1    
   227  115  116 1    
   228  115  117 1    
   229  115  236 1    
   230  116  237 1    
   231  116  238 1    
   232  116  239 1    
   233  117  118 2    
   234  117  119 am   BACKBONE|DICT|INTERRES
   235  119  120 1    
   236  119  240 1    
   237  120  121 1    
   238  120  124 1    
   239  120  241 1    
   240  121  122 am   BACKBONE|DICT|INTERRES
   241  121  123 2    
   242  122  242 1    
   243  122  243 1    
   244  124  125 1    
   245  124  244 1    
   246  124  245 1    
   247  125  126 1    
   248  126  246 1    
   249  126  247 1    
@<TRIPOS>SUBSTRUCTURE
     1 UNK         1 GROUP             0       ****    0 ROOT    
