@<TRIPOS>MOLECULE
3R540
247   249    1
SMALL
USER_CHARGES


@<TRIPOS>ATOM
      1 CA          5.1050   -6.9558  -47.0680 C.3       0 UNK        -0.1800 
      2 C           5.0398   -8.3091  -47.7619 C.2       0 UNK         0.5000 
      3 O           6.0767   -8.9370  -47.9761 O.2       0 UNK        -0.5000 
      4 N           3.8267   -8.7553  -48.1151 N.am      1 UNK        -0.5000 
      5 CA          3.5509  -10.0442  -48.7626 C.3       1 UNK         0.1400 
      6 C6          2.0829  -10.1025  -49.2617 C.3       23 UNK        -0.0398 
      7 S7          1.7417  -11.4588  -50.4341 S.3       23 UNK        -0.2404 
      8 C8          0.9773  -12.6855  -49.3238 C.3       23 UNK        -0.0205 
      9 C9          0.5893  -13.9568  -50.0610 C.ar      23 UNK        -0.0193 
     10 C10         1.5788  -14.7645  -50.6309 C.ar      23 UNK        -0.1150 
     11 C11         1.2339  -15.9394  -51.3029 C.ar      23 UNK        -0.0193 
     12 C12        -0.1105  -16.3097  -51.3922 C.ar      23 UNK        -0.1150 
     13 C13        -1.1045  -15.5349  -50.7907 C.ar      23 UNK        -0.0193 
     14 C14        -0.7515  -14.3478  -50.1421 C.ar      23 UNK        -0.1150 
     15 C15        -2.5498  -16.0125  -50.8113 C.3       23 UNK        -0.0205 
     16 S16        -3.1452  -16.5395  -49.1668 S.3       23 UNK        -0.2404 
     17 C17        -1.8802  -17.7390  -48.6174 C.3       23 UNK        -0.0398 
     18 CA         -2.2074  -19.2127  -48.9422 C.3       11 UNK         0.1400 
     19 N          -1.0080  -20.0489  -48.8365 N.am      11 UNK        -0.5000 
     20 C          -0.9210  -21.3253  -49.2360 C.2       10 UNK         0.5000 
     21 O          -1.8249  -21.9128  -49.8229 O.2       10 UNK        -0.5000 
     22 CA          0.3651  -22.0911  -48.8708 C.3       10 UNK         0.1400 
     23 CB          1.3696  -22.0899  -50.0283 C.3       10 UNK        -0.1800 
     24 N           1.0089  -21.5645  -47.6683 N.am      10 UNK        -0.5000 
     25 C           0.4921  -21.6497  -46.4379 C.2       9 UNK         0.5000 
     26 O          -0.5800  -22.2028  -46.1903 O.2       9 UNK        -0.5000 
     27 CA          1.2702  -20.9595  -45.3088 C.3       9 UNK         0.1400 
     28 CB          2.5560  -21.7248  -44.9457 C.3       9 UNK        -0.1800 
     29 N           1.5332  -19.5396  -45.5633 N.am      9 UNK        -0.5000 
     30 C           2.3536  -18.9516  -46.4465 C.2       8 UNK         0.5000 
     31 O           3.0110  -19.5621  -47.2896 O.2       8 UNK        -0.5000 
     32 CA          2.4605  -17.4135  -46.3554 C.3       8 UNK         0.1400 
     33 CB          1.4597  -16.7376  -47.3045 C.3       8 UNK        -0.1800 
     34 N           2.2402  -16.9224  -44.9910 N.am      8 UNK        -0.5000 
     35 C           3.0933  -17.1180  -43.9732 C.2       7 UNK         0.5000 
     36 O           4.2232  -17.5884  -44.1078 O.2       7 UNK        -0.5000 
     37 CA          2.5765  -16.7871  -42.5616 C.3       7 UNK         0.1400 
     38 CB          2.8033  -15.3093  -42.2091 C.3       7 UNK        -0.1800 
     39 N           1.1594  -17.1265  -42.4140 N.am      7 UNK        -0.5000 
     40 C           0.6986  -18.3759  -42.2477 C.2       6 UNK         0.5000 
     41 O           1.4267  -19.3602  -42.1252 O.2       6 UNK        -0.5000 
     42 CA         -0.8298  -18.5711  -42.2402 C.3       6 UNK         0.1400 
     43 CB         -1.3648  -18.5774  -40.8008 C.3       6 UNK        -0.1800 
     44 N          -1.5393  -17.5475  -43.0072 N.am      6 UNK        -0.5000 
     45 C          -1.5547  -17.4628  -44.3446 C.2       5 UNK         0.5000 
     46 O          -1.0155  -18.2814  -45.0886 O.2       5 UNK        -0.5000 
     47 CA         -2.2612  -16.2339  -44.9464 C.3       5 UNK         0.1400 
     48 CB         -3.7358  -16.5497  -45.2362 C.3       5 UNK        -0.1800 
     49 N          -2.1676  -15.0525  -44.0834 N.am      5 UNK        -0.5000 
     50 C          -1.0192  -14.4199  -43.8128 C.2       4 UNK         0.5000 
     51 O           0.0714  -14.7519  -44.2866 O.2       4 UNK        -0.5000 
     52 CA         -1.0861  -13.2763  -42.7955 C.3       4 UNK         0.1400 
     53 CB         -0.8507  -13.8104  -41.3700 C.3       4 UNK        -0.1800 
     54 N          -0.0724  -12.2914  -43.1498 N.am      4 UNK        -0.5000 
     55 C          -0.0225  -11.0252  -42.7213 C.2       3 UNK         0.5000 
     56 O          -0.8138  -10.5587  -41.9003 O.2       3 UNK        -0.5000 
     57 CA          1.0416  -10.0977  -43.3462 C.3       3 UNK         0.1400 
     58 CB          1.8861   -9.3699  -42.2793 C.3       3 UNK        -0.1800 
     59 N           1.8759  -10.7364  -44.3760 N.am      3 UNK        -0.5000 
     60 C           2.8995  -11.5926  -44.2141 C.2       2 UNK         0.5000 
     61 O           3.3162  -11.9778  -43.1232 O.2       2 UNK        -0.5000 
     62 CA          3.5603  -12.1170  -45.4999 C.3       2 UNK         0.1400 
     63 CB          2.9203  -13.4687  -45.8790 C.3       2 UNK        -0.1800 
     64 N           3.4272  -11.1297  -46.5761 N.am      2 UNK        -0.5000 
     65 C           3.8830  -11.2318  -47.8312 C.2       1 UNK         0.5000 
     66 O           4.5355  -12.1844  -48.2591 O.2       1 UNK        -0.5000 
     67 C          -3.3498  -19.7605  -48.0582 C.2       11 UNK         0.5000 
     68 O          -4.4735  -19.9099  -48.5384 O.2       11 UNK        -0.5000 
     69 N          -3.0313  -20.1068  -46.8003 N.am      12 UNK        -0.5000 
     70 CA         -3.9606  -20.7545  -45.8720 C.3       12 UNK         0.1400 
     71 CB         -3.3653  -20.7828  -44.4565 C.3       12 UNK        -0.1800 
     72 C          -4.3596  -22.1678  -46.3307 C.2       12 UNK         0.5000 
     73 O          -5.5321  -22.5271  -46.2264 O.2       12 UNK        -0.5000 
     74 N          -3.3967  -22.9258  -46.8755 N.am      13 UNK        -0.5000 
     75 CA         -3.6362  -24.2415  -47.4708 C.3       13 UNK         0.1400 
     76 CB         -2.3043  -24.9193  -47.8162 C.3       13 UNK        -0.1800 
     77 C          -4.5535  -24.1742  -48.7055 C.2       13 UNK         0.5000 
     78 O          -5.4245  -25.0293  -48.8482 O.2       13 UNK        -0.5000 
     79 N          -4.3791  -23.1477  -49.5480 N.am      14 UNK        -0.5000 
     80 CA         -5.2325  -22.8667  -50.7021 C.3       14 UNK         0.1400 
     81 CB         -4.5670  -21.8163  -51.5998 C.3       14 UNK        -0.1800 
     82 C          -6.6523  -22.4381  -50.3022 C.2       14 UNK         0.5000 
     83 O          -7.6121  -22.8926  -50.9243 O.2       14 UNK        -0.5000 
     84 N          -6.7719  -21.6211  -49.2459 N.am      15 UNK        -0.5000 
     85 CA         -8.0502  -21.2191  -48.6519 C.3       15 UNK         0.1400 
     86 CB         -7.8091  -20.1267  -47.5991 C.3       15 UNK        -0.1800 
     87 C          -8.8259  -22.4078  -48.0482 C.2       15 UNK         0.5000 
     88 O         -10.0496  -22.4640  -48.1735 O.2       15 UNK        -0.5000 
     89 N          -8.0954  -23.3543  -47.4436 N.am      16 UNK        -0.5000 
     90 CA         -8.6173  -24.6225  -46.9296 C.3       16 UNK         0.1400 
     91 CB         -7.6175  -25.1804  -45.9035 C.3       16 UNK        -0.1800 
     92 C          -8.8906  -25.6712  -48.0299 C.2       16 UNK         0.5000 
     93 O          -9.5341  -26.6814  -47.7431 O.2       16 UNK        -0.5000 
     94 N          -8.3791  -25.4314  -49.2475 N.am      17 UNK        -0.5000 
     95 CA         -8.3644  -26.3225  -50.4144 C.3       17 UNK         0.1400 
     96 CB         -9.7934  -26.5690  -50.9404 C.3       17 UNK        -0.1800 
     97 C          -7.5720  -27.6262  -50.1652 C.2       17 UNK         0.5000 
     98 O          -7.9239  -28.6812  -50.6965 O.2       17 UNK        -0.5000 
     99 N          -6.5154  -27.5254  -49.3507 N.am      18 UNK        -0.5000 
    100 CA        -5.6483  -28.6260  -48.9385 C.3       18 UNK         0.1400 
    101 CB        -5.1929  -28.3684  -47.4930 C.3       18 UNK        -0.1800 
    102 C         -4.4258  -28.7909  -49.8589 C.2       18 UNK         0.5000 
    103 O         -3.8817  -29.8930  -49.9402 O.2       18 UNK        -0.5000 
    104 N         -4.0088  -27.7101  -50.5289 N.am      19 UNK        -0.5000 
    105 CA        -2.8664  -27.6599  -51.4388 C.3       19 UNK         0.1400 
    106 CB        -1.5512  -27.5915  -50.6364 C.3       19 UNK        -0.1800 
    107 C         -3.0126  -26.4440  -52.3659 C.2       19 UNK         0.5000 
    108 O         -3.9359  -25.6465  -52.1914 O.2       19 UNK        -0.5000 
    109 N         -2.0964  -26.3190  -53.3323 N.am      20 UNK        -0.5000 
    110 CA        -1.9700  -25.1484  -54.2008 C.3       20 UNK         0.1400 
    111 CB        -1.1577  -25.5417  -55.4448 C.3       20 UNK        -0.1800 
    112 C         -1.2936  -23.9749  -53.4652 C.2       20 UNK         0.5000 
    113 O         -0.5058  -24.1985  -52.5425 O.2       20 UNK        -0.5000 
    114 N         -1.5918  -22.7491  -53.9120 N.am      21 UNK        -0.5000 
    115 CA        -0.9918  -21.5144  -53.4058 C.3       21 UNK         0.1400 
    116 CB        -1.8595  -20.3222  -53.8443 C.3       21 UNK        -0.1800 
    117 C          0.4571  -21.3247  -53.8951 C.2       21 UNK         0.5000 
    118 O          0.8554  -21.9047  -54.9082 O.2       21 UNK        -0.5000 
    119 N          1.1987  -20.4662  -53.1867 N.am      22 UNK        -0.5000 
    120 CA         2.5586  -20.0162  -53.5338 C.3       22 UNK         0.1400 
    121 C          2.6485  -19.0596  -54.7620 C.2       22 UNK         0.5000 
    122 N          1.5465  -18.5545  -55.3036 N.am      22 UNK        -0.7600 
    123 O          3.7438  -18.7761  -55.2390 O.2       22 UNK        -0.5000 
    124 C124        3.3249  -19.4509  -52.2993 C.3       23 UNK        -0.0398 
    125 S125        2.3170  -18.4610  -51.1369 S.3       23 UNK        -0.2404 
    126 C126        2.3023  -16.8226  -51.9254 C.3       23 UNK        -0.0205 
    127 H127        5.7188   -6.2662  -47.6475 H         1 UNK         0.0600 
    128 H128        4.1163   -6.5123  -46.9482 H         1 UNK         0.0600 
    129 H129        5.5513   -7.0627  -46.0792 H         1 UNK         0.0600 
    130 H130        3.0218   -8.1741  -47.9277 H         1 UNK         0.3000 
    131 H131        4.2076  -10.1142  -49.6327 H         1 UNK         0.0600 
    132 H132        1.8475   -9.1784  -49.7918 H         1 UNK         0.0800 
    133 H133        1.3809  -10.1449  -48.4272 H         1 UNK         0.0800 
    134 H134        1.6752  -12.9489  -48.5301 H         1 UNK         0.0800 
    135 H135        0.1067  -12.2405  -48.8396 H         1 UNK         0.0800 
    136 H136        2.6166  -14.4719  -50.5519 H         1 UNK         0.1150 
    137 H137       -0.3760  -17.2269  -51.8986 H         1 UNK         0.1150 
    138 H138       -1.5206  -13.7460  -49.6786 H         1 UNK         0.1150 
    139 H139       -3.1882  -15.2072  -51.1771 H         1 UNK         0.0800 
    140 H140       -2.6732  -16.8406  -51.5111 H         1 UNK         0.0800 
    141 H141       -1.7452  -17.6133  -47.5454 H         1 UNK         0.0800 
    142 H142       -0.9193  -17.4723  -49.0526 H         1 UNK         0.0800 
    143 H143       -2.5397  -19.2644  -49.9815 H         1 UNK         0.0600 
    144 H144       -0.2159  -19.6524  -48.3540 H         1 UNK         0.3000 
    145 H145        0.0866  -23.1275  -48.6753 H         1 UNK         0.0600 
    146 H146        2.2346  -22.7122  -49.7989 H         1 UNK         0.0600 
    147 H147        0.9203  -22.4857  -50.9390 H         1 UNK         0.0600 
    148 H148        1.7298  -21.0865  -50.2414 H         1 UNK         0.0600 
    149 H149        1.8753  -21.0451  -47.7830 H         1 UNK         0.3000 
    150 H150        0.6236  -20.9809  -44.4300 H         1 UNK         0.0600 
    151 H151        2.3285  -22.7543  -44.6667 H         1 UNK         0.0600 
    152 H152        3.0588  -21.2611  -44.0966 H         1 UNK         0.0600 
    153 H153        3.2630  -21.7611  -45.7747 H         1 UNK         0.0600 
    154 H154        0.9536  -18.9151  -45.0162 H         1 UNK         0.3000 
    155 H155        3.4686  -17.1330  -46.6676 H         1 UNK         0.0600 
    156 H156        1.6192  -15.6607  -47.3472 H         1 UNK         0.0600 
    157 H157        0.4327  -16.9055  -46.9859 H         1 UNK         0.0600 
    158 H158        1.5610  -17.1179  -48.3218 H         1 UNK         0.0600 
    159 H159        1.3583  -16.4612  -44.8038 H         1 UNK         0.3000 
    160 H160        3.1532  -17.3858  -41.8531 H         1 UNK         0.0600 
    161 H161        2.2129  -14.6418  -42.8344 H         1 UNK         0.0600 
    162 H162        3.8505  -15.0327  -42.3374 H         1 UNK         0.0600 
    163 H163        2.5416  -15.1093  -41.1702 H         1 UNK         0.0600 
    164 H164        0.4987  -16.3753  -42.5440 H         1 UNK         0.3000 
    165 H165       -1.0400  -19.5451  -42.6874 H         1 UNK         0.0600 
    166 H166       -1.1971  -17.6210  -40.3039 H         1 UNK         0.0600 
    167 H167       -2.4348  -18.7850  -40.7794 H         1 UNK         0.0600 
    168 H168       -0.8737  -19.3479  -40.2050 H         1 UNK         0.0600 
    169 H169       -2.0273  -16.8414  -42.4768 H         1 UNK         0.3000 
    170 H170       -1.7682  -15.9949  -45.8904 H         1 UNK         0.0600 
    171 H171       -3.8297  -17.4147  -45.8937 H         1 UNK         0.0600 
    172 H172       -4.2896  -16.7707  -44.3231 H         1 UNK         0.0600 
    173 H173       -4.2264  -15.7134  -45.7346 H         1 UNK         0.0600 
    174 H174       -3.0260  -14.7286  -43.6606 H         1 UNK         0.3000 
    175 H175       -2.0716  -12.8097  -42.8558 H         1 UNK         0.0600 
    176 H176       -0.9481  -13.0186  -40.6274 H         1 UNK         0.0600 
    177 H177       -1.5777  -14.5814  -41.1125 H         1 UNK         0.0600 
    178 H178        0.1432  -14.2447  -41.2621 H         1 UNK         0.0600 
    179 H179        0.6027  -12.6152  -43.8297 H         1 UNK         0.3000 
    180 H180        0.4762   -9.3299  -43.8763 H         1 UNK         0.0600 
    181 H181        2.4014  -10.0676  -41.6191 H         1 UNK         0.0600 
    182 H182        1.2564   -8.7399  -41.6501 H         1 UNK         0.0600 
    183 H183        2.6336   -8.7232  -42.7387 H         1 UNK         0.0600 
    184 H184        1.5649  -10.5616  -45.3201 H         1 UNK         0.3000 
    185 H185        4.6230  -12.2646  -45.2988 H         1 UNK         0.0600 
    186 H186        3.4202  -13.9392  -46.7246 H         1 UNK         0.0600 
    187 H187        2.9882  -14.1723  -45.0504 H         1 UNK         0.0600 
    188 H188        1.8640  -13.3614  -46.1273 H         1 UNK         0.0600 
    189 H189        3.0159  -10.2496  -46.3010 H         1 UNK         0.3000 
    190 H190       -2.0888  -19.9603  -46.4656 H         1 UNK         0.3000 
    191 H191       -4.8724  -20.1547  -45.8374 H         1 UNK         0.0600 
    192 H192       -3.2763  -19.7769  -44.0504 H         1 UNK         0.0600 
    193 H193       -4.0041  -21.3450  -43.7740 H         1 UNK         0.0600 
    194 H194       -2.3781  -21.2445  -44.4374 H         1 UNK         0.0600 
    195 H195       -2.4412  -22.5841  -46.8672 H         1 UNK         0.3000 
    196 H196       -4.1367  -24.8529  -46.7170 H         1 UNK         0.0600 
    197 H197       -2.4667  -25.9677  -48.0677 H         1 UNK         0.0600 
    198 H198       -1.6103  -24.8905  -46.9759 H         1 UNK         0.0600 
    199 H199       -1.8218  -24.4487  -48.6722 H         1 UNK         0.0600 
    200 H200       -3.5815  -22.5324  -49.4165 H         1 UNK         0.3000 
    201 H201       -5.3337  -23.7850  -51.2795 H         1 UNK         0.0600 
    202 H202       -3.6004  -22.1737  -51.9520 H         1 UNK         0.0600 
    203 H203       -4.4057  -20.8749  -51.0748 H         1 UNK         0.0600 
    204 H204       -5.1777  -21.6064  -52.4786 H         1 UNK         0.0600 
    205 H205       -5.9295  -21.2398  -48.8257 H         1 UNK         0.3000 
    206 H206       -8.6652  -20.7923  -49.4468 H         1 UNK         0.0600 
    207 H207       -7.2988  -19.2664  -48.0328 H         1 UNK         0.0600 
    208 H208       -8.7528  -19.7712  -47.1840 H         1 UNK         0.0600 
    209 H209       -7.2036  -20.4911  -46.7697 H         1 UNK         0.0600 
    210 H210       -7.1021  -23.1888  -47.3139 H         1 UNK         0.3000 
    211 H211       -9.5618  -24.4297  -46.4170 H         1 UNK         0.0600 
    212 H212       -6.6530  -25.4010  -46.3618 H         1 UNK         0.0600 
    213 H213       -7.9868  -26.1042  -45.4564 H         1 UNK         0.0600 
    214 H214       -7.4477  -24.4720  -45.0924 H         1 UNK         0.0600 
    215 H215       -7.8611  -24.5707  -49.3655 H         1 UNK         0.3000 
    216 H216       -7.8178  -25.7864  -51.1915 H         1 UNK         0.0600 
    217 H217      -10.3174  -25.6282  -51.1095 H         1 UNK         0.0600 
    218 H218      -10.3859  -27.1638  -50.2449 H         1 UNK         0.0600 
    219 H219       -9.7728  -27.1031  -51.8909 H         1 UNK         0.0600 
    220 H220       -6.2580  -26.5986  -49.0140 H         1 UNK         0.3000 
    221 H221       -6.2107  -29.5619  -48.9567 H         1 UNK         0.0600 
    222 H222       -4.6180  -27.4453  -47.4102 H         1 UNK         0.0600 
    223 H223       -6.0467  -28.2915  -46.8195 H         1 UNK         0.0600 
    224 H224       -4.5636  -29.1819  -47.1298 H         1 UNK         0.0600 
    225 H225       -4.5322  -26.8448  -50.4655 H         1 UNK         0.3000 
    226 H226       -2.8699  -28.5577  -52.0603 H         1 UNK         0.0600 
    227 H227       -1.4752  -28.4039  -49.9139 H         1 UNK         0.0600 
    228 H228       -0.6848  -27.6682  -51.2938 H         1 UNK         0.0600 
    229 H229       -1.4622  -26.6502  -50.0946 H         1 UNK         0.0600 
    230 H230       -1.3487  -26.9947  -53.3871 H         1 UNK         0.3000 
    231 H231       -2.9667  -24.8355  -54.5200 H         1 UNK         0.0600 
    232 H232       -1.0618  -24.7003  -56.1323 H         1 UNK         0.0600 
    233 H233       -1.6394  -26.3532  -55.9908 H         1 UNK         0.0600 
    234 H234       -0.1497  -25.8648  -55.1815 H         1 UNK         0.0600 
    235 H235       -2.2070  -22.6531  -54.7063 H         1 UNK         0.3000 
    236 H236       -0.9860  -21.5560  -52.3160 H         1 UNK         0.0600 
    237 H237       -1.4849  -19.3870  -53.4264 H         1 UNK         0.0600 
    238 H238       -1.8761  -20.2146  -54.9296 H         1 UNK         0.0600 
    239 H239       -2.8892  -20.4313  -53.5059 H         1 UNK         0.0600 
    240 H240        0.8004  -20.0128  -52.3774 H         1 UNK         0.3000 
    241 H241        3.1047  -20.9068  -53.8511 H         1 UNK         0.0600 
    242 H242        0.6387  -18.7841  -54.9363 H         1 UNK         0.3800 
    243 H243        1.6242  -17.9446  -56.1023 H         1 UNK         0.3800 
    244 H244        3.7125  -20.2922  -51.7235 H         1 UNK         0.0800 
    245 H245        4.2091  -18.8806  -52.5898 H         1 UNK         0.0800 
    246 H246        3.2912  -16.3705  -51.8364 H         1 UNK         0.0800 
    247 H247        2.0929  -16.9149  -52.9901 H         1 UNK         0.0800 
@<TRIPOS>BOND
     1    1    2 1    
     2    1  127 1    
     3    1  128 1    
     4    1  129 1    
     5    2    3 2    
     6    2    4 am   BACKBONE|DICT|INTERRES
     7    4    5 1    
     8    4  130 1    
     9    5    6 1    
    10    5   65 1    
    11    5  131 1    
    12    6    7 1    
    13    6  132 1    
    14    6  133 1    
    15    7    8 1    
    16    8    9 1    
    17    8  134 1    
    18    8  135 1    
    19    9   10 ar   
    20    9   14 ar   
    21   10   11 ar   
    22   10  136 1    
    23   11   12 ar   
    24   11  126 1    
    25   12   13 ar   
    26   12  137 1    
    27   13   14 ar   
    28   13   15 1    
    29   14  138 1    
    30   15   16 1    
    31   15  139 1    
    32   15  140 1    
    33   16   17 1    
    34   17   18 1    
    35   17  141 1    
    36   17  142 1    
    37   18   19 1    
    38   18   67 1    
    39   18  143 1    
    40   19   20 am   BACKBONE|DICT|INTERRES
    41   19  144 1    
    42   20   21 2    
    43   20   22 1    
    44   22   23 1    
    45   22   24 1    
    46   22  145 1    
    47   23  146 1    
    48   23  147 1    
    49   23  148 1    
    50   24   25 am   BACKBONE|DICT|INTERRES
    51   24  149 1    
    52   25   26 2    
    53   25   27 1    
    54   27   28 1    
    55   27   29 1    
    56   27  150 1    
    57   28  151 1    
    58   28  152 1    
    59   28  153 1    
    60   29   30 am   BACKBONE|DICT|INTERRES
    61   29  154 1    
    62   30   31 2    
    63   30   32 1    
    64   32   33 1    
    65   32   34 1    
    66   32  155 1    
    67   33  156 1    
    68   33  157 1    
    69   33  158 1    
    70   34   35 am   BACKBONE|DICT|INTERRES
    71   34  159 1    
    72   35   36 2    
    73   35   37 1    
    74   37   38 1    
    75   37   39 1    
    76   37  160 1    
    77   38  161 1    
    78   38  162 1    
    79   38  163 1    
    80   39   40 am   BACKBONE|DICT|INTERRES
    81   39  164 1    
    82   40   41 2    
    83   40   42 1    
    84   42   43 1    
    85   42   44 1    
    86   42  165 1    
    87   43  166 1    
    88   43  167 1    
    89   43  168 1    
    90   44   45 am   BACKBONE|DICT|INTERRES
    91   44  169 1    
    92   45   46 2    
    93   45   47 1    
    94   47   48 1    
    95   47   49 1    
    96   47  170 1    
    97   48  171 1    
    98   48  172 1    
    99   48  173 1    
   100   49   50 am   BACKBONE|DICT|INTERRES
   101   49  174 1    
   102   50   51 2    
   103   50   52 1    
   104   52   53 1    
   105   52   54 1    
   106   52  175 1    
   107   53  176 1    
   108   53  177 1    
   109   53  178 1    
   110   54   55 am   BACKBONE|DICT|INTERRES
   111   54  179 1    
   112   55   56 2    
   113   55   57 1    
   114   57   58 1    
   115   57   59 1    
   116   57  180 1    
   117   58  181 1    
   118   58  182 1    
   119   58  183 1    
   120   59   60 am   BACKBONE|DICT|INTERRES
   121   59  184 1    
   122   60   61 2    
   123   60   62 1    
   124   62   63 1    
   125   62   64 1    
   126   62  185 1    
   127   63  186 1    
   128   63  187 1    
   129   63  188 1    
   130   64   65 am   BACKBONE|DICT|INTERRES
   131   64  189 1    
   132   65   66 2    
   133   67   68 2    
   134   67   69 am   BACKBONE|DICT|INTERRES
   135   69   70 1    
   136   69  190 1    
   137   70   71 1    
   138   70   72 1    
   139   70  191 1    
   140   71  192 1    
   141   71  193 1    
   142   71  194 1    
   143   72   73 2    
   144   72   74 am   BACKBONE|DICT|INTERRES
   145   74   75 1    
   146   74  195 1    
   147   75   76 1    
   148   75   77 1    
   149   75  196 1    
   150   76  197 1    
   151   76  198 1    
   152   76  199 1    
   153   77   78 2    
   154   77   79 am   BACKBONE|DICT|INTERRES
   155   79   80 1    
   156   79  200 1    
   157   80   81 1    
   158   80   82 1    
   159   80  201 1    
   160   81  202 1    
   161   81  203 1    
   162   81  204 1    
   163   82   83 2    
   164   82   84 am   BACKBONE|DICT|INTERRES
   165   84   85 1    
   166   84  205 1    
   167   85   86 1    
   168   85   87 1    
   169   85  206 1    
   170   86  207 1    
   171   86  208 1    
   172   86  209 1    
   173   87   88 2    
   174   87   89 am   BACKBONE|DICT|INTERRES
   175   89   90 1    
   176   89  210 1    
   177   90   91 1    
   178   90   92 1    
   179   90  211 1    
   180   91  212 1    
   181   91  213 1    
   182   91  214 1    
   183   92   93 2    
   184   92   94 am   BACKBONE|DICT|INTERRES
   185   94   95 1    
   186   94  215 1    
   187   95   96 1    
   188   95   97 1    
   189   95  216 1    
   190   96  217 1    
   191   96  218 1    
   192   96  219 1    
   193   97   98 2    
   194   97   99 am   BACKBONE|DICT|INTERRES
   195   99  100 1    
   196   99  220 1    
   197  100  101 1    
   198  100  102 1    
   199  100  221 1    
   200  101  222 1    
   201  101  223 1    
   202  101  224 1    
   203  102  103 2    
   204  102  104 am   BACKBONE|DICT|INTERRES
   205  104  105 1    
   206  104  225 1    
   207  105  106 1    
   208  105  107 1    
   209  105  226 1    
   210  106  227 1    
   211  106  228 1    
   212  106  229 1    
   213  107  108 2    
   214  107  109 am   BACKBONE|DICT|INTERRES
   215  109  110 1    
   216  109  230 1    
   217  110  111 1    
   218  110  112 1    
   219  110  231 1    
   220  111  232 1    
   221  111  233 1    
   222  111  234 1    
   223  112  113 2    
   224  112  114 am   BACKBONE|DICT|INTERRES
   225  114  115 1    
   226  114  235 1    
   227  115  116 1    
   228  115  117 1    
   229  115  236 1    
   230  116  237 1    
   231  116  238 1    
   232  116  239 1    
   233  117  118 2    
   234  117  119 am   BACKBONE|DICT|INTERRES
   235  119  120 1    
   236  119  240 1    
   237  120  121 1    
   238  120  124 1    
   239  120  241 1    
   240  121  122 am   BACKBONE|DICT|INTERRES
   241  121  123 2    
   242  122  242 1    
   243  122  243 1    
   244  124  125 1    
   245  124  244 1    
   246  124  245 1    
   247  125  126 1    
   248  126  246 1    
   249  126  247 1    
@<TRIPOS>SUBSTRUCTURE
     1 UNK         1 GROUP             0       ****    0 ROOT    
