@<TRIPOS>MOLECULE
3R540
247   249    1
SMALL
USER_CHARGES


@<TRIPOS>ATOM
      1 CA          2.5864  -11.4210  -45.3098 C.3       0 UNK        -0.1800 
      2 C           1.6965  -12.0854  -46.3500 C.2       0 UNK         0.5000 
      3 O           0.7774  -12.8193  -45.9918 O.2       0 UNK        -0.5000 
      4 N           1.9596  -11.8144  -47.6356 N.am      1 UNK        -0.5000 
      5 CA          1.2621  -12.3676  -48.8076 C.3       1 UNK         0.1400 
      6 C6          2.0276  -11.9906  -50.1035 C.3       23 UNK        -0.0398 
      7 S7          1.5676  -12.9477  -51.5898 S.3       23 UNK        -0.2404 
      8 C8          2.5524  -14.4671  -51.4002 C.3       23 UNK        -0.0205 
      9 C9          1.6507  -15.6768  -51.2131 C.ar      23 UNK        -0.0193 
     10 C10         1.1793  -16.3815  -52.3250 C.ar      23 UNK        -0.1150 
     11 C11         0.3615  -17.5043  -52.1603 C.ar      23 UNK        -0.0193 
     12 C12        -0.0160  -17.8954  -50.8730 C.ar      23 UNK        -0.1150 
     13 C13         0.4499  -17.1994  -49.7560 C.ar      23 UNK        -0.0193 
     14 C14         1.2917  -16.0995  -49.9308 C.ar      23 UNK        -0.1150 
     15 C15         0.0570  -17.6483  -48.3616 C.3       23 UNK        -0.0205 
     16 S16         1.1866  -18.9426  -47.7720 S.3       23 UNK        -0.2404 
     17 C17         0.4522  -19.3098  -46.1506 C.3       23 UNK        -0.0398 
     18 CA         -0.6684  -20.3667  -46.2531 C.3       11 UNK         0.1400 
     19 N          -0.2175  -21.6355  -46.8404 N.am      11 UNK        -0.5000 
     20 C          -1.0170  -22.6469  -47.2074 C.2       10 UNK         0.5000 
     21 O          -2.2385  -22.6303  -47.0660 O.2       10 UNK        -0.5000 
     22 CA         -0.3468  -23.8899  -47.8126 C.3       10 UNK         0.1400 
     23 CB         -0.0728  -23.6726  -49.3060 C.3       10 UNK        -0.1800 
     24 N           0.8951  -24.2292  -47.1187 N.am      10 UNK        -0.5000 
     25 C           0.9340  -24.7872  -45.9001 C.2       9 UNK         0.5000 
     26 O          -0.0676  -25.1449  -45.2797 O.2       9 UNK        -0.5000 
     27 CA          2.3224  -24.9337  -45.2467 C.3       9 UNK         0.1400 
     28 CB          2.9825  -26.2538  -45.6723 C.3       9 UNK        -0.1800 
     29 N           3.2372  -23.8207  -45.5279 N.am      9 UNK        -0.5000 
     30 C           2.9975  -22.5397  -45.2180 C.2       8 UNK         0.5000 
     31 O           1.9386  -22.1487  -44.7187 O.2       8 UNK        -0.5000 
     32 CA          4.1094  -21.5268  -45.5593 C.3       8 UNK         0.1400 
     33 CB          4.1552  -21.2594  -47.0714 C.3       8 UNK        -0.1800 
     34 N           3.9000  -20.2618  -44.8516 N.am      8 UNK        -0.5000 
     35 C           4.0965  -20.1036  -43.5361 C.2       7 UNK         0.5000 
     36 O           4.6467  -20.9538  -42.8328 O.2       7 UNK        -0.5000 
     37 CA          3.5500  -18.8188  -42.8788 C.3       7 UNK         0.1400 
     38 CB          4.4414  -18.3256  -41.7196 C.3       7 UNK        -0.1800 
     39 N           3.2361  -17.7112  -43.7891 N.am      7 UNK        -0.5000 
     40 C           4.0945  -16.9895  -44.5285 C.2       6 UNK         0.5000 
     41 O           5.2702  -17.3023  -44.7169 O.2       6 UNK        -0.5000 
     42 CA          3.5643  -15.6619  -45.1195 C.3       6 UNK         0.1400 
     43 CB          3.1677  -15.8318  -46.5916 C.3       6 UNK        -0.1800 
     44 N           2.4253  -15.1080  -44.3810 N.am      6 UNK        -0.5000 
     45 C           2.4622  -14.7041  -43.1031 C.2       5 UNK         0.5000 
     46 O           3.5033  -14.6080  -42.4525 O.2       5 UNK        -0.5000 
     47 CA          1.1198  -14.3867  -42.4129 C.3       5 UNK         0.1400 
     48 CB          0.9459  -12.8713  -42.2270 C.3       5 UNK        -0.1800 
     49 N          -0.0817  -14.9133  -43.0681 N.am      5 UNK        -0.5000 
     50 C          -0.3673  -16.1923  -43.3570 C.2       4 UNK         0.5000 
     51 O           0.4233  -17.1235  -43.1994 O.2       4 UNK        -0.5000 
     52 CA         -1.7796  -16.4826  -43.9100 C.3       4 UNK         0.1400 
     53 CB         -2.6148  -17.2314  -42.8596 C.3       4 UNK        -0.1800 
     54 N          -2.5053  -15.2721  -44.3055 N.am      4 UNK        -0.5000 
     55 C          -2.2703  -14.5600  -45.4155 C.2       3 UNK         0.5000 
     56 O          -1.4723  -14.9101  -46.2865 O.2       3 UNK        -0.5000 
     57 CA         -3.0526  -13.2411  -45.5606 C.3       3 UNK         0.1400 
     58 CB         -3.3189  -12.5378  -44.2108 C.3       3 UNK        -0.1800 
     59 N          -2.3385  -12.3261  -46.4471 N.am      3 UNK        -0.5000 
     60 C          -2.9201  -11.3840  -47.2018 C.2       2 UNK         0.5000 
     61 O          -4.1392  -11.2087  -47.2408 O.2       2 UNK        -0.5000 
     62 CA         -2.0129  -10.4584  -48.0424 C.3       2 UNK         0.1400 
     63 CB         -1.9950   -9.0411  -47.4471 C.3       2 UNK        -0.1800 
     64 N          -0.6318  -10.9227  -48.1708 N.am      2 UNK        -0.5000 
     65 C          -0.2395  -11.9919  -48.8762 C.2       1 UNK         0.5000 
     66 O          -1.0172  -12.6816  -49.5359 O.2       1 UNK        -0.5000 
     67 C          -1.3454  -20.5683  -44.8876 C.2       11 UNK         0.5000 
     68 O          -2.3628  -19.9306  -44.6216 O.2       11 UNK        -0.5000 
     69 N          -0.8270  -21.5128  -44.0918 N.am      12 UNK        -0.5000 
     70 CA         -1.4194  -21.9801  -42.8358 C.3       12 UNK         0.1400 
     71 CB         -0.4487  -22.9695  -42.1740 C.3       12 UNK        -0.1800 
     72 C          -2.8180  -22.6172  -43.0025 C.2       12 UNK         0.5000 
     73 O          -3.5825  -22.6541  -42.0383 O.2       12 UNK        -0.5000 
     74 N          -3.1353  -23.0748  -44.2209 N.am      13 UNK        -0.5000 
     75 CA         -4.4352  -23.5962  -44.6388 C.3       13 UNK         0.1400 
     76 CB         -4.2116  -24.9392  -45.3575 C.3       13 UNK        -0.1800 
     77 C          -5.1915  -22.5863  -45.5305 C.2       13 UNK         0.5000 
     78 O          -6.0671  -22.9951  -46.2934 O.2       13 UNK        -0.5000 
     79 N          -4.8396  -21.2929  -45.4423 N.am      14 UNK        -0.5000 
     80 CA         -5.4113  -20.1616  -46.1830 C.3       14 UNK         0.1400 
     81 CB         -6.8817  -19.9273  -45.7769 C.3       14 UNK        -0.1800 
     82 C          -5.2197  -20.2943  -47.7075 C.2       14 UNK         0.5000 
     83 O          -6.1807  -20.1713  -48.4674 O.2       14 UNK        -0.5000 
     84 N          -3.9759  -20.5861  -48.1139 N.am      15 UNK        -0.5000 
     85 CA         -3.5340  -20.8932  -49.4811 C.3       15 UNK         0.1400 
     86 CB         -3.7027  -19.6754  -50.4137 C.3       15 UNK        -0.1800 
     87 C          -4.2085  -22.1739  -50.0120 C.2       15 UNK         0.5000 
     88 O          -4.6850  -22.2005  -51.1451 O.2       15 UNK        -0.5000 
     89 N          -4.2786  -23.1951  -49.1434 N.am      16 UNK        -0.5000 
     90 CA         -4.9836  -24.4695  -49.3230 C.3       16 UNK         0.1400 
     91 CB         -4.2270  -25.3670  -50.3215 C.3       16 UNK        -0.1800 
     92 C          -6.4710  -24.2691  -49.6900 C.2       16 UNK         0.5000 
     93 O          -6.9420  -24.8011  -50.6965 O.2       16 UNK        -0.5000 
     94 N          -7.1654  -23.4765  -48.8613 N.am      17 UNK        -0.5000 
     95 CA         -8.5523  -23.0277  -49.0059 C.3       17 UNK         0.1400 
     96 CB         -9.5315  -24.2130  -48.8721 C.3       17 UNK        -0.1800 
     97 C          -8.7719  -22.1905  -50.2843 C.2       17 UNK         0.5000 
     98 O          -9.6552  -22.4992  -51.0871 O.2       17 UNK        -0.5000 
     99 N          -7.9600  -21.1333  -50.4299 N.am      18 UNK        -0.5000 
    100 CA        -7.9726  -20.1362  -51.5051 C.3       18 UNK         0.1400 
    101 CB        -9.2521  -19.2766  -51.4309 C.3       18 UNK        -0.1800 
    102 C         -7.7199  -20.7311  -52.9069 C.2       18 UNK         0.5000 
    103 O         -8.3759  -20.3415  -53.8759 O.2       18 UNK        -0.5000 
    104 N         -6.7621  -21.6594  -52.9889 N.am      19 UNK        -0.5000 
    105 CA        -6.2560  -22.2440  -54.2257 C.3       19 UNK         0.1400 
    106 CB        -5.9487  -23.7305  -53.9654 C.3       19 UNK        -0.1800 
    107 C         -5.0031  -21.4815  -54.7034 C.2       19 UNK         0.5000 
    108 O         -4.6180  -20.4655  -54.1193 O.2       19 UNK        -0.5000 
    109 N         -4.3736  -21.9976  -55.7657 N.am      20 UNK        -0.5000 
    110 CA        -3.1267  -21.4781  -56.3357 C.3       20 UNK         0.1400 
    111 CB        -3.0501  -21.9135  -57.8089 C.3       20 UNK        -0.1800 
    112 C         -1.8621  -21.9229  -55.5665 C.2       20 UNK         0.5000 
    113 O         -0.7591  -21.5360  -55.9533 O.2       20 UNK        -0.5000 
    114 N         -2.0256  -22.7501  -54.5247 N.am      21 UNK        -0.5000 
    115 CA        -0.9515  -23.2659  -53.6805 C.3       21 UNK         0.1400 
    116 CB        -1.5000  -24.4185  -52.8254 C.3       21 UNK        -0.1800 
    117 C         -0.3583  -22.1605  -52.7893 C.2       21 UNK         0.5000 
    118 O         -1.0628  -21.6346  -51.9256 O.2       21 UNK        -0.5000 
    119 N          0.9223  -21.8464  -53.0089 N.am      22 UNK        -0.5000 
    120 CA         1.6872  -20.8503  -52.2386 C.3       22 UNK         0.1400 
    121 C          2.7347  -21.4860  -51.2771 C.2       22 UNK         0.5000 
    122 N          2.8436  -22.8066  -51.1848 N.am      22 UNK        -0.7600 
    123 O          3.4638  -20.7714  -50.5967 O.2       22 UNK        -0.5000 
    124 C124        2.3545  -19.7877  -53.1548 C.3       23 UNK        -0.0398 
    125 S125        1.2583  -18.9691  -54.3721 S.3       23 UNK        -0.2404 
    126 C126       -0.1125  -18.3051  -53.3652 C.3       23 UNK        -0.0205 
    127 H127        3.3548  -10.7999  -45.7704 H         1 UNK         0.0600 
    128 H128        3.0829  -12.1765  -44.7018 H         1 UNK         0.0600 
    129 H129        1.9889  -10.7892  -44.6530 H         1 UNK         0.0600 
    130 H130        2.7227  -11.1867  -47.8463 H         1 UNK         0.3000 
    131 H131        1.2976  -13.4499  -48.6940 H         1 UNK         0.0600 
    132 H132        1.8871  -10.9317  -50.3274 H         1 UNK         0.0800 
    133 H133        3.1013  -12.1131  -49.9538 H         1 UNK         0.0800 
    134 H134        3.2441  -14.3821  -50.5610 H         1 UNK         0.0800 
    135 H135        3.1711  -14.5999  -52.2890 H         1 UNK         0.0800 
    136 H136        1.4619  -16.0671  -53.3199 H         1 UNK         0.1150 
    137 H137       -0.6547  -18.7572  -50.7359 H         1 UNK         0.1150 
    138 H138        1.6678  -15.5781  -49.0648 H         1 UNK         0.1150 
    139 H139        0.0686  -16.8010  -47.6740 H         1 UNK         0.0800 
    140 H140       -0.9665  -18.0255  -48.3703 H         1 UNK         0.0800 
    141 H141        0.0786  -18.3802  -45.7205 H         1 UNK         0.0800 
    142 H142        1.2417  -19.6520  -45.4822 H         1 UNK         0.0800 
    143 H143       -1.4326  -19.9653  -46.9205 H         1 UNK         0.0600 
    144 H144        0.7789  -21.7396  -46.9550 H         1 UNK         0.3000 
    145 H145       -1.0419  -24.7271  -47.7161 H         1 UNK         0.0600 
    146 H146        0.5705  -22.8092  -49.4771 H         1 UNK         0.0600 
    147 H147        0.4029  -24.5446  -49.7547 H         1 UNK         0.0600 
    148 H148       -1.0043  -23.4970  -49.8458 H         1 UNK         0.0600 
    149 H149        1.7632  -23.9743  -47.5655 H         1 UNK         0.3000 
    150 H150        2.1688  -24.9637  -44.1659 H         1 UNK         0.0600 
    151 H151        2.3326  -27.1030  -45.4563 H         1 UNK         0.0600 
    152 H152        3.9175  -26.4186  -45.1364 H         1 UNK         0.0600 
    153 H153        3.1995  -26.2699  -46.7410 H         1 UNK         0.0600 
    154 H154        4.1233  -24.0651  -45.9461 H         1 UNK         0.3000 
    155 H155        5.0695  -21.9456  -45.2506 H         1 UNK         0.0600 
    156 H156        4.4517  -22.1543  -47.6194 H         1 UNK         0.0600 
    157 H157        4.8765  -20.4795  -47.3161 H         1 UNK         0.0600 
    158 H158        3.1859  -20.9522  -47.4603 H         1 UNK         0.0600 
    159 H159        3.4458  -19.5198  -45.3613 H         1 UNK         0.3000 
    160 H160        2.5921  -19.1083  -42.4441 H         1 UNK         0.0600 
    161 H161        4.0168  -17.4401  -41.2460 H         1 UNK         0.0600 
    162 H162        5.4455  -18.0736  -42.0617 H         1 UNK         0.0600 
    163 H163        4.5411  -19.0874  -40.9456 H         1 UNK         0.0600 
    164 H164        2.2807  -17.3717  -43.7131 H         1 UNK         0.3000 
    165 H165        4.3795  -14.9373  -45.0687 H         1 UNK         0.0600 
    166 H166        2.2941  -16.4731  -46.6922 H         1 UNK         0.0600 
    167 H167        2.9324  -14.8706  -47.0482 H         1 UNK         0.0600 
    168 H168        3.9757  -16.2791  -47.1718 H         1 UNK         0.0600 
    169 H169        1.5322  -15.0994  -44.8539 H         1 UNK         0.3000 
    170 H170        1.1685  -14.8446  -41.4231 H         1 UNK         0.0600 
    171 H171        0.7756  -12.3691  -43.1790 H         1 UNK         0.0600 
    172 H172        0.0990  -12.6494  -41.5775 H         1 UNK         0.0600 
    173 H173        1.8291  -12.4229  -41.7699 H         1 UNK         0.0600 
    174 H174       -0.7956  -14.2314  -43.2725 H         1 UNK         0.3000 
    175 H175       -1.6710  -17.1264  -44.7841 H         1 UNK         0.0600 
    176 H176       -2.7919  -16.6212  -41.9732 H         1 UNK         0.0600 
    177 H177       -3.5822  -17.5283  -43.2653 H         1 UNK         0.0600 
    178 H178       -2.1109  -18.1425  -42.5339 H         1 UNK         0.0600 
    179 H179       -3.1910  -14.9294  -43.6479 H         1 UNK         0.3000 
    180 H180       -4.0100  -13.5044  -46.0147 H         1 UNK         0.0600 
    181 H181       -2.3900  -12.3239  -43.6804 H         1 UNK         0.0600 
    182 H182       -3.9491  -13.1410  -43.5567 H         1 UNK         0.0600 
    183 H183       -3.8400  -11.5911  -44.3550 H         1 UNK         0.0600 
    184 H184       -1.3352  -12.4721  -46.5023 H         1 UNK         0.3000 
    185 H185       -2.4468  -10.4025  -49.0429 H         1 UNK         0.0600 
    186 H186       -1.4188   -8.3574  -48.0708 H         1 UNK         0.0600 
    187 H187       -3.0044   -8.6347  -47.3707 H         1 UNK         0.0600 
    188 H188       -1.5611   -9.0317  -46.4463 H         1 UNK         0.0600 
    189 H189        0.0651  -10.4224  -47.6390 H         1 UNK         0.3000 
    190 H190        0.0463  -21.9516  -44.3734 H         1 UNK         0.3000 
    191 H191       -1.5307  -21.1145  -42.1797 H         1 UNK         0.0600 
    192 H192       -0.2884  -23.8502  -42.7970 H         1 UNK         0.0600 
    193 H193        0.5224  -22.5079  -41.9926 H         1 UNK         0.0600 
    194 H194       -0.8321  -23.3114  -41.2119 H         1 UNK         0.0600 
    195 H195       -2.4533  -22.9811  -44.9633 H         1 UNK         0.3000 
    196 H196       -5.0669  -23.7811  -43.7682 H         1 UNK         0.0600 
    197 H197       -3.6957  -25.6480  -44.7098 H         1 UNK         0.0600 
    198 H198       -3.6121  -24.8193  -46.2600 H         1 UNK         0.0600 
    199 H199       -5.1582  -25.3974  -45.6465 H         1 UNK         0.0600 
    200 H200       -4.0713  -21.0497  -44.8269 H         1 UNK         0.3000 
    201 H201       -4.8450  -19.2794  -45.8807 H         1 UNK         0.0600 
    202 H202       -7.2728  -19.0196  -46.2379 H         1 UNK         0.0600 
    203 H203       -6.9779  -19.8100  -44.6977 H         1 UNK         0.0600 
    204 H204       -7.5267  -20.7513  -46.0836 H         1 UNK         0.0600 
    205 H205       -3.2980  -20.7976  -47.3942 H         1 UNK         0.3000 
    206 H206       -2.4666  -21.1105  -49.4265 H         1 UNK         0.0600 
    207 H207       -4.7506  -19.4253  -50.5760 H         1 UNK         0.0600 
    208 H208       -3.2630  -19.8749  -51.3921 H         1 UNK         0.0600 
    209 H209       -3.2045  -18.7954  -50.0075 H         1 UNK         0.0600 
    210 H210       -3.8411  -23.0570  -48.2390 H         1 UNK         0.3000 
    211 H211       -4.9697  -24.9703  -48.3545 H         1 UNK         0.0600 
    212 H212       -3.1788  -25.4748  -50.0425 H         1 UNK         0.0600 
    213 H213       -4.6618  -26.3665  -50.3516 H         1 UNK         0.0600 
    214 H214       -4.2679  -24.9652  -51.3330 H         1 UNK         0.0600 
    215 H215       -6.6876  -23.1311  -48.0308 H         1 UNK         0.3000 
    216 H216       -8.7391  -22.3561  -48.1665 H         1 UNK         0.0600 
    217 H217      -10.5647  -23.8642  -48.8650 H         1 UNK         0.0600 
    218 H218       -9.4322  -24.9202  -49.6959 H         1 UNK         0.0600 
    219 H219       -9.3663  -24.7562  -47.9417 H         1 UNK         0.0600 
    220 H220       -7.2678  -20.9570  -49.7030 H         1 UNK         0.3000 
    221 H221       -7.1277  -19.4756  -51.3068 H         1 UNK         0.0600 
    222 H222      -10.1452  -19.8581  -51.6612 H         1 UNK         0.0600 
    223 H223       -9.3790  -18.8449  -50.4381 H         1 UNK         0.0600 
    224 H224       -9.2089  -18.4488  -52.1396 H         1 UNK         0.0600 
    225 H225       -6.2023  -21.8632  -52.1631 H         1 UNK         0.3000 
    226 H226       -7.0128  -22.1788  -55.0098 H         1 UNK         0.0600 
    227 H227       -6.8123  -24.2399  -53.5368 H         1 UNK         0.0600 
    228 H228       -5.6934  -24.2562  -54.8857 H         1 UNK         0.0600 
    229 H229       -5.1165  -23.8535  -53.2723 H         1 UNK         0.0600 
    230 H230       -4.7469  -22.8299  -56.1993 H         1 UNK         0.3000 
    231 H231       -3.1521  -20.3867  -56.3076 H         1 UNK         0.0600 
    232 H232       -2.1640  -21.5033  -58.2951 H         1 UNK         0.0600 
    233 H233       -3.9160  -21.5616  -58.3701 H         1 UNK         0.0600 
    234 H234       -3.0044  -22.9989  -57.9056 H         1 UNK         0.0600 
    235 H235       -2.9664  -22.9815  -54.2461 H         1 UNK         0.3000 
    236 H236       -0.1692  -23.6676  -54.3281 H         1 UNK         0.0600 
    237 H237       -1.9154  -25.2128  -53.4457 H         1 UNK         0.0600 
    238 H238       -0.7128  -24.8600  -52.2133 H         1 UNK         0.0600 
    239 H239       -2.2835  -24.0722  -52.1514 H         1 UNK         0.0600 
    240 H240        1.4217  -22.3001  -53.7600 H         1 UNK         0.3000 
    241 H241        1.0090  -20.3214  -51.5713 H         1 UNK         0.0600 
    242 H242        3.5377  -23.2001  -50.5703 H         1 UNK         0.3800 
    243 H243        2.2576  -23.4136  -51.7334 H         1 UNK         0.3800 
    244 H244        2.8146  -19.0055  -52.5481 H         1 UNK         0.0800 
    245 H245        3.1706  -20.2446  -53.7169 H         1 UNK         0.0800 
    246 H246       -0.7537  -19.1314  -53.0554 H         1 UNK         0.0800 
    247 H247       -0.7306  -17.6635  -53.9942 H         1 UNK         0.0800 
@<TRIPOS>BOND
     1    1    2 1    
     2    1  127 1    
     3    1  128 1    
     4    1  129 1    
     5    2    3 2    
     6    2    4 am   BACKBONE|DICT|INTERRES
     7    4    5 1    
     8    4  130 1    
     9    5    6 1    
    10    5   65 1    
    11    5  131 1    
    12    6    7 1    
    13    6  132 1    
    14    6  133 1    
    15    7    8 1    
    16    8    9 1    
    17    8  134 1    
    18    8  135 1    
    19    9   10 ar   
    20    9   14 ar   
    21   10   11 ar   
    22   10  136 1    
    23   11   12 ar   
    24   11  126 1    
    25   12   13 ar   
    26   12  137 1    
    27   13   14 ar   
    28   13   15 1    
    29   14  138 1    
    30   15   16 1    
    31   15  139 1    
    32   15  140 1    
    33   16   17 1    
    34   17   18 1    
    35   17  141 1    
    36   17  142 1    
    37   18   19 1    
    38   18   67 1    
    39   18  143 1    
    40   19   20 am   BACKBONE|DICT|INTERRES
    41   19  144 1    
    42   20   21 2    
    43   20   22 1    
    44   22   23 1    
    45   22   24 1    
    46   22  145 1    
    47   23  146 1    
    48   23  147 1    
    49   23  148 1    
    50   24   25 am   BACKBONE|DICT|INTERRES
    51   24  149 1    
    52   25   26 2    
    53   25   27 1    
    54   27   28 1    
    55   27   29 1    
    56   27  150 1    
    57   28  151 1    
    58   28  152 1    
    59   28  153 1    
    60   29   30 am   BACKBONE|DICT|INTERRES
    61   29  154 1    
    62   30   31 2    
    63   30   32 1    
    64   32   33 1    
    65   32   34 1    
    66   32  155 1    
    67   33  156 1    
    68   33  157 1    
    69   33  158 1    
    70   34   35 am   BACKBONE|DICT|INTERRES
    71   34  159 1    
    72   35   36 2    
    73   35   37 1    
    74   37   38 1    
    75   37   39 1    
    76   37  160 1    
    77   38  161 1    
    78   38  162 1    
    79   38  163 1    
    80   39   40 am   BACKBONE|DICT|INTERRES
    81   39  164 1    
    82   40   41 2    
    83   40   42 1    
    84   42   43 1    
    85   42   44 1    
    86   42  165 1    
    87   43  166 1    
    88   43  167 1    
    89   43  168 1    
    90   44   45 am   BACKBONE|DICT|INTERRES
    91   44  169 1    
    92   45   46 2    
    93   45   47 1    
    94   47   48 1    
    95   47   49 1    
    96   47  170 1    
    97   48  171 1    
    98   48  172 1    
    99   48  173 1    
   100   49   50 am   BACKBONE|DICT|INTERRES
   101   49  174 1    
   102   50   51 2    
   103   50   52 1    
   104   52   53 1    
   105   52   54 1    
   106   52  175 1    
   107   53  176 1    
   108   53  177 1    
   109   53  178 1    
   110   54   55 am   BACKBONE|DICT|INTERRES
   111   54  179 1    
   112   55   56 2    
   113   55   57 1    
   114   57   58 1    
   115   57   59 1    
   116   57  180 1    
   117   58  181 1    
   118   58  182 1    
   119   58  183 1    
   120   59   60 am   BACKBONE|DICT|INTERRES
   121   59  184 1    
   122   60   61 2    
   123   60   62 1    
   124   62   63 1    
   125   62   64 1    
   126   62  185 1    
   127   63  186 1    
   128   63  187 1    
   129   63  188 1    
   130   64   65 am   BACKBONE|DICT|INTERRES
   131   64  189 1    
   132   65   66 2    
   133   67   68 2    
   134   67   69 am   BACKBONE|DICT|INTERRES
   135   69   70 1    
   136   69  190 1    
   137   70   71 1    
   138   70   72 1    
   139   70  191 1    
   140   71  192 1    
   141   71  193 1    
   142   71  194 1    
   143   72   73 2    
   144   72   74 am   BACKBONE|DICT|INTERRES
   145   74   75 1    
   146   74  195 1    
   147   75   76 1    
   148   75   77 1    
   149   75  196 1    
   150   76  197 1    
   151   76  198 1    
   152   76  199 1    
   153   77   78 2    
   154   77   79 am   BACKBONE|DICT|INTERRES
   155   79   80 1    
   156   79  200 1    
   157   80   81 1    
   158   80   82 1    
   159   80  201 1    
   160   81  202 1    
   161   81  203 1    
   162   81  204 1    
   163   82   83 2    
   164   82   84 am   BACKBONE|DICT|INTERRES
   165   84   85 1    
   166   84  205 1    
   167   85   86 1    
   168   85   87 1    
   169   85  206 1    
   170   86  207 1    
   171   86  208 1    
   172   86  209 1    
   173   87   88 2    
   174   87   89 am   BACKBONE|DICT|INTERRES
   175   89   90 1    
   176   89  210 1    
   177   90   91 1    
   178   90   92 1    
   179   90  211 1    
   180   91  212 1    
   181   91  213 1    
   182   91  214 1    
   183   92   93 2    
   184   92   94 am   BACKBONE|DICT|INTERRES
   185   94   95 1    
   186   94  215 1    
   187   95   96 1    
   188   95   97 1    
   189   95  216 1    
   190   96  217 1    
   191   96  218 1    
   192   96  219 1    
   193   97   98 2    
   194   97   99 am   BACKBONE|DICT|INTERRES
   195   99  100 1    
   196   99  220 1    
   197  100  101 1    
   198  100  102 1    
   199  100  221 1    
   200  101  222 1    
   201  101  223 1    
   202  101  224 1    
   203  102  103 2    
   204  102  104 am   BACKBONE|DICT|INTERRES
   205  104  105 1    
   206  104  225 1    
   207  105  106 1    
   208  105  107 1    
   209  105  226 1    
   210  106  227 1    
   211  106  228 1    
   212  106  229 1    
   213  107  108 2    
   214  107  109 am   BACKBONE|DICT|INTERRES
   215  109  110 1    
   216  109  230 1    
   217  110  111 1    
   218  110  112 1    
   219  110  231 1    
   220  111  232 1    
   221  111  233 1    
   222  111  234 1    
   223  112  113 2    
   224  112  114 am   BACKBONE|DICT|INTERRES
   225  114  115 1    
   226  114  235 1    
   227  115  116 1    
   228  115  117 1    
   229  115  236 1    
   230  116  237 1    
   231  116  238 1    
   232  116  239 1    
   233  117  118 2    
   234  117  119 am   BACKBONE|DICT|INTERRES
   235  119  120 1    
   236  119  240 1    
   237  120  121 1    
   238  120  124 1    
   239  120  241 1    
   240  121  122 am   BACKBONE|DICT|INTERRES
   241  121  123 2    
   242  122  242 1    
   243  122  243 1    
   244  124  125 1    
   245  124  244 1    
   246  124  245 1    
   247  125  126 1    
   248  126  246 1    
   249  126  247 1    
@<TRIPOS>SUBSTRUCTURE
     1 UNK         1 GROUP             0       ****    0 ROOT    
