@<TRIPOS>MOLECULE
3R540
247   249    1
SMALL
USER_CHARGES


@<TRIPOS>ATOM
      1 CA         -2.2368  -13.2191  -49.0739 C.3       0 UNK        -0.1800 
      2 C          -0.7658  -12.8384  -49.0032 C.2       0 UNK         0.5000 
      3 O          -0.4405  -11.7211  -48.6011 O.2       0 UNK        -0.5000 
      4 N           0.1153  -13.7688  -49.3910 N.am      1 UNK        -0.5000 
      5 CA          1.5752  -13.6287  -49.4497 C.3       1 UNK         0.1400 
      6 C6          2.2357  -14.8296  -50.1745 C.3       23 UNK        -0.0398 
      7 S7          1.6433  -15.0018  -51.8928 S.3       23 UNK        -0.2404 
      8 C8          1.8306  -16.7969  -52.1758 C.3       23 UNK        -0.0205 
      9 C9          0.9013  -17.7117  -51.3745 C.ar      23 UNK        -0.0193 
     10 C10        -0.2780  -17.2587  -50.7686 C.ar      23 UNK        -0.1150 
     11 C11        -1.1050  -18.1379  -50.0633 C.ar      23 UNK        -0.0193 
     12 C12        -0.7517  -19.4864  -49.9688 C.ar      23 UNK        -0.1150 
     13 C13         0.4212  -19.9552  -50.5669 C.ar      23 UNK        -0.0193 
     14 C14         1.2365  -19.0647  -51.2693 C.ar      23 UNK        -0.1150 
     15 C15         0.8009  -21.4265  -50.4760 C.3       23 UNK        -0.0205 
     16 S16         2.1971  -21.7282  -49.3424 S.3       23 UNK        -0.2404 
     17 C17         1.5187  -21.2171  -47.7274 C.3       23 UNK        -0.0398 
     18 CA          0.9301  -22.3923  -46.9129 C.3       11 UNK         0.1400 
     19 N           0.8507  -22.0725  -45.4876 N.am      11 UNK        -0.5000 
     20 C           0.4842  -22.9282  -44.5234 C.2       10 UNK         0.5000 
     21 O           0.2547  -24.1208  -44.7140 O.2       10 UNK        -0.5000 
     22 CA          0.2810  -22.3375  -43.1198 C.3       10 UNK         0.1400 
     23 CB          1.5694  -22.4247  -42.2884 C.3       10 UNK        -0.1800 
     24 N          -0.1941  -20.9539  -43.1853 N.am      10 UNK        -0.5000 
     25 C          -1.4467  -20.6185  -43.5213 C.2       9 UNK         0.5000 
     26 O          -2.3188  -21.4401  -43.8068 O.2       9 UNK        -0.5000 
     27 CA         -1.7720  -19.1167  -43.5639 C.3       9 UNK         0.1400 
     28 CB         -1.8292  -18.5250  -42.1468 C.3       9 UNK        -0.1800 
     29 N          -0.8471  -18.3279  -44.3786 N.am      9 UNK        -0.5000 
     30 C          -0.7221  -18.4325  -45.7096 C.2       8 UNK         0.5000 
     31 O          -1.2221  -19.3378  -46.3750 O.2       8 UNK        -0.5000 
     32 CA          0.0821  -17.3306  -46.4144 C.3       8 UNK         0.1400 
     33 CB         -0.6382  -15.9776  -46.2942 C.3       8 UNK        -0.1800 
     34 N           1.4074  -17.2277  -45.8194 N.am      8 UNK        -0.5000 
     35 C           2.5396  -17.6476  -46.3991 C.2       7 UNK         0.5000 
     36 O           2.6115  -18.0515  -47.5593 O.2       7 UNK        -0.5000 
     37 CA          3.8103  -17.6660  -45.5220 C.3       7 UNK         0.1400 
     38 CB          4.6451  -16.3976  -45.7512 C.3       7 UNK        -0.1800 
     39 N           3.5499  -17.8022  -44.0862 N.am      7 UNK        -0.5000 
     40 C           2.8705  -18.8006  -43.5052 C.2       6 UNK         0.5000 
     41 O           2.4093  -19.7649  -44.1160 O.2       6 UNK        -0.5000 
     42 CA          2.5913  -18.6642  -41.9955 C.3       6 UNK         0.1400 
     43 CB          3.6858  -19.3725  -41.1841 C.3       6 UNK        -0.1800 
     44 N           2.4566  -17.2843  -41.5143 N.am      6 UNK        -0.5000 
     45 C           1.6211  -16.3511  -41.9928 C.2       5 UNK         0.5000 
     46 O           0.8869  -16.5237  -42.9720 O.2       5 UNK        -0.5000 
     47 CA          1.6561  -14.9918  -41.2653 C.3       5 UNK         0.1400 
     48 CB          2.9947  -14.2793  -41.5195 C.3       5 UNK        -0.1800 
     49 N           0.5539  -14.1142  -41.6677 N.am      5 UNK        -0.5000 
     50 C          -0.7294  -14.3274  -41.3384 C.2       4 UNK         0.5000 
     51 O          -1.0838  -15.2411  -40.5914 O.2       4 UNK        -0.5000 
     52 CA         -1.7968  -13.3757  -41.9232 C.3       4 UNK         0.1400 
     53 CB         -2.9874  -13.1972  -40.9638 C.3       4 UNK        -0.1800 
     54 N          -1.2710  -12.0445  -42.2451 N.am      4 UNK        -0.5000 
     55 C          -0.8263  -11.5829  -43.4220 C.2       3 UNK         0.5000 
     56 O          -0.4999  -10.4027  -43.5572 O.2       3 UNK        -0.5000 
     57 CA         -0.7303  -12.5341  -44.6387 C.3       3 UNK         0.1400 
     58 CB         -2.0469  -12.5428  -45.4305 C.3       3 UNK        -0.1800 
     59 N           0.3663  -12.1794  -45.5412 N.am      3 UNK        -0.5000 
     60 C           1.6627  -12.1735  -45.1969 C.2       2 UNK         0.5000 
     61 O           2.0653  -12.5150  -44.0842 O.2       2 UNK        -0.5000 
     62 CA          2.6626  -11.7077  -46.2781 C.3       2 UNK         0.1400 
     63 CB          4.1267  -12.0730  -45.9535 C.3       2 UNK        -0.1800 
     64 N           2.2875  -12.1599  -47.6222 N.am      2 UNK        -0.5000 
     65 C           2.1694  -13.4283  -48.0405 C.2       1 UNK         0.5000 
     66 O           2.4641  -14.4084  -47.3585 O.2       1 UNK        -0.5000 
     67 C          -0.4369  -22.8512  -47.4624 C.2       11 UNK         0.5000 
     68 O          -0.5192  -23.9240  -48.0607 O.2       11 UNK        -0.5000 
     69 N          -1.4920  -22.0624  -47.2081 N.am      12 UNK        -0.5000 
     70 CA         -2.8662  -22.3820  -47.5964 C.3       12 UNK         0.1400 
     71 CB         -3.7772  -21.1723  -47.3476 C.3       12 UNK        -0.1800 
     72 C          -3.4176  -23.6315  -46.8886 C.2       12 UNK         0.5000 
     73 O          -4.1408  -24.4060  -47.5132 O.2       12 UNK        -0.5000 
     74 N          -3.0458  -23.8306  -45.6157 N.am      13 UNK        -0.5000 
     75 CA         -3.3868  -25.0257  -44.8423 C.3       13 UNK         0.1400 
     76 CB         -3.0212  -24.8160  -43.3657 C.3       13 UNK        -0.1800 
     77 C          -2.7222  -26.2990  -45.4000 C.2       13 UNK         0.5000 
     78 O          -3.3906  -27.3262  -45.5154 O.2       13 UNK        -0.5000 
     79 N          -1.4355  -26.2021  -45.7652 N.am      14 UNK        -0.5000 
     80 CA         -0.6569  -27.2793  -46.3797 C.3       14 UNK         0.1400 
     81 CB          0.8312  -26.8974  -46.3909 C.3       14 UNK        -0.1800 
     82 C          -1.1409  -27.6289  -47.7985 C.2       14 UNK         0.5000 
     83 O          -1.2287  -28.8101  -48.1361 O.2       14 UNK        -0.5000 
     84 N          -1.4698  -26.6008  -48.5931 N.am      15 UNK        -0.5000 
     85 CA         -2.0524  -26.7348  -49.9306 C.3       15 UNK         0.1400 
     86 CB         -1.9536  -25.3821  -50.6536 C.3       15 UNK        -0.1800 
     87 C          -3.5139  -27.2284  -49.9119 C.2       15 UNK         0.5000 
     88 O          -3.9800  -27.7683  -50.9157 O.2       15 UNK        -0.5000 
     89 N          -4.2020  -27.0198  -48.7796 N.am      16 UNK        -0.5000 
     90 CA         -5.6172  -27.2932  -48.5091 C.3       16 UNK         0.1400 
     91 CB         -5.9144  -28.8051  -48.5826 C.3       16 UNK        -0.1800 
     92 C          -6.5734  -26.4428  -49.3741 C.2       16 UNK         0.5000 
     93 O          -7.7061  -26.8561  -49.6296 O.2       16 UNK        -0.5000 
     94 N          -6.1015  -25.2663  -49.8007 N.am      17 UNK        -0.5000 
     95 CA         -6.7650  -24.3124  -50.6815 C.3       17 UNK         0.1400 
     96 CB         -6.9606  -24.9169  -52.0877 C.3       17 UNK        -0.1800 
     97 C          -5.8917  -23.0535  -50.7721 C.2       17 UNK         0.5000 
     98 O          -4.7021  -23.1037  -50.4504 O.2       17 UNK        -0.5000 
     99 N          -6.4828  -21.9524  -51.2486 N.am      18 UNK        -0.5000 
    100 CA        -5.7751  -20.7214  -51.5931 C.3       18 UNK         0.1400 
    101 CB        -6.7926  -19.5720  -51.6974 C.3       18 UNK        -0.1800 
    102 C         -4.9976  -20.9236  -52.9070 C.2       18 UNK         0.5000 
    103 O         -5.5682  -20.7553  -53.9874 O.2       18 UNK        -0.5000 
    104 N         -3.7302  -21.3398  -52.7904 N.am      19 UNK        -0.5000 
    105 CA        -2.8171  -21.6229  -53.8989 C.3       19 UNK         0.1400 
    106 CB        -1.4736  -22.1000  -53.3290 C.3       19 UNK        -0.1800 
    107 C         -2.6259  -20.3910  -54.8016 C.2       19 UNK         0.5000 
    108 O         -2.1749  -19.3520  -54.3173 O.2       19 UNK        -0.5000 
    109 N         -3.0384  -20.5109  -56.0727 N.am      20 UNK        -0.5000 
    110 CA        -3.0983  -19.4401  -57.0801 C.3       20 UNK         0.1400 
    111 CB        -1.6764  -19.0234  -57.5107 C.3       20 UNK        -0.1800 
    112 C         -3.9634  -18.2387  -56.6311 C.2       20 UNK         0.5000 
    113 O         -3.6352  -17.0890  -56.9329 O.2       20 UNK        -0.5000 
    114 N         -5.0203  -18.5303  -55.8543 N.am      21 UNK        -0.5000 
    115 CA        -5.9093  -17.5904  -55.1597 C.3       21 UNK         0.1400 
    116 CB        -6.7444  -16.7803  -56.1727 C.3       21 UNK        -0.1800 
    117 C         -5.1782  -16.6896  -54.1374 C.2       21 UNK         0.5000 
    118 O         -5.6996  -15.6331  -53.7774 O.2       21 UNK        -0.5000 
    119 N         -3.9815  -17.1128  -53.7037 N.am      22 UNK        -0.5000 
    120 CA        -3.0231  -16.3517  -52.8893 C.3       22 UNK         0.1400 
    121 C         -2.4560  -15.0808  -53.5962 C.2       22 UNK         0.5000 
    122 N         -2.4941  -14.9890  -54.9219 N.am      22 UNK        -0.7600 
    123 O         -1.9522  -14.1718  -52.9426 O.2       22 UNK        -0.5000 
    124 C124       -3.5266  -16.0816  -51.4444 C.3       23 UNK        -0.0398 
    125 S125       -3.8031  -17.6195  -50.4977 S.3       23 UNK        -0.2404 
    126 C126       -2.3661  -17.6301  -49.3802 C.3       23 UNK        -0.0205 
    127 H127       -2.8371  -12.5511  -48.4563 H         1 UNK         0.0600 
    128 H128       -2.3963  -14.2372  -48.7206 H         1 UNK         0.0600 
    129 H129       -2.5949  -13.1426  -50.1006 H         1 UNK         0.0600 
    130 H130       -0.2293  -14.6603  -49.7088 H         1 UNK         0.3000 
    131 H131        1.7952  -12.7322  -50.0335 H         1 UNK         0.0600 
    132 H132        3.3200  -14.7097  -50.2047 H         1 UNK         0.0800 
    133 H133        2.0463  -15.7569  -49.6294 H         1 UNK         0.0800 
    134 H134        2.8689  -17.0661  -51.9752 H         1 UNK         0.0800 
    135 H135        1.6616  -16.9912  -53.2356 H         1 UNK         0.0800 
    136 H136       -0.5664  -16.2234  -50.8535 H         1 UNK         0.1150 
    137 H137       -1.3876  -20.1686  -49.4231 H         1 UNK         0.1150 
    138 H138        2.1399  -19.4312  -51.7364 H         1 UNK         0.1150 
    139 H139       -0.0575  -22.0306  -50.1811 H         1 UNK         0.0800 
    140 H140        1.0851  -21.7804  -51.4679 H         1 UNK         0.0800 
    141 H141        0.8026  -20.4042  -47.8456 H         1 UNK         0.0800 
    142 H142        2.3543  -20.7833  -47.1764 H         1 UNK         0.0800 
    143 H143        1.6150  -23.2390  -46.9973 H         1 UNK         0.0600 
    144 H144        1.0626  -21.1199  -45.2179 H         1 UNK         0.3000 
    145 H145       -0.4790  -22.9330  -42.6104 H         1 UNK         0.0600 
    146 H146        1.4523  -21.9405  -41.3189 H         1 UNK         0.0600 
    147 H147        1.8332  -23.4663  -42.1014 H         1 UNK         0.0600 
    148 H148        2.4172  -21.9681  -42.7970 H         1 UNK         0.0600 
    149 H149        0.4969  -20.2272  -43.0726 H         1 UNK         0.3000 
    150 H150       -2.7651  -19.0146  -44.0069 H         1 UNK         0.0600 
    151 H151       -2.5224  -19.0831  -41.5162 H         1 UNK         0.0600 
    152 H152       -2.1705  -17.4897  -42.1666 H         1 UNK         0.0600 
    153 H153       -0.8540  -18.5418  -41.6593 H         1 UNK         0.0600 
    154 H154       -0.3536  -17.5805  -43.8976 H         1 UNK         0.3000 
    155 H155        0.1510  -17.5866  -47.4734 H         1 UNK         0.0600 
    156 H156       -0.7193  -15.6564  -45.2561 H         1 UNK         0.0600 
    157 H157       -1.6488  -16.0304  -46.6993 H         1 UNK         0.0600 
    158 H158       -0.1065  -15.1998  -46.8402 H         1 UNK         0.0600 
    159 H159        1.4432  -16.9234  -44.8529 H         1 UNK         0.3000 
    160 H160        4.4028  -18.5291  -45.8317 H         1 UNK         0.0600 
    161 H161        4.1249  -15.5108  -45.3878 H         1 UNK         0.0600 
    162 H162        4.8465  -16.2462  -46.8127 H         1 UNK         0.0600 
    163 H163        5.6069  -16.4575  -45.2419 H         1 UNK         0.0600 
    164 H164        3.8710  -17.0466  -43.4998 H         1 UNK         0.3000 
    165 H165        1.6438  -19.1658  -41.7942 H         1 UNK         0.0600 
    166 H166        3.4366  -19.3984  -40.1231 H         1 UNK         0.0600 
    167 H167        3.8140  -20.4054  -41.5097 H         1 UNK         0.0600 
    168 H168        4.6505  -18.8749  -41.2910 H         1 UNK         0.0600 
    169 H169        3.0309  -17.0443  -40.7190 H         1 UNK         0.3000 
    170 H170        1.5643  -15.1772  -40.1930 H         1 UNK         0.0600 
    171 H171        3.8165  -14.8024  -41.0296 H         1 UNK         0.0600 
    172 H172        3.2327  -14.2328  -42.5823 H         1 UNK         0.0600 
    173 H173        2.9858  -13.2607  -41.1312 H         1 UNK         0.0600 
    174 H174        0.7947  -13.3628  -42.2999 H         1 UNK         0.3000 
    175 H175       -2.1896  -13.8590  -42.8177 H         1 UNK         0.0600 
    176 H176       -2.6743  -12.7748  -40.0082 H         1 UNK         0.0600 
    177 H177       -3.7422  -12.5365  -41.3909 H         1 UNK         0.0600 
    178 H178       -3.4777  -14.1497  -40.7582 H         1 UNK         0.0600 
    179 H179       -1.2758  -11.3979  -41.4699 H         1 UNK         0.3000 
    180 H180       -0.5212  -13.5444  -44.2889 H         1 UNK         0.0600 
    181 H181       -2.2188  -11.5902  -45.9332 H         1 UNK         0.0600 
    182 H182       -2.9043  -12.7282  -44.7830 H         1 UNK         0.0600 
    183 H183       -2.0415  -13.3274  -46.1856 H         1 UNK         0.0600 
    184 H184        0.1123  -11.8766  -46.4736 H         1 UNK         0.3000 
    185 H185        2.5958  -10.6191  -46.2951 H         1 UNK         0.0600 
    186 H186        4.8034  -11.7178  -46.7305 H         1 UNK         0.0600 
    187 H187        4.4431  -11.6170  -45.0148 H         1 UNK         0.0600 
    188 H188        4.2657  -13.1491  -45.8540 H         1 UNK         0.0600 
    189 H189        1.9479  -11.4345  -48.2400 H         1 UNK         0.3000 
    190 H190       -1.3531  -21.1729  -46.7336 H         1 UNK         0.3000 
    191 H191       -2.8620  -22.5862  -48.6679 H         1 UNK         0.0600 
    192 H192       -4.8098  -21.3993  -47.6166 H         1 UNK         0.0600 
    193 H193       -3.4690  -20.3201  -47.9506 H         1 UNK         0.0600 
    194 H194       -3.7648  -20.8670  -46.3006 H         1 UNK         0.0600 
    195 H195       -2.4971  -23.1184  -45.1484 H         1 UNK         0.3000 
    196 H196       -4.4687  -25.1617  -44.9031 H         1 UNK         0.0600 
    197 H197       -1.9462  -24.7081  -43.2271 H         1 UNK         0.0600 
    198 H198       -3.5038  -23.9265  -42.9605 H         1 UNK         0.0600 
    199 H199       -3.3435  -25.6653  -42.7621 H         1 UNK         0.0600 
    200 H200       -0.9388  -25.3330  -45.5875 H         1 UNK         0.3000 
    201 H201       -0.7720  -28.1714  -45.7607 H         1 UNK         0.0600 
    202 H202        1.2030  -26.7356  -45.3791 H         1 UNK         0.0600 
    203 H203        1.0090  -25.9850  -46.9612 H         1 UNK         0.0600 
    204 H204        1.4352  -27.6883  -46.8372 H         1 UNK         0.0600 
    205 H205       -1.2957  -25.6533  -48.2658 H         1 UNK         0.3000 
    206 H206       -1.4651  -27.4654  -50.4905 H         1 UNK         0.0600 
    207 H207       -0.9158  -25.0651  -50.7589 H         1 UNK         0.0600 
    208 H208       -2.3822  -25.4365  -51.6551 H         1 UNK         0.0600 
    209 H209       -2.4858  -24.6008  -50.1110 H         1 UNK         0.0600 
    210 H210       -3.7296  -26.5045  -48.0474 H         1 UNK         0.3000 
    211 H211       -5.7862  -26.9764  -47.4790 H         1 UNK         0.0600 
    212 H212       -6.9205  -29.0235  -48.2230 H         1 UNK         0.0600 
    213 H213       -5.2195  -29.3725  -47.9633 H         1 UNK         0.0600 
    214 H214       -5.8435  -29.1842  -49.6023 H         1 UNK         0.0600 
    215 H215       -5.1834  -24.9648  -49.4876 H         1 UNK         0.3000 
    216 H216       -7.7305  -24.0433  -50.2495 H         1 UNK         0.0600 
    217 H217       -6.0119  -25.2446  -52.5151 H         1 UNK         0.0600 
    218 H218       -7.3959  -24.1903  -52.7747 H         1 UNK         0.0600 
    219 H219       -7.6317  -25.7751  -52.0694 H         1 UNK         0.0600 
    220 H220       -7.4544  -21.9969  -51.5198 H         1 UNK         0.3000 
    221 H221       -5.0676  -20.4756  -50.7977 H         1 UNK         0.0600 
    222 H222       -7.2910  -19.4020  -50.7430 H         1 UNK         0.0600 
    223 H223       -7.5605  -19.7724  -52.4456 H         1 UNK         0.0600 
    224 H224       -6.2996  -18.6399  -51.9742 H         1 UNK         0.0600 
    225 H225       -3.3678  -21.5023  -51.8618 H         1 UNK         0.3000 
    226 H226       -3.2492  -22.4362  -54.4852 H         1 UNK         0.0600 
    227 H227       -1.0006  -21.3200  -52.7328 H         1 UNK         0.0600 
    228 H228       -1.5979  -22.9796  -52.6969 H         1 UNK         0.0600 
    229 H229       -0.7819  -22.3663  -54.1289 H         1 UNK         0.0600 
    230 H230       -3.4223  -21.3986  -56.3667 H         1 UNK         0.3000 
    231 H231       -3.5978  -19.8630  -57.9527 H         1 UNK         0.0600 
    232 H232       -1.1349  -18.5337  -56.7006 H         1 UNK         0.0600 
    233 H233       -1.7094  -18.3270  -58.3493 H         1 UNK         0.0600 
    234 H234       -1.0925  -19.8864  -57.8305 H         1 UNK         0.0600 
    235 H235       -5.1659  -19.5020  -55.5994 H         1 UNK         0.3000 
    236 H236       -6.6010  -18.2021  -54.5793 H         1 UNK         0.0600 
    237 H237       -7.5158  -16.1979  -55.6677 H         1 UNK         0.0600 
    238 H238       -6.1285  -16.0820  -56.7400 H         1 UNK         0.0600 
    239 H239       -7.2489  -17.4363  -56.8820 H         1 UNK         0.0600 
    240 H240       -3.6137  -17.9887  -54.0595 H         1 UNK         0.3000 
    241 H241       -2.1551  -17.0050  -52.8065 H         1 UNK         0.0600 
    242 H242       -2.1178  -14.1681  -55.3684 H         1 UNK         0.3800 
    243 H243       -2.8978  -15.7261  -55.4884 H         1 UNK         0.3800 
    244 H244       -4.4552  -15.5107  -51.4594 H         1 UNK         0.0800 
    245 H245       -2.8159  -15.4640  -50.8981 H         1 UNK         0.0800 
    246 H246       -2.2006  -16.6329  -48.9745 H         1 UNK         0.0800 
    247 H247       -2.5979  -18.2594  -48.5213 H         1 UNK         0.0800 
@<TRIPOS>BOND
     1    1    2 1    
     2    1  127 1    
     3    1  128 1    
     4    1  129 1    
     5    2    3 2    
     6    2    4 am   BACKBONE|DICT|INTERRES
     7    4    5 1    
     8    4  130 1    
     9    5    6 1    
    10    5   65 1    
    11    5  131 1    
    12    6    7 1    
    13    6  132 1    
    14    6  133 1    
    15    7    8 1    
    16    8    9 1    
    17    8  134 1    
    18    8  135 1    
    19    9   10 ar   
    20    9   14 ar   
    21   10   11 ar   
    22   10  136 1    
    23   11   12 ar   
    24   11  126 1    
    25   12   13 ar   
    26   12  137 1    
    27   13   14 ar   
    28   13   15 1    
    29   14  138 1    
    30   15   16 1    
    31   15  139 1    
    32   15  140 1    
    33   16   17 1    
    34   17   18 1    
    35   17  141 1    
    36   17  142 1    
    37   18   19 1    
    38   18   67 1    
    39   18  143 1    
    40   19   20 am   BACKBONE|DICT|INTERRES
    41   19  144 1    
    42   20   21 2    
    43   20   22 1    
    44   22   23 1    
    45   22   24 1    
    46   22  145 1    
    47   23  146 1    
    48   23  147 1    
    49   23  148 1    
    50   24   25 am   BACKBONE|DICT|INTERRES
    51   24  149 1    
    52   25   26 2    
    53   25   27 1    
    54   27   28 1    
    55   27   29 1    
    56   27  150 1    
    57   28  151 1    
    58   28  152 1    
    59   28  153 1    
    60   29   30 am   BACKBONE|DICT|INTERRES
    61   29  154 1    
    62   30   31 2    
    63   30   32 1    
    64   32   33 1    
    65   32   34 1    
    66   32  155 1    
    67   33  156 1    
    68   33  157 1    
    69   33  158 1    
    70   34   35 am   BACKBONE|DICT|INTERRES
    71   34  159 1    
    72   35   36 2    
    73   35   37 1    
    74   37   38 1    
    75   37   39 1    
    76   37  160 1    
    77   38  161 1    
    78   38  162 1    
    79   38  163 1    
    80   39   40 am   BACKBONE|DICT|INTERRES
    81   39  164 1    
    82   40   41 2    
    83   40   42 1    
    84   42   43 1    
    85   42   44 1    
    86   42  165 1    
    87   43  166 1    
    88   43  167 1    
    89   43  168 1    
    90   44   45 am   BACKBONE|DICT|INTERRES
    91   44  169 1    
    92   45   46 2    
    93   45   47 1    
    94   47   48 1    
    95   47   49 1    
    96   47  170 1    
    97   48  171 1    
    98   48  172 1    
    99   48  173 1    
   100   49   50 am   BACKBONE|DICT|INTERRES
   101   49  174 1    
   102   50   51 2    
   103   50   52 1    
   104   52   53 1    
   105   52   54 1    
   106   52  175 1    
   107   53  176 1    
   108   53  177 1    
   109   53  178 1    
   110   54   55 am   BACKBONE|DICT|INTERRES
   111   54  179 1    
   112   55   56 2    
   113   55   57 1    
   114   57   58 1    
   115   57   59 1    
   116   57  180 1    
   117   58  181 1    
   118   58  182 1    
   119   58  183 1    
   120   59   60 am   BACKBONE|DICT|INTERRES
   121   59  184 1    
   122   60   61 2    
   123   60   62 1    
   124   62   63 1    
   125   62   64 1    
   126   62  185 1    
   127   63  186 1    
   128   63  187 1    
   129   63  188 1    
   130   64   65 am   BACKBONE|DICT|INTERRES
   131   64  189 1    
   132   65   66 2    
   133   67   68 2    
   134   67   69 am   BACKBONE|DICT|INTERRES
   135   69   70 1    
   136   69  190 1    
   137   70   71 1    
   138   70   72 1    
   139   70  191 1    
   140   71  192 1    
   141   71  193 1    
   142   71  194 1    
   143   72   73 2    
   144   72   74 am   BACKBONE|DICT|INTERRES
   145   74   75 1    
   146   74  195 1    
   147   75   76 1    
   148   75   77 1    
   149   75  196 1    
   150   76  197 1    
   151   76  198 1    
   152   76  199 1    
   153   77   78 2    
   154   77   79 am   BACKBONE|DICT|INTERRES
   155   79   80 1    
   156   79  200 1    
   157   80   81 1    
   158   80   82 1    
   159   80  201 1    
   160   81  202 1    
   161   81  203 1    
   162   81  204 1    
   163   82   83 2    
   164   82   84 am   BACKBONE|DICT|INTERRES
   165   84   85 1    
   166   84  205 1    
   167   85   86 1    
   168   85   87 1    
   169   85  206 1    
   170   86  207 1    
   171   86  208 1    
   172   86  209 1    
   173   87   88 2    
   174   87   89 am   BACKBONE|DICT|INTERRES
   175   89   90 1    
   176   89  210 1    
   177   90   91 1    
   178   90   92 1    
   179   90  211 1    
   180   91  212 1    
   181   91  213 1    
   182   91  214 1    
   183   92   93 2    
   184   92   94 am   BACKBONE|DICT|INTERRES
   185   94   95 1    
   186   94  215 1    
   187   95   96 1    
   188   95   97 1    
   189   95  216 1    
   190   96  217 1    
   191   96  218 1    
   192   96  219 1    
   193   97   98 2    
   194   97   99 am   BACKBONE|DICT|INTERRES
   195   99  100 1    
   196   99  220 1    
   197  100  101 1    
   198  100  102 1    
   199  100  221 1    
   200  101  222 1    
   201  101  223 1    
   202  101  224 1    
   203  102  103 2    
   204  102  104 am   BACKBONE|DICT|INTERRES
   205  104  105 1    
   206  104  225 1    
   207  105  106 1    
   208  105  107 1    
   209  105  226 1    
   210  106  227 1    
   211  106  228 1    
   212  106  229 1    
   213  107  108 2    
   214  107  109 am   BACKBONE|DICT|INTERRES
   215  109  110 1    
   216  109  230 1    
   217  110  111 1    
   218  110  112 1    
   219  110  231 1    
   220  111  232 1    
   221  111  233 1    
   222  111  234 1    
   223  112  113 2    
   224  112  114 am   BACKBONE|DICT|INTERRES
   225  114  115 1    
   226  114  235 1    
   227  115  116 1    
   228  115  117 1    
   229  115  236 1    
   230  116  237 1    
   231  116  238 1    
   232  116  239 1    
   233  117  118 2    
   234  117  119 am   BACKBONE|DICT|INTERRES
   235  119  120 1    
   236  119  240 1    
   237  120  121 1    
   238  120  124 1    
   239  120  241 1    
   240  121  122 am   BACKBONE|DICT|INTERRES
   241  121  123 2    
   242  122  242 1    
   243  122  243 1    
   244  124  125 1    
   245  124  244 1    
   246  124  245 1    
   247  125  126 1    
   248  126  246 1    
   249  126  247 1    
@<TRIPOS>SUBSTRUCTURE
     1 UNK         1 GROUP             0       ****    0 ROOT    
