@<TRIPOS>MOLECULE
3R540
247   249    1
SMALL
USER_CHARGES


@<TRIPOS>ATOM
      1 CA         -0.0333  -12.1501  -45.0427 C.3       0 UNK        -0.1800 
      2 C           1.2792  -11.9415  -45.7833 C.2       0 UNK         0.5000 
      3 O           2.3469  -12.2249  -45.2388 O.2       0 UNK        -0.5000 
      4 N           1.2042  -11.4286  -47.0190 N.am      1 UNK        -0.5000 
      5 CA          2.3014  -11.1819  -47.9727 C.3       1 UNK         0.1400 
      6 C6          3.1504  -12.4388  -48.3103 C.3       23 UNK        -0.0398 
      7 S7          2.1207  -13.8322  -48.8714 S.3       23 UNK        -0.2404 
      8 C8          3.3305  -14.8500  -49.7696 C.3       23 UNK        -0.0205 
      9 C9          2.7000  -16.1480  -50.2535 C.ar      23 UNK        -0.0193 
     10 C10         1.6827  -16.1104  -51.2096 C.ar      23 UNK        -0.1150 
     11 C11         1.0747  -17.2862  -51.6569 C.ar      23 UNK        -0.0193 
     12 C12         1.5232  -18.5171  -51.1667 C.ar      23 UNK        -0.1150 
     13 C13         2.5620  -18.5732  -50.2300 C.ar      23 UNK        -0.0193 
     14 C14         3.1348  -17.3841  -49.7651 C.ar      23 UNK        -0.1150 
     15 C15         3.1052  -19.9162  -49.7584 C.3       23 UNK        -0.0205 
     16 S16         2.3358  -20.4825  -48.2097 S.3       23 UNK        -0.2404 
     17 C17         0.6893  -20.9908  -48.7986 C.3       23 UNK        -0.0398 
     18 CA         -0.0344  -21.9570  -47.8292 C.3       11 UNK         0.1400 
     19 N          -0.3292  -21.3596  -46.5200 N.am      11 UNK        -0.5000 
     20 C          -0.8694  -22.0203  -45.4838 C.2       10 UNK         0.5000 
     21 O          -1.1175  -23.2250  -45.4962 O.2       10 UNK        -0.5000 
     22 CA         -1.2479  -21.2009  -44.2382 C.3       10 UNK         0.1400 
     23 CB         -0.0451  -21.0404  -43.3023 C.3       10 UNK        -0.1800 
     24 N          -1.7967  -19.8900  -44.5783 N.am      10 UNK        -0.5000 
     25 C          -2.9722  -19.7046  -45.1927 C.2       9 UNK         0.5000 
     26 O          -3.7432  -20.6203  -45.4812 O.2       9 UNK        -0.5000 
     27 CA         -3.3209  -18.2639  -45.6064 C.3       9 UNK         0.1400 
     28 CB         -3.8814  -17.4553  -44.4273 C.3       9 UNK        -0.1800 
     29 N          -2.1855  -17.5607  -46.2084 N.am      9 UNK        -0.5000 
     30 C          -1.6520  -17.9032  -47.3894 C.2       8 UNK         0.5000 
     31 O          -2.0458  -18.8565  -48.0615 O.2       8 UNK        -0.5000 
     32 CA         -0.4890  -17.0426  -47.9167 C.3       8 UNK         0.1400 
     33 CB         -1.0444  -15.7312  -48.4945 C.3       8 UNK        -0.1800 
     34 N           0.5931  -16.7371  -46.9701 N.am      8 UNK        -0.5000 
     35 C           1.1950  -17.5849  -46.1204 C.2       7 UNK         0.5000 
     36 O           0.7891  -18.7253  -45.8977 O.2       7 UNK        -0.5000 
     37 CA          2.4772  -17.0951  -45.4072 C.3       7 UNK         0.1400 
     38 CB          2.9498  -15.6939  -45.8348 C.3       7 UNK        -0.1800 
     39 N           2.2726  -17.0975  -43.9632 N.am      7 UNK        -0.5000 
     40 C           2.4612  -18.1527  -43.1581 C.2       6 UNK         0.5000 
     41 O           3.0433  -19.1806  -43.5065 O.2       6 UNK        -0.5000 
     42 CA          1.9113  -18.0599  -41.7154 C.3       6 UNK         0.1400 
     43 CB          3.0608  -17.8549  -40.7161 C.3       6 UNK        -0.1800 
     44 N           0.9231  -16.9985  -41.5074 N.am      6 UNK        -0.5000 
     45 C          -0.2496  -16.8672  -42.1444 C.2       5 UNK         0.5000 
     46 O          -0.7060  -17.7125  -42.9121 O.2       5 UNK        -0.5000 
     47 CA         -1.0141  -15.5397  -41.9424 C.3       5 UNK         0.1400 
     48 CB         -2.1998  -15.7469  -40.9878 C.3       5 UNK        -0.1800 
     49 N          -0.2008  -14.4171  -41.4507 N.am      5 UNK        -0.5000 
     50 C           0.9149  -13.9388  -42.0206 C.2       4 UNK         0.5000 
     51 O           1.4071  -14.4122  -43.0483 O.2       4 UNK        -0.5000 
     52 CA          1.6234  -12.7851  -41.2904 C.3       4 UNK         0.1400 
     53 CB          1.9813  -13.1942  -39.8430 C.3       4 UNK        -0.1800 
     54 N           2.8322  -12.4468  -42.0362 N.am      4 UNK        -0.5000 
     55 C           3.6733  -11.4353  -41.7957 C.2       3 UNK         0.5000 
     56 O           3.4704  -10.5595  -40.9536 O.2       3 UNK        -0.5000 
     57 CA          4.9756  -11.4149  -42.6169 C.3       3 UNK         0.1400 
     58 CB          5.5715  -12.8227  -42.8157 C.3       3 UNK        -0.1800 
     59 N           4.7713  -10.8010  -43.9237 N.am      3 UNK        -0.5000 
     60 C           4.7519   -9.4829  -44.1703 C.2       2 UNK         0.5000 
     61 O           4.9129   -8.6192  -43.3077 O.2       2 UNK        -0.5000 
     62 CA          4.5277   -9.0571  -45.6316 C.3       2 UNK         0.1400 
     63 CB          5.8870   -8.8998  -46.3436 C.3       2 UNK        -0.1800 
     64 N           3.6778  -10.0343  -46.3096 N.am      2 UNK        -0.5000 
     65 C           3.2061  -10.0014  -47.5581 C.2       1 UNK         0.5000 
     66 O           3.4344   -9.0955  -48.3607 O.2       1 UNK        -0.5000 
     67 C          -1.3090  -22.5179  -48.4912 C.2       11 UNK         0.5000 
     68 O          -1.3147  -23.6764  -48.9094 O.2       11 UNK        -0.5000 
     69 N          -2.3734  -21.7031  -48.5309 N.am      12 UNK        -0.5000 
     70 CA         -3.6900  -22.0807  -49.0421 C.3       12 UNK         0.1400 
     71 CB         -4.6122  -20.8530  -49.0458 C.3       12 UNK        -0.1800 
     72 C          -4.3253  -23.2311  -48.2430 C.2       12 UNK         0.5000 
     73 O          -4.8548  -24.1620  -48.8481 O.2       12 UNK        -0.5000 
     74 N          -4.2368  -23.1647  -46.9062 N.am      13 UNK        -0.5000 
     75 CA         -4.7370  -24.1897  -45.9891 C.3       13 UNK         0.1400 
     76 CB         -4.6506  -23.6835  -44.5420 C.3       13 UNK        -0.1800 
     77 C          -4.0111  -25.5381  -46.1412 C.2       13 UNK         0.5000 
     78 O          -4.6740  -26.5736  -46.2050 O.2       13 UNK        -0.5000 
     79 N          -2.6742  -25.5061  -46.2415 N.am      14 UNK        -0.5000 
     80 CA         -1.8249  -26.6810  -46.4622 C.3       14 UNK         0.1400 
     81 CB         -0.3483  -26.2773  -46.3357 C.3       14 UNK        -0.1800 
     82 C          -2.0841  -27.3635  -47.8182 C.2       14 UNK         0.5000 
     83 O          -2.0394  -28.5909  -47.9039 O.2       14 UNK        -0.5000 
     84 N          -2.3902  -26.5550  -48.8395 N.am      15 UNK        -0.5000 
     85 CA         -2.7901  -26.9939  -50.1756 C.3       15 UNK         0.1400 
     86 CB         -2.4195  -25.8853  -51.1693 C.3       15 UNK        -0.1800 
     87 C          -4.2886  -27.3533  -50.2839 C.2       15 UNK         0.5000 
     88 O          -4.7404  -27.7003  -51.3760 O.2       15 UNK        -0.5000 
     89 N          -5.0438  -27.2393  -49.1788 N.am      16 UNK        -0.5000 
     90 CA         -6.4835  -27.5004  -49.0444 C.3       16 UNK         0.1400 
     91 CB         -6.7634  -29.0127  -49.1625 C.3       16 UNK        -0.1800 
     92 C          -7.3579  -26.6563  -49.9991 C.2       16 UNK         0.5000 
     93 O          -8.4165  -27.1127  -50.4338 O.2       16 UNK        -0.5000 
     94 N          -6.8736  -25.4506  -50.3309 N.am      17 UNK        -0.5000 
     95 CA         -7.4106  -24.4821  -51.2916 C.3       17 UNK         0.1400 
     96 CB         -8.7676  -23.9301  -50.8109 C.3       17 UNK        -0.1800 
     97 C          -7.4621  -24.9771  -52.7560 C.2       17 UNK         0.5000 
     98 O          -8.0474  -24.2941  -53.5979 O.2       17 UNK        -0.5000 
     99 N          -6.8338  -26.1238  -53.0596 N.am      18 UNK        -0.5000 
    100 CA        -6.7116  -26.6685  -54.4161 C.3       18 UNK         0.1400 
    101 CB        -6.4356  -28.1773  -54.3299 C.3       18 UNK        -0.1800 
    102 C         -5.6103  -25.9601  -55.2290 C.2       18 UNK         0.5000 
    103 O         -5.6262  -26.0088  -56.4595 O.2       18 UNK        -0.5000 
    104 N         -4.6888  -25.3038  -54.5207 N.am      19 UNK        -0.5000 
    105 CA        -3.6302  -24.4437  -55.0230 C.3       19 UNK         0.1400 
    106 CB        -2.3938  -25.2915  -55.3724 C.3       19 UNK        -0.1800 
    107 C         -3.3251  -23.4103  -53.9271 C.2       19 UNK         0.5000 
    108 O         -3.8631  -23.5156  -52.8213 O.2       19 UNK        -0.5000 
    109 N         -2.4786  -22.4247  -54.2546 N.am      20 UNK        -0.5000 
    110 CA        -1.9376  -21.3883  -53.3603 C.3       20 UNK         0.1400 
    111 CB        -1.0226  -22.0242  -52.2937 C.3       20 UNK        -0.1800 
    112 C         -2.9827  -20.4428  -52.7255 C.2       20 UNK         0.5000 
    113 O         -2.6351  -19.6706  -51.8325 O.2       20 UNK        -0.5000 
    114 N         -4.2308  -20.4789  -53.2102 N.am      21 UNK        -0.5000 
    115 CA        -5.3624  -19.6757  -52.7459 C.3       21 UNK         0.1400 
    116 CB        -6.6652  -20.4204  -53.0895 C.3       21 UNK        -0.1800 
    117 C         -5.3154  -18.2415  -53.3134 C.2       21 UNK         0.5000 
    118 O         -6.2564  -17.7976  -53.9736 O.2       21 UNK        -0.5000 
    119 N         -4.1964  -17.5543  -53.0658 N.am      22 UNK        -0.5000 
    120 CA        -3.9071  -16.1867  -53.5190 C.3       22 UNK         0.1400 
    121 C         -4.6074  -15.0567  -52.7058 C.2       22 UNK         0.5000 
    122 N         -5.2662  -15.3460  -51.5900 N.am      22 UNK        -0.7600 
    123 O         -4.5677  -13.8965  -53.1067 O.2       22 UNK        -0.5000 
    124 C124       -2.3804  -15.9534  -53.6565 C.3       23 UNK        -0.0398 
    125 S125       -1.4469  -16.2191  -52.1071 S.3       23 UNK        -0.2404 
    126 C126       -0.0382  -17.2144  -52.6941 C.3       23 UNK        -0.0205 
    127 H127        0.0184  -11.6960  -44.0534 H         1 UNK         0.0600 
    128 H128       -0.8751  -11.7084  -45.5761 H         1 UNK         0.0600 
    129 H129       -0.2273  -13.2159  -44.9232 H         1 UNK         0.0600 
    130 H130        0.2896  -11.1959  -47.3790 H         1 UNK         0.3000 
    131 H131        1.8082  -10.8740  -48.8964 H         1 UNK         0.0600 
    132 H132        3.8719  -12.2031  -49.0946 H         1 UNK         0.0800 
    133 H133        3.7312  -12.7691  -47.4477 H         1 UNK         0.0800 
    134 H134        3.7103  -14.2924  -50.6268 H         1 UNK         0.0800 
    135 H135        4.1854  -15.0520  -49.1227 H         1 UNK         0.0800 
    136 H136        1.3476  -15.1566  -51.5928 H         1 UNK         0.1150 
    137 H137        1.0765  -19.4324  -51.5270 H         1 UNK         0.1150 
    138 H138        3.9324  -17.4248  -49.0366 H         1 UNK         0.1150 
    139 H139        2.9779  -20.6733  -50.5336 H         1 UNK         0.0800 
    140 H140        4.1813  -19.8340  -49.5983 H         1 UNK         0.0800 
    141 H141        0.8238  -21.4746  -49.7670 H         1 UNK         0.0800 
    142 H142        0.0926  -20.0969  -48.9812 H         1 UNK         0.0800 
    143 H143        0.6285  -22.8059  -47.6481 H         1 UNK         0.0600 
    144 H144       -0.0972  -20.3763  -46.4016 H         1 UNK         0.3000 
    145 H145       -2.0181  -21.7531  -43.6966 H         1 UNK         0.0600 
    146 H146       -0.3190  -20.4979  -42.3977 H         1 UNK         0.0600 
    147 H147        0.3458  -22.0117  -42.9972 H         1 UNK         0.0600 
    148 H148        0.7636  -20.5003  -43.7917 H         1 UNK         0.0600 
    149 H149       -1.2194  -19.0835  -44.3606 H         1 UNK         0.3000 
    150 H150       -4.1070  -18.3272  -46.3622 H         1 UNK         0.0600 
    151 H151       -4.7498  -17.9528  -43.9938 H         1 UNK         0.0600 
    152 H152       -4.2009  -16.4629  -44.7457 H         1 UNK         0.0600 
    153 H153       -3.1475  -17.3321  -43.6336 H         1 UNK         0.0600 
    154 H154       -1.7816  -16.7957  -45.6895 H         1 UNK         0.3000 
    155 H155       -0.0349  -17.6005  -48.7374 H         1 UNK         0.0600 
    156 H156       -0.3238  -15.2579  -49.1581 H         1 UNK         0.0600 
    157 H157       -1.3046  -15.0195  -47.7105 H         1 UNK         0.0600 
    158 H158       -1.9428  -15.9080  -49.0879 H         1 UNK         0.0600 
    159 H159        1.0097  -15.8238  -47.0808 H         1 UNK         0.3000 
    160 H160        3.2704  -17.8000  -45.6643 H         1 UNK         0.0600 
    161 H161        2.1872  -14.9330  -45.6676 H         1 UNK         0.0600 
    162 H162        3.2198  -15.6831  -46.8896 H         1 UNK         0.0600 
    163 H163        3.8371  -15.3926  -45.2778 H         1 UNK         0.0600 
    164 H164        1.8208  -16.2722  -43.5818 H         1 UNK         0.3000 
    165 H165        1.4264  -19.0114  -41.4914 H         1 UNK         0.0600 
    166 H166        3.5683  -16.9030  -40.8789 H         1 UNK         0.0600 
    167 H167        2.6992  -17.8726  -39.6878 H         1 UNK         0.0600 
    168 H168        3.8070  -18.6450  -40.8096 H         1 UNK         0.0600 
    169 H169        1.2073  -16.2425  -40.9035 H         1 UNK         0.3000 
    170 H170       -1.4074  -15.2510  -42.9191 H         1 UNK         0.0600 
    171 H171       -2.8381  -16.5656  -41.3222 H         1 UNK         0.0600 
    172 H172       -1.8641  -15.9864  -39.9781 H         1 UNK         0.0600 
    173 H173       -2.8233  -14.8543  -40.9328 H         1 UNK         0.0600 
    174 H174       -0.5312  -13.9785  -40.6032 H         1 UNK         0.3000 
    175 H175        0.9571  -11.9207  -41.2834 H         1 UNK         0.0600 
    176 H176        2.4720  -12.3850  -39.3031 H         1 UNK         0.0600 
    177 H177        1.0935  -13.4540  -39.2659 H         1 UNK         0.0600 
    178 H178        2.6494  -14.0563  -39.8256 H         1 UNK         0.0600 
    179 H179        3.0071  -13.0723  -42.8154 H         1 UNK         0.3000 
    180 H180        5.7054  -10.8261  -42.0568 H         1 UNK         0.0600 
    181 H181        4.9541  -13.4454  -43.4647 H         1 UNK         0.0600 
    182 H182        5.6781  -13.3414  -41.8620 H         1 UNK         0.0600 
    183 H183        6.5638  -12.7647  -43.2635 H         1 UNK         0.0600 
    184 H184        4.6161  -11.4420  -44.6878 H         1 UNK         0.3000 
    185 H185        4.0099   -8.0962  -45.6270 H         1 UNK         0.0600 
    186 H186        5.7769   -8.4628  -47.3355 H         1 UNK         0.0600 
    187 H187        6.5489   -8.2406  -45.7802 H         1 UNK         0.0600 
    188 H188        6.3947   -9.8586  -46.4534 H         1 UNK         0.0600 
    189 H189        3.3281  -10.7942  -45.7283 H         1 UNK         0.3000 
    190 H190       -2.2756  -20.7464  -48.1986 H         1 UNK         0.3000 
    191 H191       -3.5632  -22.4163  -50.0736 H         1 UNK         0.0600 
    192 H192       -4.1694  -20.0311  -49.6075 H         1 UNK         0.0600 
    193 H193       -5.5724  -21.0883  -49.5064 H         1 UNK         0.0600 
    194 H194       -4.8084  -20.4914  -48.0360 H         1 UNK         0.0600 
    195 H195       -3.8257  -22.3378  -46.4833 H         1 UNK         0.3000 
    196 H196       -5.7905  -24.3544  -46.2248 H         1 UNK         0.0600 
    197 H197       -5.0505  -24.4216  -43.8457 H         1 UNK         0.0600 
    198 H198       -5.2254  -22.7669  -44.4096 H         1 UNK         0.0600 
    199 H199       -3.6213  -23.4792  -44.2480 H         1 UNK         0.0600 
    200 H200       -2.1931  -24.6146  -46.1416 H         1 UNK         0.3000 
    201 H201       -2.0489  -27.4070  -45.6781 H         1 UNK         0.0600 
    202 H202       -0.1330  -25.8784  -45.3443 H         1 UNK         0.0600 
    203 H203       -0.0764  -25.5162  -47.0682 H         1 UNK         0.0600 
    204 H204        0.3078  -27.1346  -46.4910 H         1 UNK         0.0600 
    205 H205       -2.3563  -25.5522  -48.6899 H         1 UNK         0.3000 
    206 H206       -2.2261  -27.8897  -50.4426 H         1 UNK         0.0600 
    207 H207       -1.3455  -25.6986  -51.1727 H         1 UNK         0.0600 
    208 H208       -2.7079  -26.1481  -52.1870 H         1 UNK         0.0600 
    209 H209       -2.9166  -24.9501  -50.9118 H         1 UNK         0.0600 
    210 H210       -4.5922  -26.9138  -48.3328 H         1 UNK         0.3000 
    211 H211       -6.7556  -27.1906  -48.0346 H         1 UNK         0.0600 
    212 H212       -6.5674  -29.3822  -50.1696 H         1 UNK         0.0600 
    213 H213       -7.8037  -29.2396  -48.9267 H         1 UNK         0.0600 
    214 H214       -6.1441  -29.5824  -48.4696 H         1 UNK         0.0600 
    215 H215       -6.0132  -25.1543  -49.8716 H         1 UNK         0.3000 
    216 H216       -6.7019  -23.6525  -51.2895 H         1 UNK         0.0600 
    217 H217       -8.7013  -23.5588  -49.7883 H         1 UNK         0.0600 
    218 H218       -9.5486  -24.6901  -50.8434 H         1 UNK         0.0600 
    219 H219       -9.0960  -23.0981  -51.4349 H         1 UNK         0.0600 
    220 H220       -6.3525  -26.6311  -52.3252 H         1 UNK         0.3000 
    221 H221       -7.6585  -26.5261  -54.9409 H         1 UNK         0.0600 
    222 H222       -5.4728  -28.3853  -53.8623 H         1 UNK         0.0600 
    223 H223       -7.2067  -28.6881  -53.7529 H         1 UNK         0.0600 
    224 H224       -6.4198  -28.6271  -55.3234 H         1 UNK         0.0600 
    225 H225       -4.7913  -25.2640  -53.5138 H         1 UNK         0.3000 
    226 H226       -3.9812  -23.9119  -55.9096 H         1 UNK         0.0600 
    227 H227       -2.6313  -26.0433  -56.1252 H         1 UNK         0.0600 
    228 H228       -1.5916  -24.6737  -55.7770 H         1 UNK         0.0600 
    229 H229       -2.0002  -25.8094  -54.4974 H         1 UNK         0.0600 
    230 H230       -2.1168  -22.4044  -55.1982 H         1 UNK         0.3000 
    231 H231       -1.3120  -20.7500  -53.9858 H         1 UNK         0.0600 
    232 H232       -0.5323  -21.2587  -51.6935 H         1 UNK         0.0600 
    233 H233       -0.2390  -22.6265  -52.7529 H         1 UNK         0.0600 
    234 H234       -1.5805  -22.6656  -51.6114 H         1 UNK         0.0600 
    235 H235       -4.4221  -21.1273  -53.9585 H         1 UNK         0.3000 
    236 H236       -5.3114  -19.5889  -51.6597 H         1 UNK         0.0600 
    237 H237       -7.5362  -19.8790  -52.7181 H         1 UNK         0.0600 
    238 H238       -6.7876  -20.5441  -54.1662 H         1 UNK         0.0600 
    239 H239       -6.6835  -21.4116  -52.6354 H         1 UNK         0.0600 
    240 H240       -3.4733  -18.0045  -52.5119 H         1 UNK         0.3000 
    241 H241       -4.3197  -16.0959  -54.5256 H         1 UNK         0.0600 
    242 H242       -5.3014  -16.2926  -51.2491 H         1 UNK         0.3800 
    243 H243       -5.7223  -14.6083  -51.0767 H         1 UNK         0.3800 
    244 H244       -1.9909  -16.6225  -54.4249 H         1 UNK         0.0800 
    245 H245       -2.1735  -14.9447  -54.0177 H         1 UNK         0.0800 
    246 H246       -0.3934  -18.2122  -52.9555 H         1 UNK         0.0800 
    247 H247        0.3658  -16.7730  -53.6062 H         1 UNK         0.0800 
@<TRIPOS>BOND
     1    1    2 1    
     2    1  127 1    
     3    1  128 1    
     4    1  129 1    
     5    2    3 2    
     6    2    4 am   BACKBONE|DICT|INTERRES
     7    4    5 1    
     8    4  130 1    
     9    5    6 1    
    10    5   65 1    
    11    5  131 1    
    12    6    7 1    
    13    6  132 1    
    14    6  133 1    
    15    7    8 1    
    16    8    9 1    
    17    8  134 1    
    18    8  135 1    
    19    9   10 ar   
    20    9   14 ar   
    21   10   11 ar   
    22   10  136 1    
    23   11   12 ar   
    24   11  126 1    
    25   12   13 ar   
    26   12  137 1    
    27   13   14 ar   
    28   13   15 1    
    29   14  138 1    
    30   15   16 1    
    31   15  139 1    
    32   15  140 1    
    33   16   17 1    
    34   17   18 1    
    35   17  141 1    
    36   17  142 1    
    37   18   19 1    
    38   18   67 1    
    39   18  143 1    
    40   19   20 am   BACKBONE|DICT|INTERRES
    41   19  144 1    
    42   20   21 2    
    43   20   22 1    
    44   22   23 1    
    45   22   24 1    
    46   22  145 1    
    47   23  146 1    
    48   23  147 1    
    49   23  148 1    
    50   24   25 am   BACKBONE|DICT|INTERRES
    51   24  149 1    
    52   25   26 2    
    53   25   27 1    
    54   27   28 1    
    55   27   29 1    
    56   27  150 1    
    57   28  151 1    
    58   28  152 1    
    59   28  153 1    
    60   29   30 am   BACKBONE|DICT|INTERRES
    61   29  154 1    
    62   30   31 2    
    63   30   32 1    
    64   32   33 1    
    65   32   34 1    
    66   32  155 1    
    67   33  156 1    
    68   33  157 1    
    69   33  158 1    
    70   34   35 am   BACKBONE|DICT|INTERRES
    71   34  159 1    
    72   35   36 2    
    73   35   37 1    
    74   37   38 1    
    75   37   39 1    
    76   37  160 1    
    77   38  161 1    
    78   38  162 1    
    79   38  163 1    
    80   39   40 am   BACKBONE|DICT|INTERRES
    81   39  164 1    
    82   40   41 2    
    83   40   42 1    
    84   42   43 1    
    85   42   44 1    
    86   42  165 1    
    87   43  166 1    
    88   43  167 1    
    89   43  168 1    
    90   44   45 am   BACKBONE|DICT|INTERRES
    91   44  169 1    
    92   45   46 2    
    93   45   47 1    
    94   47   48 1    
    95   47   49 1    
    96   47  170 1    
    97   48  171 1    
    98   48  172 1    
    99   48  173 1    
   100   49   50 am   BACKBONE|DICT|INTERRES
   101   49  174 1    
   102   50   51 2    
   103   50   52 1    
   104   52   53 1    
   105   52   54 1    
   106   52  175 1    
   107   53  176 1    
   108   53  177 1    
   109   53  178 1    
   110   54   55 am   BACKBONE|DICT|INTERRES
   111   54  179 1    
   112   55   56 2    
   113   55   57 1    
   114   57   58 1    
   115   57   59 1    
   116   57  180 1    
   117   58  181 1    
   118   58  182 1    
   119   58  183 1    
   120   59   60 am   BACKBONE|DICT|INTERRES
   121   59  184 1    
   122   60   61 2    
   123   60   62 1    
   124   62   63 1    
   125   62   64 1    
   126   62  185 1    
   127   63  186 1    
   128   63  187 1    
   129   63  188 1    
   130   64   65 am   BACKBONE|DICT|INTERRES
   131   64  189 1    
   132   65   66 2    
   133   67   68 2    
   134   67   69 am   BACKBONE|DICT|INTERRES
   135   69   70 1    
   136   69  190 1    
   137   70   71 1    
   138   70   72 1    
   139   70  191 1    
   140   71  192 1    
   141   71  193 1    
   142   71  194 1    
   143   72   73 2    
   144   72   74 am   BACKBONE|DICT|INTERRES
   145   74   75 1    
   146   74  195 1    
   147   75   76 1    
   148   75   77 1    
   149   75  196 1    
   150   76  197 1    
   151   76  198 1    
   152   76  199 1    
   153   77   78 2    
   154   77   79 am   BACKBONE|DICT|INTERRES
   155   79   80 1    
   156   79  200 1    
   157   80   81 1    
   158   80   82 1    
   159   80  201 1    
   160   81  202 1    
   161   81  203 1    
   162   81  204 1    
   163   82   83 2    
   164   82   84 am   BACKBONE|DICT|INTERRES
   165   84   85 1    
   166   84  205 1    
   167   85   86 1    
   168   85   87 1    
   169   85  206 1    
   170   86  207 1    
   171   86  208 1    
   172   86  209 1    
   173   87   88 2    
   174   87   89 am   BACKBONE|DICT|INTERRES
   175   89   90 1    
   176   89  210 1    
   177   90   91 1    
   178   90   92 1    
   179   90  211 1    
   180   91  212 1    
   181   91  213 1    
   182   91  214 1    
   183   92   93 2    
   184   92   94 am   BACKBONE|DICT|INTERRES
   185   94   95 1    
   186   94  215 1    
   187   95   96 1    
   188   95   97 1    
   189   95  216 1    
   190   96  217 1    
   191   96  218 1    
   192   96  219 1    
   193   97   98 2    
   194   97   99 am   BACKBONE|DICT|INTERRES
   195   99  100 1    
   196   99  220 1    
   197  100  101 1    
   198  100  102 1    
   199  100  221 1    
   200  101  222 1    
   201  101  223 1    
   202  101  224 1    
   203  102  103 2    
   204  102  104 am   BACKBONE|DICT|INTERRES
   205  104  105 1    
   206  104  225 1    
   207  105  106 1    
   208  105  107 1    
   209  105  226 1    
   210  106  227 1    
   211  106  228 1    
   212  106  229 1    
   213  107  108 2    
   214  107  109 am   BACKBONE|DICT|INTERRES
   215  109  110 1    
   216  109  230 1    
   217  110  111 1    
   218  110  112 1    
   219  110  231 1    
   220  111  232 1    
   221  111  233 1    
   222  111  234 1    
   223  112  113 2    
   224  112  114 am   BACKBONE|DICT|INTERRES
   225  114  115 1    
   226  114  235 1    
   227  115  116 1    
   228  115  117 1    
   229  115  236 1    
   230  116  237 1    
   231  116  238 1    
   232  116  239 1    
   233  117  118 2    
   234  117  119 am   BACKBONE|DICT|INTERRES
   235  119  120 1    
   236  119  240 1    
   237  120  121 1    
   238  120  124 1    
   239  120  241 1    
   240  121  122 am   BACKBONE|DICT|INTERRES
   241  121  123 2    
   242  122  242 1    
   243  122  243 1    
   244  124  125 1    
   245  124  244 1    
   246  124  245 1    
   247  125  126 1    
   248  126  246 1    
   249  126  247 1    
@<TRIPOS>SUBSTRUCTURE
     1 UNK         1 GROUP             0       ****    0 ROOT    
