@<TRIPOS>MOLECULE
3R540
247   249    1
SMALL
USER_CHARGES


@<TRIPOS>ATOM
      1 CA         -5.0762  -16.3627  -44.1061 C.3       0 UNK        -0.1800 
      2 C          -4.0348  -15.6402  -44.9481 C.2       0 UNK         0.5000 
      3 O          -3.2820  -14.8192  -44.4242 O.2       0 UNK        -0.5000 
      4 N          -3.9851  -15.9377  -46.2531 N.am      1 UNK        -0.5000 
      5 CA         -2.9776  -15.4314  -47.1915 C.3       1 UNK         0.1400 
      6 C6         -3.3355  -15.8277  -48.6480 C.3       23 UNK        -0.0398 
      7 S7         -2.6601  -14.6756  -49.8907 S.3       23 UNK        -0.2404 
      8 C8         -2.4753  -15.7609  -51.3468 C.3       23 UNK        -0.0205 
      9 C9         -1.1480  -16.5151  -51.4535 C.ar      23 UNK        -0.0193 
     10 C10        -0.7319  -16.9453  -52.7171 C.ar      23 UNK        -0.1150 
     11 C11         0.4515  -17.6687  -52.8768 C.ar      23 UNK        -0.0193 
     12 C12         1.2393  -17.9529  -51.7590 C.ar      23 UNK        -0.1150 
     13 C13         0.8413  -17.5355  -50.4861 C.ar      23 UNK        -0.0193 
     14 C14        -0.3521  -16.8219  -50.3411 C.ar      23 UNK        -0.1150 
     15 C15         1.7097  -17.8416  -49.2723 C.3       23 UNK        -0.0205 
     16 S16         1.8418  -19.6284  -48.9462 S.3       23 UNK        -0.2404 
     17 C17         0.1489  -20.0073  -48.3868 C.3       23 UNK        -0.0398 
     18 CA          0.0354  -21.4109  -47.7339 C.3       11 UNK         0.1400 
     19 N           0.8834  -21.5387  -46.5480 N.am      11 UNK        -0.5000 
     20 C           1.8646  -22.4393  -46.4135 C.2       10 UNK         0.5000 
     21 O           2.0706  -23.3551  -47.2102 O.2       10 UNK        -0.5000 
     22 CA          2.8175  -22.2768  -45.2156 C.3       10 UNK         0.1400 
     23 CB          3.9998  -21.3756  -45.6039 C.3       10 UNK        -0.1800 
     24 N           2.1823  -21.7416  -44.0121 N.am      10 UNK        -0.5000 
     25 C           1.3618  -22.4380  -43.2143 C.2       9 UNK         0.5000 
     26 O           1.0171  -23.5998  -43.4316 O.2       9 UNK        -0.5000 
     27 CA          0.8384  -21.7129  -41.9587 C.3       9 UNK         0.1400 
     28 CB          1.8917  -21.7283  -40.8407 C.3       9 UNK        -0.1800 
     29 N           0.4297  -20.3348  -42.2294 N.am      9 UNK        -0.5000 
     30 C          -0.5971  -20.0030  -43.0234 C.2       8 UNK         0.5000 
     31 O          -1.3411  -20.8265  -43.5513 O.2       8 UNK        -0.5000 
     32 CA         -0.7965  -18.5100  -43.3317 C.3       8 UNK         0.1400 
     33 CB         -1.5777  -17.8099  -42.2112 C.3       8 UNK        -0.1800 
     34 N           0.4662  -17.8142  -43.5679 N.am      8 UNK        -0.5000 
     35 C           1.3193  -18.1005  -44.5601 C.2       7 UNK         0.5000 
     36 O           1.1176  -18.9704  -45.4037 O.2       7 UNK        -0.5000 
     37 CA          2.6475  -17.3278  -44.5760 C.3       7 UNK         0.1400 
     38 CB          2.4706  -15.9281  -45.1829 C.3       7 UNK        -0.1800 
     39 N           3.2268  -17.2209  -43.2377 N.am      7 UNK        -0.5000 
     40 C           3.7349  -18.2563  -42.5542 C.2       6 UNK         0.5000 
     41 O           3.7869  -19.4054  -42.9910 O.2       6 UNK        -0.5000 
     42 CA          4.2341  -17.9628  -41.1287 C.3       6 UNK         0.1400 
     43 CB          5.6545  -17.3793  -41.1592 C.3       6 UNK        -0.1800 
     44 N           3.3485  -17.0515  -40.4033 N.am      6 UNK        -0.5000 
     45 C           2.1024  -17.3599  -40.0188 C.2       5 UNK         0.5000 
     46 O           1.5734  -18.4534  -40.2185 O.2       5 UNK        -0.5000 
     47 CA          1.2968  -16.2370  -39.3401 C.3       5 UNK         0.1400 
     48 CB          1.6512  -16.1406  -37.8486 C.3       5 UNK        -0.1800 
     49 N           1.4688  -14.9227  -39.9702 N.am      5 UNK        -0.5000 
     50 C           1.1584  -14.6504  -41.2437 C.2       4 UNK         0.5000 
     51 O           0.7805  -15.4998  -42.0530 O.2       4 UNK        -0.5000 
     52 CA          1.2998  -13.1989  -41.7094 C.3       4 UNK         0.1400 
     53 CB          2.6966  -12.9384  -42.2961 C.3       4 UNK        -0.1800 
     54 N           0.2850  -12.9853  -42.7325 N.am      4 UNK        -0.5000 
     55 C          -0.3757  -11.8486  -42.9625 C.2       3 UNK         0.5000 
     56 O          -0.1254  -10.7869  -42.3883 O.2       3 UNK        -0.5000 
     57 CA         -1.5289  -11.9330  -43.9850 C.3       3 UNK         0.1400 
     58 CB         -1.9760  -10.5519  -44.5104 C.3       3 UNK        -0.1800 
     59 N          -1.2767  -12.8610  -45.0969 N.am      3 UNK        -0.5000 
     60 C          -0.3265  -12.7458  -46.0373 C.2       2 UNK         0.5000 
     61 O           0.5443  -11.8748  -46.0191 O.2       2 UNK        -0.5000 
     62 CA         -0.3755  -13.7531  -47.2046 C.3       2 UNK         0.1400 
     63 CB          0.8730  -13.6743  -48.1033 C.3       2 UNK        -0.1800 
     64 N          -0.5107  -15.1355  -46.7412 N.am      2 UNK        -0.5000 
     65 C          -1.5747  -15.9498  -46.7814 C.2       1 UNK         0.5000 
     66 O          -1.4613  -17.1404  -46.4948 O.2       1 UNK        -0.5000 
     67 C          -1.4233  -21.7566  -47.3891 C.2       11 UNK         0.5000 
     68 O          -1.9399  -22.7691  -47.8725 O.2       11 UNK        -0.5000 
     69 N          -2.0804  -20.8953  -46.5984 N.am      12 UNK        -0.5000 
     70 CA         -3.5205  -20.9439  -46.3279 C.3       12 UNK         0.1400 
     71 CB         -3.9537  -19.6793  -45.5717 C.3       12 UNK        -0.1800 
     72 C          -3.9717  -22.2162  -45.5919 C.2       12 UNK         0.5000 
     73 O          -4.9178  -22.8702  -46.0288 O.2       12 UNK        -0.5000 
     74 N          -3.2693  -22.5641  -44.5098 N.am      13 UNK        -0.5000 
     75 CA         -3.5337  -23.7595  -43.7097 C.3       13 UNK         0.1400 
     76 CB         -2.8322  -23.6159  -42.3513 C.3       13 UNK        -0.1800 
     77 C          -3.0839  -25.0565  -44.4066 C.2       13 UNK         0.5000 
     78 O          -3.6288  -26.1207  -44.1113 O.2       13 UNK        -0.5000 
     79 N          -2.0903  -24.9496  -45.2982 N.am      14 UNK        -0.5000 
     80 CA         -1.4872  -26.0787  -45.9979 C.3       14 UNK         0.1400 
     81 CB         -0.0932  -25.6818  -46.5012 C.3       14 UNK        -0.1800 
     82 C          -2.3560  -26.5892  -47.1572 C.2       14 UNK         0.5000 
     83 O          -2.6006  -27.7941  -47.2383 O.2       14 UNK        -0.5000 
     84 N          -2.7846  -25.6803  -48.0441 N.am      15 UNK        -0.5000 
     85 CA         -3.4527  -26.0334  -49.2995 C.3       15 UNK         0.1400 
     86 CB         -2.4050  -26.4914  -50.3371 C.3       15 UNK        -0.1800 
     87 C          -4.3385  -24.8914  -49.8237 C.2       15 UNK         0.5000 
     88 O          -4.4013  -24.6761  -51.0365 O.2       15 UNK        -0.5000 
     89 N          -4.9855  -24.1487  -48.9102 N.am      16 UNK        -0.5000 
     90 CA         -5.8944  -23.0219  -49.1857 C.3       16 UNK         0.1400 
     91 CB         -7.1926  -23.5300  -49.8476 C.3       16 UNK        -0.1800 
     92 C          -5.2350  -21.8824  -49.9935 C.2       16 UNK         0.5000 
     93 O          -5.9211  -21.1675  -50.7265 O.2       16 UNK        -0.5000 
     94 N          -3.9002  -21.7794  -49.8907 N.am      17 UNK        -0.5000 
     95 CA         -3.0085  -20.9072  -50.6580 C.3       17 UNK         0.1400 
     96 CB         -3.1744  -19.4474  -50.1951 C.3       17 UNK        -0.1800 
     97 C          -3.1497  -21.0711  -52.1861 C.2       17 UNK         0.5000 
     98 O          -2.9702  -20.1003  -52.9203 O.2       17 UNK        -0.5000 
     99 N          -3.5361  -22.2788  -52.6331 N.am      18 UNK        -0.5000 
    100 CA        -3.8853  -22.6379  -54.0130 C.3       18 UNK         0.1400 
    101 CB        -2.6227  -22.6461  -54.8996 C.3       18 UNK        -0.1800 
    102 C         -5.0140  -21.7583  -54.5995 C.2       18 UNK         0.5000 
    103 O         -5.0146  -21.4829  -55.7993 O.2       18 UNK        -0.5000 
    104 N         -5.9194  -21.2748  -53.7313 N.am      19 UNK        -0.5000 
    105 CA        -6.9654  -20.2807  -54.0069 C.3       19 UNK         0.1400 
    106 CB        -8.0438  -20.8661  -54.9420 C.3       19 UNK        -0.1800 
    107 C         -6.4002  -18.9305  -54.5093 C.2       19 UNK         0.5000 
    108 O         -7.0685  -18.2267  -55.2677 O.2       19 UNK        -0.5000 
    109 N         -5.1648  -18.6146  -54.0897 N.am      20 UNK        -0.5000 
    110 CA        -4.3221  -17.4889  -54.5009 C.3       20 UNK         0.1400 
    111 CB        -4.9766  -16.1351  -54.1564 C.3       20 UNK        -0.1800 
    112 C         -3.8386  -17.5710  -55.9662 C.2       20 UNK         0.5000 
    113 O         -3.3657  -16.5677  -56.5023 O.2       20 UNK        -0.5000 
    114 N         -3.9381  -18.7546  -56.5851 N.am      21 UNK        -0.5000 
    115 CA        -3.5547  -19.0310  -57.9656 C.3       21 UNK         0.1400 
    116 CB        -4.8105  -19.4477  -58.7531 C.3       21 UNK        -0.1800 
    117 C         -2.4544  -20.1050  -57.9753 C.2       21 UNK         0.5000 
    118 O         -2.6619  -21.2088  -58.4827 O.2       21 UNK        -0.5000 
    119 N         -1.2988  -19.7616  -57.3920 N.am      22 UNK        -0.5000 
    120 CA        -0.1167  -20.6379  -57.2846 C.3       22 UNK         0.1400 
    121 C          0.5876  -20.9713  -58.6348 C.2       22 UNK         0.5000 
    122 N          0.3303  -20.2510  -59.7200 N.am      22 UNK        -0.7600 
    123 O          1.3841  -21.9039  -58.6974 O.2       22 UNK        -0.5000 
    124 C124        0.9236  -20.0984  -56.2685 C.3       23 UNK        -0.0398 
    125 S125        0.2356  -19.8085  -54.6035 S.3       23 UNK        -0.2404 
    126 C126        0.8756  -18.1417  -54.2570 C.3       23 UNK        -0.0205 
    127 H127       -4.5846  -16.9665  -43.3434 H         1 UNK         0.0600 
    128 H128       -5.7013  -17.0205  -44.7103 H         1 UNK         0.0600 
    129 H129       -5.7229  -15.6407  -43.6078 H         1 UNK         0.0600 
    130 H130       -4.6213  -16.6286  -46.6220 H         1 UNK         0.3000 
    131 H131       -3.0275  -14.3468  -47.0988 H         1 UNK         0.0600 
    132 H132       -3.0255  -16.8503  -48.8682 H         1 UNK         0.0800 
    133 H133       -4.4180  -15.8145  -48.7838 H         1 UNK         0.0800 
    134 H134       -2.5927  -15.1307  -52.2297 H         1 UNK         0.0800 
    135 H135       -3.2970  -16.4777  -51.3754 H         1 UNK         0.0800 
    136 H136       -1.3335  -16.7221  -53.5860 H         1 UNK         0.1150 
    137 H137        2.1580  -18.5104  -51.8766 H         1 UNK         0.1150 
    138 H138       -0.6519  -16.5093  -49.3553 H         1 UNK         0.1150 
    139 H139        2.7095  -17.4412  -49.4446 H         1 UNK         0.0800 
    140 H140        1.3296  -17.3414  -48.3800 H         1 UNK         0.0800 
    141 H141       -0.5021  -19.9287  -49.2560 H         1 UNK         0.0800 
    142 H142       -0.1692  -19.2256  -47.6958 H         1 UNK         0.0800 
    143 H143        0.3429  -22.1337  -48.4926 H         1 UNK         0.0600 
    144 H144        0.8503  -20.7629  -45.8912 H         1 UNK         0.3000 
    145 H145        3.2147  -23.2658  -44.9772 H         1 UNK         0.0600 
    146 H146        4.7372  -21.3242  -44.8028 H         1 UNK         0.0600 
    147 H147        4.5087  -21.7561  -46.4904 H         1 UNK         0.0600 
    148 H148        3.6719  -20.3590  -45.8249 H         1 UNK         0.0600 
    149 H149        2.4494  -20.8016  -43.7405 H         1 UNK         0.3000 
    150 H150       -0.0365  -22.2559  -41.5983 H         1 UNK         0.0600 
    151 H151        2.2045  -22.7478  -40.6122 H         1 UNK         0.0600 
    152 H152        1.4958  -21.2958  -39.9217 H         1 UNK         0.0600 
    153 H153        2.7830  -21.1646  -41.1174 H         1 UNK         0.0600 
    154 H154        0.9690  -19.5994  -41.7842 H         1 UNK         0.3000 
    155 H155       -1.3873  -18.4410  -44.2455 H         1 UNK         0.0600 
    156 H156       -1.0216  -17.8088  -41.2734 H         1 UNK         0.0600 
    157 H157       -2.5316  -18.3068  -42.0306 H         1 UNK         0.0600 
    158 H158       -1.7947  -16.7740  -42.4737 H         1 UNK         0.0600 
    159 H159        0.6887  -17.0516  -42.9309 H         1 UNK         0.3000 
    160 H160        3.3488  -17.8805  -45.2050 H         1 UNK         0.0600 
    161 H161        1.7307  -15.3375  -44.6417 H         1 UNK         0.0600 
    162 H162        2.1498  -16.0022  -46.2217 H         1 UNK         0.0600 
    163 H163        3.4096  -15.3744  -45.1773 H         1 UNK         0.0600 
    164 H164        3.1688  -16.3221  -42.7841 H         1 UNK         0.3000 
    165 H165        4.2662  -18.9102  -40.5861 H         1 UNK         0.0600 
    166 H166        6.0454  -17.2410  -40.1510 H         1 UNK         0.0600 
    167 H167        6.3391  -18.0478  -41.6831 H         1 UNK         0.0600 
    168 H168        5.6851  -16.4144  -41.6668 H         1 UNK         0.0600 
    169 H169        3.7011  -16.1271  -40.2040 H         1 UNK         0.3000 
    170 H170        0.2405  -16.5025  -39.4194 H         1 UNK         0.0600 
    171 H171        1.5172  -17.1029  -37.3524 H         1 UNK         0.0600 
    172 H172        2.6874  -15.8352  -37.6983 H         1 UNK         0.0600 
    173 H173        1.0113  -15.4216  -37.3367 H         1 UNK         0.0600 
    174 H174        1.7852  -14.1743  -39.3704 H         1 UNK         0.3000 
    175 H175        1.1225  -12.5360  -40.8599 H         1 UNK         0.0600 
    176 H176        2.9056  -13.5900  -43.1452 H         1 UNK         0.0600 
    177 H177        2.7923  -11.9075  -42.6374 H         1 UNK         0.0600 
    178 H178        3.4735  -13.1077  -41.5498 H         1 UNK         0.0600 
    179 H179       -0.0111  -13.8319  -43.2019 H         1 UNK         0.3000 
    180 H180       -2.3728  -12.3534  -43.4363 H         1 UNK         0.0600 
    181 H181       -1.1662  -10.0289  -45.0198 H         1 UNK         0.0600 
    182 H182       -2.3131   -9.9130  -43.6934 H         1 UNK         0.0600 
    183 H183       -2.8073  -10.6464  -45.2090 H         1 UNK         0.0600 
    184 H184       -1.9206  -13.6467  -45.1283 H         1 UNK         0.3000 
    185 H185       -1.2173  -13.4539  -47.8237 H         1 UNK         0.0600 
    186 H186        0.9851  -12.6785  -48.5339 H         1 UNK         0.0600 
    187 H187        1.7858  -13.8979  -47.5501 H         1 UNK         0.0600 
    188 H188        0.8049  -14.3752  -48.9355 H         1 UNK         0.0600 
    189 H189        0.3455  -15.5364  -46.3938 H         1 UNK         0.3000 
    190 H190       -1.5790  -20.1126  -46.2020 H         1 UNK         0.3000 
    191 H191       -4.0315  -20.9307  -47.2907 H         1 UNK         0.0600 
    192 H192       -3.5056  -19.6209  -44.5803 H         1 UNK         0.0600 
    193 H193       -5.0361  -19.6559  -45.4409 H         1 UNK         0.0600 
    194 H194       -3.6726  -18.7814  -46.1204 H         1 UNK         0.0600 
    195 H195       -2.5086  -21.9578  -44.2003 H         1 UNK         0.3000 
    196 H196       -4.6093  -23.8284  -43.5337 H         1 UNK         0.0600 
    197 H197       -3.0757  -24.4523  -41.6951 H         1 UNK         0.0600 
    198 H198       -3.1348  -22.7007  -41.8421 H         1 UNK         0.0600 
    199 H199       -1.7486  -23.5946  -42.4669 H         1 UNK         0.0600 
    200 H200       -1.7154  -24.0328  -45.4921 H         1 UNK         0.3000 
    201 H201       -1.3607  -26.8981  -45.2868 H         1 UNK         0.0600 
    202 H202        0.3994  -26.5216  -46.9926 H         1 UNK         0.0600 
    203 H203        0.5483  -25.3642  -45.6789 H         1 UNK         0.0600 
    204 H204       -0.1440  -24.8656  -47.2221 H         1 UNK         0.0600 
    205 H205       -2.5362  -24.7030  -47.9175 H         1 UNK         0.3000 
    206 H206       -4.1347  -26.8660  -49.1155 H         1 UNK         0.0600 
    207 H207       -1.8307  -27.3446  -49.9765 H         1 UNK         0.0600 
    208 H208       -2.8790  -26.8003  -51.2696 H         1 UNK         0.0600 
    209 H209       -1.7026  -25.6909  -50.5722 H         1 UNK         0.0600 
    210 H210       -4.8536  -24.3643  -47.9300 H         1 UNK         0.3000 
    211 H211       -6.1708  -22.5885  -48.2255 H         1 UNK         0.0600 
    212 H212       -7.0136  -23.9102  -50.8539 H         1 UNK         0.0600 
    213 H213       -7.9312  -22.7315  -49.9275 H         1 UNK         0.0600 
    214 H214       -7.6459  -24.3299  -49.2624 H         1 UNK         0.0600 
    215 H215       -3.4303  -22.4197  -49.2600 H         1 UNK         0.3000 
    216 H216       -1.9936  -21.2275  -50.4250 H         1 UNK         0.0600 
    217 H217       -2.4228  -18.8127  -50.6603 H         1 UNK         0.0600 
    218 H218       -3.0524  -19.3560  -49.1161 H         1 UNK         0.0600 
    219 H219       -4.1531  -19.0460  -50.4597 H         1 UNK         0.0600 
    220 H220       -3.7051  -23.0115  -51.9499 H         1 UNK         0.3000 
    221 H221       -4.2767  -23.6554  -53.9766 H         1 UNK         0.0600 
    222 H222       -2.2195  -21.6418  -55.0316 H         1 UNK         0.0600 
    223 H223       -1.8388  -23.2678  -54.4676 H         1 UNK         0.0600 
    224 H224       -2.8407  -23.0410  -55.8926 H         1 UNK         0.0600 
    225 H225       -5.8132  -21.5106  -52.7497 H         1 UNK         0.3000 
    226 H226       -7.4398  -20.0694  -53.0476 H         1 UNK         0.0600 
    227 H227       -8.4209  -21.8158  -54.5627 H         1 UNK         0.0600 
    228 H228       -8.8961  -20.1910  -55.0269 H         1 UNK         0.0600 
    229 H229       -7.6602  -21.0346  -55.9487 H         1 UNK         0.0600 
    230 H230       -4.6769  -19.2902  -53.5092 H         1 UNK         0.3000 
    231 H231       -3.4232  -17.5753  -53.8921 H         1 UNK         0.0600 
    232 H232       -5.3050  -16.1079  -53.1175 H         1 UNK         0.0600 
    233 H233       -5.8403  -15.9284  -54.7885 H         1 UNK         0.0600 
    234 H234       -4.2715  -15.3146  -54.2935 H         1 UNK         0.0600 
    235 H235       -4.3091  -19.5501  -56.0760 H         1 UNK         0.3000 
    236 H236       -3.1392  -18.1420  -58.4440 H         1 UNK         0.0600 
    237 H237       -4.5669  -19.6619  -59.7943 H         1 UNK         0.0600 
    238 H238       -5.2742  -20.3403  -58.3311 H         1 UNK         0.0600 
    239 H239       -5.5565  -18.6528  -58.7499 H         1 UNK         0.0600 
    240 H240       -1.2164  -18.8475  -56.9723 H         1 UNK         0.3000 
    241 H241       -0.4741  -21.5947  -56.8992 H         1 UNK         0.0600 
    242 H242        0.7901  -20.4793  -60.5876 H         1 UNK         0.3800 
    243 H243       -0.3197  -19.4824  -59.6855 H         1 UNK         0.3800 
    244 H244        1.7479  -20.8051  -56.1567 H         1 UNK         0.0800 
    245 H245        1.3678  -19.1761  -56.6466 H         1 UNK         0.0800 
    246 H246        0.5164  -17.4470  -55.0179 H         1 UNK         0.0800 
    247 H247        1.9643  -18.1475  -54.3297 H         1 UNK         0.0800 
@<TRIPOS>BOND
     1    1    2 1    
     2    1  127 1    
     3    1  128 1    
     4    1  129 1    
     5    2    3 2    
     6    2    4 am   BACKBONE|DICT|INTERRES
     7    4    5 1    
     8    4  130 1    
     9    5    6 1    
    10    5   65 1    
    11    5  131 1    
    12    6    7 1    
    13    6  132 1    
    14    6  133 1    
    15    7    8 1    
    16    8    9 1    
    17    8  134 1    
    18    8  135 1    
    19    9   10 ar   
    20    9   14 ar   
    21   10   11 ar   
    22   10  136 1    
    23   11   12 ar   
    24   11  126 1    
    25   12   13 ar   
    26   12  137 1    
    27   13   14 ar   
    28   13   15 1    
    29   14  138 1    
    30   15   16 1    
    31   15  139 1    
    32   15  140 1    
    33   16   17 1    
    34   17   18 1    
    35   17  141 1    
    36   17  142 1    
    37   18   19 1    
    38   18   67 1    
    39   18  143 1    
    40   19   20 am   BACKBONE|DICT|INTERRES
    41   19  144 1    
    42   20   21 2    
    43   20   22 1    
    44   22   23 1    
    45   22   24 1    
    46   22  145 1    
    47   23  146 1    
    48   23  147 1    
    49   23  148 1    
    50   24   25 am   BACKBONE|DICT|INTERRES
    51   24  149 1    
    52   25   26 2    
    53   25   27 1    
    54   27   28 1    
    55   27   29 1    
    56   27  150 1    
    57   28  151 1    
    58   28  152 1    
    59   28  153 1    
    60   29   30 am   BACKBONE|DICT|INTERRES
    61   29  154 1    
    62   30   31 2    
    63   30   32 1    
    64   32   33 1    
    65   32   34 1    
    66   32  155 1    
    67   33  156 1    
    68   33  157 1    
    69   33  158 1    
    70   34   35 am   BACKBONE|DICT|INTERRES
    71   34  159 1    
    72   35   36 2    
    73   35   37 1    
    74   37   38 1    
    75   37   39 1    
    76   37  160 1    
    77   38  161 1    
    78   38  162 1    
    79   38  163 1    
    80   39   40 am   BACKBONE|DICT|INTERRES
    81   39  164 1    
    82   40   41 2    
    83   40   42 1    
    84   42   43 1    
    85   42   44 1    
    86   42  165 1    
    87   43  166 1    
    88   43  167 1    
    89   43  168 1    
    90   44   45 am   BACKBONE|DICT|INTERRES
    91   44  169 1    
    92   45   46 2    
    93   45   47 1    
    94   47   48 1    
    95   47   49 1    
    96   47  170 1    
    97   48  171 1    
    98   48  172 1    
    99   48  173 1    
   100   49   50 am   BACKBONE|DICT|INTERRES
   101   49  174 1    
   102   50   51 2    
   103   50   52 1    
   104   52   53 1    
   105   52   54 1    
   106   52  175 1    
   107   53  176 1    
   108   53  177 1    
   109   53  178 1    
   110   54   55 am   BACKBONE|DICT|INTERRES
   111   54  179 1    
   112   55   56 2    
   113   55   57 1    
   114   57   58 1    
   115   57   59 1    
   116   57  180 1    
   117   58  181 1    
   118   58  182 1    
   119   58  183 1    
   120   59   60 am   BACKBONE|DICT|INTERRES
   121   59  184 1    
   122   60   61 2    
   123   60   62 1    
   124   62   63 1    
   125   62   64 1    
   126   62  185 1    
   127   63  186 1    
   128   63  187 1    
   129   63  188 1    
   130   64   65 am   BACKBONE|DICT|INTERRES
   131   64  189 1    
   132   65   66 2    
   133   67   68 2    
   134   67   69 am   BACKBONE|DICT|INTERRES
   135   69   70 1    
   136   69  190 1    
   137   70   71 1    
   138   70   72 1    
   139   70  191 1    
   140   71  192 1    
   141   71  193 1    
   142   71  194 1    
   143   72   73 2    
   144   72   74 am   BACKBONE|DICT|INTERRES
   145   74   75 1    
   146   74  195 1    
   147   75   76 1    
   148   75   77 1    
   149   75  196 1    
   150   76  197 1    
   151   76  198 1    
   152   76  199 1    
   153   77   78 2    
   154   77   79 am   BACKBONE|DICT|INTERRES
   155   79   80 1    
   156   79  200 1    
   157   80   81 1    
   158   80   82 1    
   159   80  201 1    
   160   81  202 1    
   161   81  203 1    
   162   81  204 1    
   163   82   83 2    
   164   82   84 am   BACKBONE|DICT|INTERRES
   165   84   85 1    
   166   84  205 1    
   167   85   86 1    
   168   85   87 1    
   169   85  206 1    
   170   86  207 1    
   171   86  208 1    
   172   86  209 1    
   173   87   88 2    
   174   87   89 am   BACKBONE|DICT|INTERRES
   175   89   90 1    
   176   89  210 1    
   177   90   91 1    
   178   90   92 1    
   179   90  211 1    
   180   91  212 1    
   181   91  213 1    
   182   91  214 1    
   183   92   93 2    
   184   92   94 am   BACKBONE|DICT|INTERRES
   185   94   95 1    
   186   94  215 1    
   187   95   96 1    
   188   95   97 1    
   189   95  216 1    
   190   96  217 1    
   191   96  218 1    
   192   96  219 1    
   193   97   98 2    
   194   97   99 am   BACKBONE|DICT|INTERRES
   195   99  100 1    
   196   99  220 1    
   197  100  101 1    
   198  100  102 1    
   199  100  221 1    
   200  101  222 1    
   201  101  223 1    
   202  101  224 1    
   203  102  103 2    
   204  102  104 am   BACKBONE|DICT|INTERRES
   205  104  105 1    
   206  104  225 1    
   207  105  106 1    
   208  105  107 1    
   209  105  226 1    
   210  106  227 1    
   211  106  228 1    
   212  106  229 1    
   213  107  108 2    
   214  107  109 am   BACKBONE|DICT|INTERRES
   215  109  110 1    
   216  109  230 1    
   217  110  111 1    
   218  110  112 1    
   219  110  231 1    
   220  111  232 1    
   221  111  233 1    
   222  111  234 1    
   223  112  113 2    
   224  112  114 am   BACKBONE|DICT|INTERRES
   225  114  115 1    
   226  114  235 1    
   227  115  116 1    
   228  115  117 1    
   229  115  236 1    
   230  116  237 1    
   231  116  238 1    
   232  116  239 1    
   233  117  118 2    
   234  117  119 am   BACKBONE|DICT|INTERRES
   235  119  120 1    
   236  119  240 1    
   237  120  121 1    
   238  120  124 1    
   239  120  241 1    
   240  121  122 am   BACKBONE|DICT|INTERRES
   241  121  123 2    
   242  122  242 1    
   243  122  243 1    
   244  124  125 1    
   245  124  244 1    
   246  124  245 1    
   247  125  126 1    
   248  126  246 1    
   249  126  247 1    
@<TRIPOS>SUBSTRUCTURE
     1 UNK         1 GROUP             0       ****    0 ROOT    
