@<TRIPOS>MOLECULE
3R540
247   249    1
SMALL
USER_CHARGES


@<TRIPOS>ATOM
      1 CA         -5.9463  -10.6501  -45.8508 C.3       0 UNK        -0.1800 
      2 C          -4.5321  -11.1585  -45.6080 C.2       0 UNK         0.5000 
      3 O          -3.7732  -10.5299  -44.8701 O.2       0 UNK        -0.5000 
      4 N          -4.1744  -12.2862  -46.2327 N.am      1 UNK        -0.5000 
      5 CA         -2.8949  -12.9793  -46.0697 C.3       1 UNK         0.1400 
      6 C6         -2.6191  -13.9796  -47.2266 C.3       23 UNK        -0.0398 
      7 S7         -4.0125  -15.0908  -47.6396 S.3       23 UNK        -0.2404 
      8 C8         -3.2147  -16.7265  -47.5432 C.3       23 UNK        -0.0205 
      9 C9         -2.2412  -16.9815  -48.6880 C.ar      23 UNK        -0.0193 
     10 C10        -2.6550  -16.8199  -50.0144 C.ar      23 UNK        -0.1150 
     11 C11        -1.7655  -17.0332  -51.0694 C.ar      23 UNK        -0.0193 
     12 C12        -0.4590  -17.4446  -50.7928 C.ar      23 UNK        -0.1150 
     13 C13        -0.0313  -17.6177  -49.4729 C.ar      23 UNK        -0.0193 
     14 C14        -0.9276  -17.3850  -48.4233 C.ar      23 UNK        -0.1150 
     15 C15         1.4155  -18.0010  -49.1951 C.3       23 UNK        -0.0205 
     16 S16         1.6636  -19.8014  -49.1049 S.3       23 UNK        -0.2404 
     17 C17         1.4063  -20.1020  -47.3249 C.3       23 UNK        -0.0398 
     18 CA          0.6185  -21.3983  -47.0189 C.3       11 UNK         0.1400 
     19 N           0.7616  -21.7783  -45.6125 N.am      11 UNK        -0.5000 
     20 C           0.6064  -23.0183  -45.1296 C.2       10 UNK         0.5000 
     21 O           0.4142  -24.0075  -45.8355 O.2       10 UNK        -0.5000 
     22 CA          0.6584  -23.1793  -43.5966 C.3       10 UNK         0.1400 
     23 CB          2.0827  -23.5321  -43.1421 C.3       10 UNK        -0.1800 
     24 N           0.2125  -21.9819  -42.8800 N.am      10 UNK        -0.5000 
     25 C          -1.0523  -21.5379  -42.8523 C.2       9 UNK         0.5000 
     26 O          -1.9931  -22.1312  -43.3766 O.2       9 UNK        -0.5000 
     27 CA         -1.2972  -20.1754  -42.1729 C.3       9 UNK         0.1400 
     28 CB         -1.6292  -20.3683  -40.6861 C.3       9 UNK        -0.1800 
     29 N          -0.1727  -19.2416  -42.3010 N.am      9 UNK        -0.5000 
     30 C           0.3206  -18.7877  -43.4614 C.2       8 UNK         0.5000 
     31 O          -0.1113  -19.1302  -44.5638 O.2       8 UNK        -0.5000 
     32 CA          1.5580  -17.8785  -43.3584 C.3       8 UNK         0.1400 
     33 CB          2.8163  -18.7305  -43.1284 C.3       8 UNK        -0.1800 
     34 N           1.7839  -17.0370  -44.5335 N.am      8 UNK        -0.5000 
     35 C           0.9767  -16.0532  -44.9560 C.2       7 UNK         0.5000 
     36 O          -0.1328  -15.8287  -44.4738 O.2       7 UNK        -0.5000 
     37 CA          1.5229  -15.1339  -46.0683 C.3       7 UNK         0.1400 
     38 CB          1.0855  -13.6711  -45.8734 C.3       7 UNK        -0.1800 
     39 N           2.9844  -15.1643  -46.1025 N.am      7 UNK        -0.5000 
     40 C           3.7446  -15.2674  -47.2003 C.2       6 UNK         0.5000 
     41 O           3.2830  -15.3916  -48.3342 O.2       6 UNK        -0.5000 
     42 CA          5.2775  -15.1961  -47.0228 C.3       6 UNK         0.1400 
     43 CB          5.8526  -13.9818  -47.7706 C.3       6 UNK        -0.1800 
     44 N           5.7042  -15.1179  -45.6247 N.am      6 UNK        -0.5000 
     45 C           5.7517  -16.1464  -44.7682 C.2       5 UNK         0.5000 
     46 O           5.4781  -17.3061  -45.0760 O.2       5 UNK        -0.5000 
     47 CA          6.1124  -15.8024  -43.3087 C.3       5 UNK         0.1400 
     48 CB          7.6278  -15.9178  -43.0869 C.3       5 UNK        -0.1800 
     49 N           5.6624  -14.4667  -42.8938 N.am      5 UNK        -0.5000 
     50 C           4.3802  -14.0812  -42.8427 C.2       4 UNK         0.5000 
     51 O           3.4411  -14.8061  -43.1724 O.2       4 UNK        -0.5000 
     52 CA          4.1041  -12.6304  -42.4155 C.3       4 UNK         0.1400 
     53 CB          4.0905  -11.7056  -43.6425 C.3       4 UNK        -0.1800 
     54 N           2.8230  -12.5168  -41.7193 N.am      4 UNK        -0.5000 
     55 C           2.5893  -12.9619  -40.4806 C.2       3 UNK         0.5000 
     56 O           3.4537  -13.4792  -39.7710 O.2       3 UNK        -0.5000 
     57 CA          1.1642  -12.7924  -39.9209 C.3       3 UNK         0.1400 
     58 CB          0.8965  -11.3295  -39.5163 C.3       3 UNK        -0.1800 
     59 N           0.0810  -13.3195  -40.7633 N.am      3 UNK        -0.5000 
     60 C          -0.3590  -12.8839  -41.9519 C.2       2 UNK         0.5000 
     61 O           0.1839  -11.9929  -42.6129 O.2       2 UNK        -0.5000 
     62 CA         -1.6618  -13.5284  -42.4551 C.3       2 UNK         0.1400 
     63 CB         -2.8481  -13.1284  -41.5512 C.3       2 UNK        -0.1800 
     64 N          -1.9096  -13.0979  -43.8271 N.am      2 UNK        -0.5000 
     65 C          -2.8065  -13.6246  -44.6686 C.2       1 UNK         0.5000 
     66 O          -3.5644  -14.5503  -44.3709 O.2       1 UNK        -0.5000 
     67 C          -0.8730  -21.2736  -47.3906 C.2       11 UNK         0.5000 
     68 O          -1.2607  -21.6961  -48.4765 O.2       11 UNK        -0.5000 
     69 N          -1.6782  -20.7261  -46.4678 N.am      12 UNK        -0.5000 
     70 CA         -3.1219  -20.5227  -46.6043 C.3       12 UNK         0.1400 
     71 CB         -3.5873  -19.5911  -45.4740 C.3       12 UNK        -0.1800 
     72 C          -3.9546  -21.8205  -46.5671 C.2       12 UNK         0.5000 
     73 O          -5.0939  -21.8137  -47.0373 O.2       12 UNK        -0.5000 
     74 N          -3.3975  -22.8885  -45.9806 N.am      13 UNK        -0.5000 
     75 CA         -4.0374  -24.1835  -45.7393 C.3       13 UNK         0.1400 
     76 CB         -3.0070  -25.1322  -45.1083 C.3       13 UNK        -0.1800 
     77 C          -4.6510  -24.8274  -46.9980 C.2       13 UNK         0.5000 
     78 O          -4.0520  -24.7658  -48.0734 O.2       13 UNK        -0.5000 
     79 N          -5.8301  -25.4442  -46.8269 N.am      14 UNK        -0.5000 
     80 CA         -6.6190  -26.1409  -47.8523 C.3       14 UNK         0.1400 
     81 CB         -5.9075  -27.4395  -48.2881 C.3       14 UNK        -0.1800 
     82 C          -6.9935  -25.2322  -49.0429 C.2       14 UNK         0.5000 
     83 O          -6.8485  -25.6361  -50.1977 O.2       14 UNK        -0.5000 
     84 N          -7.4316  -24.0015  -48.7321 N.am      15 UNK        -0.5000 
     85 CA         -7.7393  -22.9160  -49.6744 C.3       15 UNK         0.1400 
     86 CB         -8.9869  -23.2553  -50.5174 C.3       15 UNK        -0.1800 
     87 C          -6.5126  -22.5445  -50.5326 C.2       15 UNK         0.5000 
     88 O          -6.6016  -22.4735  -51.7592 O.2       15 UNK        -0.5000 
     89 N          -5.3725  -22.3753  -49.8515 N.am      16 UNK        -0.5000 
     90 CA         -4.0307  -22.1648  -50.3942 C.3       16 UNK         0.1400 
     91 CB         -3.9070  -20.7518  -50.9894 C.3       16 UNK        -0.1800 
     92 C          -3.5950  -23.2879  -51.3559 C.2       16 UNK         0.5000 
     93 O          -3.1356  -23.0164  -52.4672 O.2       16 UNK        -0.5000 
     94 N          -3.7979  -24.5363  -50.9094 N.am      17 UNK        -0.5000 
     95 CA         -3.6199  -25.7903  -51.6466 C.3       17 UNK         0.1400 
     96 CB         -2.1200  -26.0577  -51.8907 C.3       17 UNK        -0.1800 
     97 C          -4.4602  -25.8281  -52.9408 C.2       17 UNK         0.5000 
     98 O          -3.9358  -26.1427  -54.0080 O.2       17 UNK        -0.5000 
     99 N          -5.7418  -25.4480  -52.8318 N.am      18 UNK        -0.5000 
    100 CA        -6.6874  -25.2138  -53.9316 C.3       18 UNK         0.1400 
    101 CB        -7.1028  -26.5481  -54.5842 C.3       18 UNK        -0.1800 
    102 C         -6.1520  -24.1779  -54.9475 C.2       18 UNK         0.5000 
    103 O         -6.1906  -24.4054  -56.1579 O.2       18 UNK        -0.5000 
    104 N         -5.6170  -23.0758  -54.4059 N.am      19 UNK        -0.5000 
    105 CA        -4.9268  -21.9628  -55.0640 C.3       19 UNK         0.1400 
    106 CB        -5.8645  -21.2289  -56.0432 C.3       19 UNK        -0.1800 
    107 C         -3.5705  -22.3146  -55.7160 C.2       19 UNK         0.5000 
    108 O         -2.9660  -21.4338  -56.3316 O.2       19 UNK        -0.5000 
    109 N         -3.0697  -23.5498  -55.5574 N.am      20 UNK        -0.5000 
    110 CA        -1.7793  -23.9819  -56.1046 C.3       20 UNK         0.1400 
    111 CB        -1.6635  -25.5116  -56.0539 C.3       20 UNK        -0.1800 
    112 C         -0.5694  -23.3285  -55.4109 C.2       20 UNK         0.5000 
    113 O          0.4832  -23.2097  -56.0395 O.2       20 UNK        -0.5000 
    114 N         -0.7312  -22.8955  -54.1509 N.am      21 UNK        -0.5000 
    115 CA         0.2782  -22.1161  -53.4301 C.3       21 UNK         0.1400 
    116 CB         0.0140  -22.1968  -51.9191 C.3       21 UNK        -0.1800 
    117 C          0.3250  -20.6488  -53.9020 C.2       21 UNK         0.5000 
    118 O          1.3707  -20.0097  -53.7796 O.2       21 UNK        -0.5000 
    119 N         -0.7946  -20.1490  -54.4411 N.am      22 UNK        -0.5000 
    120 CA        -0.9136  -18.8103  -55.0352 C.3       22 UNK         0.1400 
    121 C         -0.4453  -18.7875  -56.5136 C.2       22 UNK         0.5000 
    122 N         -0.8359  -19.7618  -57.3265 N.am      22 UNK        -0.7600 
    123 O          0.2766  -17.8837  -56.9252 O.2       22 UNK        -0.5000 
    124 C124       -2.3475  -18.2313  -54.9175 C.3       23 UNK        -0.0398 
    125 S125       -2.9908  -18.2628  -53.2131 S.3       23 UNK        -0.2404 
    126 C126       -2.2047  -16.7868  -52.5040 C.3       23 UNK        -0.0205 
    127 H127       -5.9166   -9.6508  -46.2850 H         1 UNK         0.0600 
    128 H128       -6.4928  -10.5981  -44.9092 H         1 UNK         0.0600 
    129 H129       -6.4996  -11.2996  -46.5297 H         1 UNK         0.0600 
    130 H130       -4.8495  -12.7764  -46.8030 H         1 UNK         0.3000 
    131 H131       -2.1120  -12.2197  -46.1301 H         1 UNK         0.0600 
    132 H132       -2.3823  -13.4188  -48.1315 H         1 UNK         0.0800 
    133 H133       -1.7295  -14.5743  -47.0168 H         1 UNK         0.0800 
    134 H134       -2.7126  -16.8091  -46.5783 H         1 UNK         0.0800 
    135 H135       -3.9881  -17.4946  -47.5651 H         1 UNK         0.0800 
    136 H136       -3.6683  -16.5087  -50.2263 H         1 UNK         0.1150 
    137 H137        0.2322  -17.6148  -51.6068 H         1 UNK         0.1150 
    138 H138       -0.6025  -17.5108  -47.4003 H         1 UNK         0.1150 
    139 H139        2.0566  -17.6018  -49.9826 H         1 UNK         0.0800 
    140 H140        1.7592  -17.5355  -48.2718 H         1 UNK         0.0800 
    141 H141        0.9226  -19.2386  -46.8704 H         1 UNK         0.0800 
    142 H142        2.3964  -20.1581  -46.8703 H         1 UNK         0.0800 
    143 H143        1.0441  -22.1995  -47.6275 H         1 UNK         0.0600 
    144 H144        0.8515  -21.0130  -44.9582 H         1 UNK         0.3000 
    145 H145       -0.0028  -24.0060  -43.3278 H         1 UNK         0.0600 
    146 H146        2.4389  -24.4349  -43.6401 H         1 UNK         0.0600 
    147 H147        2.7883  -22.7318  -43.3689 H         1 UNK         0.0600 
    148 H148        2.1193  -23.7190  -42.0687 H         1 UNK         0.0600 
    149 H149        0.9227  -21.4400  -42.4107 H         1 UNK         0.3000 
    150 H150       -2.1609  -19.7166  -42.6569 H         1 UNK         0.0600 
    151 H151       -2.4790  -21.0408  -40.5601 H         1 UNK         0.0600 
    152 H152       -1.8939  -19.4218  -40.2145 H         1 UNK         0.0600 
    153 H153       -0.7888  -20.7949  -40.1372 H         1 UNK         0.0600 
    154 H154        0.2482  -18.9316  -41.4370 H         1 UNK         0.3000 
    155 H155        1.4223  -17.2148  -42.5019 H         1 UNK         0.0600 
    156 H156        2.7152  -19.3630  -42.2456 H         1 UNK         0.0600 
    157 H157        3.6913  -18.1006  -42.9704 H         1 UNK         0.0600 
    158 H158        3.0226  -19.3817  -43.9790 H         1 UNK         0.0600 
    159 H159        2.6732  -17.1508  -44.9963 H         1 UNK         0.3000 
    160 H160        1.1103  -15.4994  -47.0101 H         1 UNK         0.0600 
    161 H161        1.3996  -13.2900  -44.9013 H         1 UNK         0.0600 
    162 H162        0.0052  -13.5698  -45.9255 H         1 UNK         0.0600 
    163 H163        1.5074  -13.0238  -46.6423 H         1 UNK         0.0600 
    164 H164        3.4305  -15.0719  -45.1956 H         1 UNK         0.3000 
    165 H165        5.6971  -16.1011  -47.4670 H         1 UNK         0.0600 
    166 H166        6.9396  -13.9495  -47.6941 H         1 UNK         0.0600 
    167 H167        5.6060  -14.0206  -48.8325 H         1 UNK         0.0600 
    168 H168        5.4591  -13.0440  -47.3764 H         1 UNK         0.0600 
    169 H169        5.9391  -14.1996  -45.2777 H         1 UNK         0.3000 
    170 H170        5.6174  -16.5342  -42.6671 H         1 UNK         0.0600 
    171 H171        7.9888  -16.9090  -43.3651 H         1 UNK         0.0600 
    172 H172        8.1792  -15.1887  -43.6820 H         1 UNK         0.0600 
    173 H173        7.8866  -15.7621  -42.0394 H         1 UNK         0.0600 
    174 H174        6.3833  -13.8148  -42.6187 H         1 UNK         0.3000 
    175 H175        4.8972  -12.3036  -41.7396 H         1 UNK         0.0600 
    176 H176        3.9139  -10.6697  -43.3523 H         1 UNK         0.0600 
    177 H177        5.0456  -11.7363  -44.1682 H         1 UNK         0.0600 
    178 H178        3.3154  -11.9893  -44.3546 H         1 UNK         0.0600 
    179 H179        2.0302  -12.1630  -42.2475 H         1 UNK         0.3000 
    180 H180        1.1255  -13.3851  -39.0054 H         1 UNK         0.0600 
    181 H181        0.9134  -10.6572  -40.3745 H         1 UNK         0.0600 
    182 H182        1.6517  -10.9764  -38.8129 H         1 UNK         0.0600 
    183 H183       -0.0734  -11.2267  -39.0296 H         1 UNK         0.0600 
    184 H184       -0.4287  -14.0825  -40.3403 H         1 UNK         0.3000 
    185 H185       -1.5353  -14.6127  -42.4421 H         1 UNK         0.0600 
    186 H186       -2.6783  -13.4213  -40.5147 H         1 UNK         0.0600 
    187 H187       -3.0123  -12.0502  -41.5649 H         1 UNK         0.0600 
    188 H188       -3.7744  -13.6090  -41.8653 H         1 UNK         0.0600 
    189 H189       -1.3149  -12.3324  -44.1205 H         1 UNK         0.3000 
    190 H190       -1.2504  -20.3518  -45.6274 H         1 UNK         0.3000 
    191 H191       -3.3012  -20.0315  -47.5630 H         1 UNK         0.0600 
    192 H192       -2.9333  -18.7271  -45.3648 H         1 UNK         0.0600 
    193 H193       -4.5956  -19.2221  -45.6649 H         1 UNK         0.0600 
    194 H194       -3.6077  -20.1075  -44.5141 H         1 UNK         0.0600 
    195 H195       -2.4776  -22.7682  -45.5805 H         1 UNK         0.3000 
    196 H196       -4.8352  -24.0107  -45.0146 H         1 UNK         0.0600 
    197 H197       -3.4499  -26.1046  -44.8890 H         1 UNK         0.0600 
    198 H198       -2.6222  -24.7325  -44.1699 H         1 UNK         0.0600 
    199 H199       -2.1590  -25.2997  -45.7738 H         1 UNK         0.0600 
    200 H200       -6.2408  -25.4367  -45.9033 H         1 UNK         0.3000 
    201 H201       -7.5610  -26.4253  -47.3813 H         1 UNK         0.0600 
    202 H202       -5.6964  -28.0787  -47.4309 H         1 UNK         0.0600 
    203 H203       -4.9632  -27.2361  -48.7932 H         1 UNK         0.0600 
    204 H204       -6.5287  -28.0152  -48.9753 H         1 UNK         0.0600 
    205 H205       -7.4822  -23.7551  -47.7535 H         1 UNK         0.3000 
    206 H206       -7.9739  -22.0360  -49.0738 H         1 UNK         0.0600 
    207 H207       -9.8384  -23.4959  -49.8812 H         1 UNK         0.0600 
    208 H208       -9.2764  -22.4086  -51.1409 H         1 UNK         0.0600 
    209 H209       -8.8142  -24.1031  -51.1808 H         1 UNK         0.0600 
    210 H210       -5.4113  -22.4402  -48.8382 H         1 UNK         0.3000 
    211 H211       -3.3650  -22.2309  -49.5399 H         1 UNK         0.0600 
    212 H212       -4.5402  -20.6253  -51.8673 H         1 UNK         0.0600 
    213 H213       -2.8802  -20.5452  -51.2891 H         1 UNK         0.0600 
    214 H214       -4.1852  -19.9902  -50.2611 H         1 UNK         0.0600 
    215 H215       -4.1249  -24.6388  -49.9510 H         1 UNK         0.3000 
    216 H216       -4.0024  -26.5855  -51.0059 H         1 UNK         0.0600 
    217 H217       -1.9670  -27.0321  -52.3556 H         1 UNK         0.0600 
    218 H218       -1.5631  -26.0536  -50.9537 H         1 UNK         0.0600 
    219 H219       -1.6748  -25.3089  -52.5462 H         1 UNK         0.0600 
    220 H220       -6.0992  -25.2570  -51.8984 H         1 UNK         0.3000 
    221 H221       -7.5779  -24.7723  -53.4818 H         1 UNK         0.0600 
    222 H222       -6.2655  -27.0321  -55.0878 H         1 UNK         0.0600 
    223 H223       -7.4948  -27.2432  -53.8418 H         1 UNK         0.0600 
    224 H224       -7.8854  -26.3915  -55.3274 H         1 UNK         0.0600 
    225 H225       -5.6817  -22.9878  -53.3947 H         1 UNK         0.3000 
    226 H226       -4.6868  -21.2629  -54.2626 H         1 UNK         0.0600 
    227 H227       -5.4074  -20.3075  -56.4060 H         1 UNK         0.0600 
    228 H228       -6.0998  -21.8396  -56.9150 H         1 UNK         0.0600 
    229 H229       -6.8022  -20.9547  -55.5600 H         1 UNK         0.0600 
    230 H230       -3.5845  -24.2293  -55.0098 H         1 UNK         0.3000 
    231 H231       -1.7524  -23.6843  -57.1550 H         1 UNK         0.0600 
    232 H232       -1.5653  -25.8739  -55.0306 H         1 UNK         0.0600 
    233 H233       -0.7836  -25.8512  -56.6015 H         1 UNK         0.0600 
    234 H234       -2.5327  -25.9925  -56.5031 H         1 UNK         0.0600 
    235 H235       -1.6271  -23.0259  -53.6860 H         1 UNK         0.3000 
    236 H236        1.2585  -22.5584  -53.6193 H         1 UNK         0.0600 
    237 H237       -0.0660  -23.2301  -51.5814 H         1 UNK         0.0600 
    238 H238        0.8262  -21.7325  -51.3594 H         1 UNK         0.0600 
    239 H239       -0.9036  -21.6807  -51.6408 H         1 UNK         0.0600 
    240 H240       -1.5972  -20.7527  -54.5405 H         1 UNK         0.3000 
    241 H241       -0.2521  -18.1381  -54.4855 H         1 UNK         0.0600 
    242 H242       -0.5343  -19.7605  -58.2877 H         1 UNK         0.3800 
    243 H243       -1.4966  -20.4651  -57.0054 H         1 UNK         0.3800 
    244 H244       -2.3812  -17.2054  -55.2887 H         1 UNK         0.0800 
    245 H245       -3.0411  -18.7999  -55.5391 H         1 UNK         0.0800 
    246 H246       -2.9069  -15.9530  -52.5458 H         1 UNK         0.0800 
    247 H247       -1.3434  -16.4872  -53.1021 H         1 UNK         0.0800 
@<TRIPOS>BOND
     1    1    2 1    
     2    1  127 1    
     3    1  128 1    
     4    1  129 1    
     5    2    3 2    
     6    2    4 am   BACKBONE|DICT|INTERRES
     7    4    5 1    
     8    4  130 1    
     9    5    6 1    
    10    5   65 1    
    11    5  131 1    
    12    6    7 1    
    13    6  132 1    
    14    6  133 1    
    15    7    8 1    
    16    8    9 1    
    17    8  134 1    
    18    8  135 1    
    19    9   10 ar   
    20    9   14 ar   
    21   10   11 ar   
    22   10  136 1    
    23   11   12 ar   
    24   11  126 1    
    25   12   13 ar   
    26   12  137 1    
    27   13   14 ar   
    28   13   15 1    
    29   14  138 1    
    30   15   16 1    
    31   15  139 1    
    32   15  140 1    
    33   16   17 1    
    34   17   18 1    
    35   17  141 1    
    36   17  142 1    
    37   18   19 1    
    38   18   67 1    
    39   18  143 1    
    40   19   20 am   BACKBONE|DICT|INTERRES
    41   19  144 1    
    42   20   21 2    
    43   20   22 1    
    44   22   23 1    
    45   22   24 1    
    46   22  145 1    
    47   23  146 1    
    48   23  147 1    
    49   23  148 1    
    50   24   25 am   BACKBONE|DICT|INTERRES
    51   24  149 1    
    52   25   26 2    
    53   25   27 1    
    54   27   28 1    
    55   27   29 1    
    56   27  150 1    
    57   28  151 1    
    58   28  152 1    
    59   28  153 1    
    60   29   30 am   BACKBONE|DICT|INTERRES
    61   29  154 1    
    62   30   31 2    
    63   30   32 1    
    64   32   33 1    
    65   32   34 1    
    66   32  155 1    
    67   33  156 1    
    68   33  157 1    
    69   33  158 1    
    70   34   35 am   BACKBONE|DICT|INTERRES
    71   34  159 1    
    72   35   36 2    
    73   35   37 1    
    74   37   38 1    
    75   37   39 1    
    76   37  160 1    
    77   38  161 1    
    78   38  162 1    
    79   38  163 1    
    80   39   40 am   BACKBONE|DICT|INTERRES
    81   39  164 1    
    82   40   41 2    
    83   40   42 1    
    84   42   43 1    
    85   42   44 1    
    86   42  165 1    
    87   43  166 1    
    88   43  167 1    
    89   43  168 1    
    90   44   45 am   BACKBONE|DICT|INTERRES
    91   44  169 1    
    92   45   46 2    
    93   45   47 1    
    94   47   48 1    
    95   47   49 1    
    96   47  170 1    
    97   48  171 1    
    98   48  172 1    
    99   48  173 1    
   100   49   50 am   BACKBONE|DICT|INTERRES
   101   49  174 1    
   102   50   51 2    
   103   50   52 1    
   104   52   53 1    
   105   52   54 1    
   106   52  175 1    
   107   53  176 1    
   108   53  177 1    
   109   53  178 1    
   110   54   55 am   BACKBONE|DICT|INTERRES
   111   54  179 1    
   112   55   56 2    
   113   55   57 1    
   114   57   58 1    
   115   57   59 1    
   116   57  180 1    
   117   58  181 1    
   118   58  182 1    
   119   58  183 1    
   120   59   60 am   BACKBONE|DICT|INTERRES
   121   59  184 1    
   122   60   61 2    
   123   60   62 1    
   124   62   63 1    
   125   62   64 1    
   126   62  185 1    
   127   63  186 1    
   128   63  187 1    
   129   63  188 1    
   130   64   65 am   BACKBONE|DICT|INTERRES
   131   64  189 1    
   132   65   66 2    
   133   67   68 2    
   134   67   69 am   BACKBONE|DICT|INTERRES
   135   69   70 1    
   136   69  190 1    
   137   70   71 1    
   138   70   72 1    
   139   70  191 1    
   140   71  192 1    
   141   71  193 1    
   142   71  194 1    
   143   72   73 2    
   144   72   74 am   BACKBONE|DICT|INTERRES
   145   74   75 1    
   146   74  195 1    
   147   75   76 1    
   148   75   77 1    
   149   75  196 1    
   150   76  197 1    
   151   76  198 1    
   152   76  199 1    
   153   77   78 2    
   154   77   79 am   BACKBONE|DICT|INTERRES
   155   79   80 1    
   156   79  200 1    
   157   80   81 1    
   158   80   82 1    
   159   80  201 1    
   160   81  202 1    
   161   81  203 1    
   162   81  204 1    
   163   82   83 2    
   164   82   84 am   BACKBONE|DICT|INTERRES
   165   84   85 1    
   166   84  205 1    
   167   85   86 1    
   168   85   87 1    
   169   85  206 1    
   170   86  207 1    
   171   86  208 1    
   172   86  209 1    
   173   87   88 2    
   174   87   89 am   BACKBONE|DICT|INTERRES
   175   89   90 1    
   176   89  210 1    
   177   90   91 1    
   178   90   92 1    
   179   90  211 1    
   180   91  212 1    
   181   91  213 1    
   182   91  214 1    
   183   92   93 2    
   184   92   94 am   BACKBONE|DICT|INTERRES
   185   94   95 1    
   186   94  215 1    
   187   95   96 1    
   188   95   97 1    
   189   95  216 1    
   190   96  217 1    
   191   96  218 1    
   192   96  219 1    
   193   97   98 2    
   194   97   99 am   BACKBONE|DICT|INTERRES
   195   99  100 1    
   196   99  220 1    
   197  100  101 1    
   198  100  102 1    
   199  100  221 1    
   200  101  222 1    
   201  101  223 1    
   202  101  224 1    
   203  102  103 2    
   204  102  104 am   BACKBONE|DICT|INTERRES
   205  104  105 1    
   206  104  225 1    
   207  105  106 1    
   208  105  107 1    
   209  105  226 1    
   210  106  227 1    
   211  106  228 1    
   212  106  229 1    
   213  107  108 2    
   214  107  109 am   BACKBONE|DICT|INTERRES
   215  109  110 1    
   216  109  230 1    
   217  110  111 1    
   218  110  112 1    
   219  110  231 1    
   220  111  232 1    
   221  111  233 1    
   222  111  234 1    
   223  112  113 2    
   224  112  114 am   BACKBONE|DICT|INTERRES
   225  114  115 1    
   226  114  235 1    
   227  115  116 1    
   228  115  117 1    
   229  115  236 1    
   230  116  237 1    
   231  116  238 1    
   232  116  239 1    
   233  117  118 2    
   234  117  119 am   BACKBONE|DICT|INTERRES
   235  119  120 1    
   236  119  240 1    
   237  120  121 1    
   238  120  124 1    
   239  120  241 1    
   240  121  122 am   BACKBONE|DICT|INTERRES
   241  121  123 2    
   242  122  242 1    
   243  122  243 1    
   244  124  125 1    
   245  124  244 1    
   246  124  245 1    
   247  125  126 1    
   248  126  246 1    
   249  126  247 1    
@<TRIPOS>SUBSTRUCTURE
     1 UNK         1 GROUP             0       ****    0 ROOT    
