@<TRIPOS>MOLECULE
3R540
247   249    1
SMALL
USER_CHARGES


@<TRIPOS>ATOM
      1 CA          5.9402  -14.5742  -47.9246 C.3       0 UNK        -0.1800 
      2 C           4.9747  -13.9294  -46.9413 C.2       0 UNK         0.5000 
      3 O           5.2097  -13.9677  -45.7334 O.2       0 UNK        -0.5000 
      4 N           3.8910  -13.3313  -47.4503 N.am      1 UNK        -0.5000 
      5 CA          2.8208  -12.6801  -46.6823 C.3       1 UNK         0.1400 
      6 C6          1.4853  -12.6671  -47.4708 C.3       23 UNK        -0.0398 
      7 S7          0.8045  -14.3397  -47.7339 S.3       23 UNK        -0.2404 
      8 C8          1.2777  -14.6718  -49.4608 C.3       23 UNK        -0.0205 
      9 C9          0.6528  -15.9600  -49.9787 C.ar      23 UNK        -0.0193 
     10 C10        -0.7090  -15.9925  -50.2874 C.ar      23 UNK        -0.1150 
     11 C11        -1.3049  -17.1614  -50.7666 C.ar      23 UNK        -0.0193 
     12 C12        -0.5193  -18.2997  -50.9738 C.ar      23 UNK        -0.1150 
     13 C13         0.8493  -18.2796  -50.6810 C.ar      23 UNK        -0.0193 
     14 C14         1.4267  -17.1097  -50.1722 C.ar      23 UNK        -0.1150 
     15 C15         1.7139  -19.5052  -50.9526 C.3       23 UNK        -0.0205 
     16 S16         1.9641  -20.5410  -49.4736 S.3       23 UNK        -0.2404 
     17 C17         0.3298  -21.3293  -49.3125 C.3       23 UNK        -0.0398 
     18 CA          0.3076  -22.5123  -48.3104 C.3       11 UNK         0.1400 
     19 N           0.4945  -22.0859  -46.9198 N.am      11 UNK        -0.5000 
     20 C           0.5721  -22.9015  -45.8576 C.2       10 UNK         0.5000 
     21 O           0.5465  -24.1298  -45.9330 O.2       10 UNK        -0.5000 
     22 CA          0.6342  -22.2368  -44.4697 C.3       10 UNK         0.1400 
     23 CB          2.0450  -21.7111  -44.1649 C.3       10 UNK        -0.1800 
     24 N          -0.3439  -21.1583  -44.3191 N.am      10 UNK        -0.5000 
     25 C          -1.6733  -21.3359  -44.3365 C.2       9 UNK         0.5000 
     26 O          -2.2169  -22.4335  -44.4515 O.2       9 UNK        -0.5000 
     27 CA         -2.5450  -20.0702  -44.2615 C.3       9 UNK         0.1400 
     28 CB         -2.6709  -19.5702  -42.8148 C.3       9 UNK        -0.1800 
     29 N          -2.0330  -18.9951  -45.1072 N.am      9 UNK        -0.5000 
     30 C          -1.9417  -19.0599  -46.4431 C.2       8 UNK         0.5000 
     31 O          -2.3255  -20.0147  -47.1184 O.2       8 UNK        -0.5000 
     32 CA         -1.2513  -17.8721  -47.1287 C.3       8 UNK         0.1400 
     33 CB         -2.2384  -16.7028  -47.2645 C.3       8 UNK        -0.1800 
     34 N          -0.0440  -17.4424  -46.4167 N.am      8 UNK        -0.5000 
     35 C           1.0298  -18.2224  -46.2170 C.2       7 UNK         0.5000 
     36 O           1.1036  -19.3841  -46.6031 O.2       7 UNK        -0.5000 
     37 CA          2.1935  -17.6503  -45.3920 C.3       7 UNK         0.1400 
     38 CB          3.2283  -16.9632  -46.2914 C.3       7 UNK        -0.1800 
     39 N           1.7415  -16.7368  -44.3447 N.am      7 UNK        -0.5000 
     40 C           1.0572  -17.1323  -43.2614 C.2       6 UNK         0.5000 
     41 O           0.7703  -18.3068  -43.0240 O.2       6 UNK        -0.5000 
     42 CA          0.5775  -16.0211  -42.3119 C.3       6 UNK         0.1400 
     43 CB          1.6901  -15.6204  -41.3319 C.3       6 UNK        -0.1800 
     44 N           0.1169  -14.8324  -43.0308 N.am      6 UNK        -0.5000 
     45 C          -0.9711  -14.7796  -43.8092 C.2       5 UNK         0.5000 
     46 O          -1.7028  -15.7520  -44.0007 O.2       5 UNK        -0.5000 
     47 CA         -1.2870  -13.4212  -44.4780 C.3       5 UNK         0.1400 
     48 CB         -2.7168  -13.3555  -45.0429 C.3       5 UNK        -0.1800 
     49 N          -1.0849  -12.2752  -43.5861 N.am      5 UNK        -0.5000 
     50 C           0.0944  -11.7273  -43.2725 C.2       4 UNK         0.5000 
     51 O           1.1744  -12.1600  -43.6825 O.2       4 UNK        -0.5000 
     52 CA          0.0555  -10.5400  -42.3018 C.3       4 UNK         0.1400 
     53 CB         -0.1298  -11.0223  -40.8521 C.3       4 UNK        -0.1800 
     54 N           1.3005   -9.7900  -42.4111 N.am      4 UNK        -0.5000 
     55 C           1.4592   -8.4868  -42.1661 C.2       3 UNK         0.5000 
     56 O           0.5421   -7.7554  -41.7896 O.2       3 UNK        -0.5000 
     57 CA          2.8595   -7.8732  -42.3871 C.3       3 UNK         0.1400 
     58 CB          3.6749   -7.8748  -41.0794 C.3       3 UNK        -0.1800 
     59 N           3.6332   -8.4429  -43.5024 N.am      3 UNK        -0.5000 
     60 C           4.1571   -9.6696  -43.6237 C.2       2 UNK         0.5000 
     61 O           4.0519  -10.5552  -42.7727 O.2       2 UNK        -0.5000 
     62 CA          4.9179   -9.9633  -44.9266 C.3       2 UNK         0.1400 
     63 CB          6.4205  -10.1393  -44.6590 C.3       2 UNK        -0.1800 
     64 N           4.3965  -11.1782  -45.5433 N.am      2 UNK        -0.5000 
     65 C           3.2432  -11.2657  -46.2159 C.2       1 UNK         0.5000 
     66 O           2.5464  -10.2847  -46.4842 O.2       1 UNK        -0.5000 
     67 C          -0.9916  -23.3237  -48.4778 C.2       11 UNK         0.5000 
     68 O          -0.9520  -24.4228  -49.0326 O.2       11 UNK        -0.5000 
     69 N          -2.1103  -22.7839  -47.9723 N.am      12 UNK        -0.5000 
     70 CA         -3.4252  -23.4197  -48.0291 C.3       12 UNK         0.1400 
     71 CB         -4.5007  -22.4390  -47.5418 C.3       12 UNK        -0.1800 
     72 C          -3.4901  -24.7435  -47.2487 C.2       12 UNK         0.5000 
     73 O          -4.0657  -25.7088  -47.7498 O.2       12 UNK        -0.5000 
     74 N          -2.8694  -24.7840  -46.0609 N.am      13 UNK        -0.5000 
     75 CA         -2.7530  -25.9842  -45.2316 C.3       13 UNK         0.1400 
     76 CB         -2.1924  -25.6105  -43.8513 C.3       13 UNK        -0.1800 
     77 C          -1.8959  -27.0829  -45.8854 C.2       13 UNK         0.5000 
     78 O          -2.2603  -28.2565  -45.8069 O.2       13 UNK        -0.5000 
     79 N          -0.7894  -26.6865  -46.5304 N.am      14 UNK        -0.5000 
     80 CA          0.1063  -27.5821  -47.2625 C.3       14 UNK         0.1400 
     81 CB          1.4038  -26.8394  -47.6169 C.3       14 UNK        -0.1800 
     82 C          -0.5477  -28.1729  -48.5243 C.2       14 UNK         0.5000 
     83 O          -0.3975  -29.3681  -48.7817 O.2       14 UNK        -0.5000 
     84 N          -1.2668  -27.3324  -49.2806 N.am      15 UNK        -0.5000 
     85 CA         -1.9905  -27.7306  -50.4887 C.3       15 UNK         0.1400 
     86 CB         -2.3460  -26.4746  -51.2970 C.3       15 UNK        -0.1800 
     87 C          -3.2682  -28.5372  -50.1954 C.2       15 UNK         0.5000 
     88 O          -3.6522  -29.3707  -51.0166 O.2       15 UNK        -0.5000 
     89 N          -3.9140  -28.2431  -49.0564 N.am      16 UNK        -0.5000 
     90 CA         -5.2533  -28.6857  -48.6513 C.3       16 UNK         0.1400 
     91 CB         -5.2930  -30.2097  -48.4147 C.3       16 UNK        -0.1800 
     92 C          -6.3384  -28.1834  -49.6300 C.2       16 UNK         0.5000 
     93 O          -7.2869  -28.9071  -49.9399 O.2       16 UNK        -0.5000 
     94 N          -6.1547  -26.9511  -50.1180 N.am      17 UNK        -0.5000 
     95 CA         -6.9322  -26.2935  -51.1628 C.3       17 UNK         0.1400 
     96 CB         -6.6337  -26.9492  -52.5276 C.3       17 UNK        -0.1800 
     97 C          -6.5630  -24.8009  -51.1782 C.2       17 UNK         0.5000 
     98 O          -5.6785  -24.3792  -50.4281 O.2       17 UNK        -0.5000 
     99 N          -7.2263  -24.0254  -52.0452 N.am      18 UNK        -0.5000 
    100 CA        -6.9506  -22.6075  -52.2886 C.3       18 UNK         0.1400 
    101 CB        -8.1672  -21.9726  -52.9860 C.3       18 UNK        -0.1800 
    102 C         -5.6498  -22.4200  -53.0978 C.2       18 UNK         0.5000 
    103 O         -5.6966  -22.1620  -54.3036 O.2       18 UNK        -0.5000 
    104 N         -4.5103  -22.6009  -52.4195 N.am      19 UNK        -0.5000 
    105 CA        -3.1533  -22.4611  -52.9459 C.3       19 UNK         0.1400 
    106 CB        -2.1565  -22.6831  -51.8032 C.3       19 UNK        -0.1800 
    107 C         -2.9155  -21.0836  -53.5853 C.2       19 UNK         0.5000 
    108 O         -3.2506  -20.0693  -52.9748 O.2       19 UNK        -0.5000 
    109 N         -2.3714  -21.0812  -54.8104 N.am      20 UNK        -0.5000 
    110 CA        -2.1153  -19.9027  -55.6519 C.3       20 UNK         0.1400 
    111 CB        -0.9986  -19.0321  -55.0364 C.3       20 UNK        -0.1800 
    112 C         -3.3868  -19.0895  -55.9980 C.2       20 UNK         0.5000 
    113 O         -3.2829  -17.9093  -56.3355 O.2       20 UNK        -0.5000 
    114 N         -4.5581  -19.7425  -55.9171 N.am      21 UNK        -0.5000 
    115 CA        -5.9057  -19.1875  -56.0732 C.3       21 UNK         0.1400 
    116 CB        -6.1360  -18.6704  -57.5092 C.3       21 UNK        -0.1800 
    117 C         -6.2638  -18.1512  -54.9851 C.2       21 UNK         0.5000 
    118 O         -7.0223  -17.2169  -55.2525 O.2       21 UNK        -0.5000 
    119 N         -5.7308  -18.3400  -53.7730 N.am      22 UNK        -0.5000 
    120 CA        -5.9700  -17.4941  -52.5985 C.3       22 UNK         0.1400 
    121 C         -6.0555  -18.3222  -51.2852 C.2       22 UNK         0.5000 
    122 N         -6.2675  -17.6797  -50.1436 N.am      22 UNK        -0.7600 
    123 O         -5.9680  -19.5469  -51.2813 O.2       22 UNK        -0.5000 
    124 C124       -5.0033  -16.2750  -52.5324 C.3       23 UNK        -0.0398 
    125 S125       -3.2209  -16.6508  -52.7016 S.3       23 UNK        -0.2404 
    126 C126       -2.8033  -17.1943  -51.0186 C.3       23 UNK        -0.0205 
    127 H127        5.6035  -14.4635  -48.9556 H         1 UNK         0.0600 
    128 H128        6.0348  -15.6389  -47.7108 H         1 UNK         0.0600 
    129 H129        6.9261  -14.1179  -47.8366 H         1 UNK         0.0600 
    130 H130        3.7818  -13.2960  -48.4528 H         1 UNK         0.3000 
    131 H131        2.6529  -13.2585  -45.7710 H         1 UNK         0.0600 
    132 H132        1.6023  -12.1547  -48.4270 H         1 UNK         0.0800 
    133 H133        0.7267  -12.1058  -46.9226 H         1 UNK         0.0800 
    134 H134        0.9576  -13.8423  -50.0931 H         1 UNK         0.0800 
    135 H135        2.3645  -14.7201  -49.5355 H         1 UNK         0.0800 
    136 H136       -1.3116  -15.1083  -50.1333 H         1 UNK         0.1150 
    137 H137       -0.9770  -19.1995  -51.3614 H         1 UNK         0.1150 
    138 H138        2.4825  -17.0921  -49.9415 H         1 UNK         0.1150 
    139 H139        1.2821  -20.1062  -51.7545 H         1 UNK         0.0800 
    140 H140        2.6901  -19.1814  -51.3161 H         1 UNK         0.0800 
    141 H141        0.0495  -21.6734  -50.3077 H         1 UNK         0.0800 
    142 H142       -0.3998  -20.5691  -49.0293 H         1 UNK         0.0800 
    143 H143        1.1347  -23.1818  -48.5556 H         1 UNK         0.0600 
    144 H144        0.5859  -21.0813  -46.7717 H         1 UNK         0.3000 
    145 H145        0.3959  -23.0013  -43.7272 H         1 UNK         0.0600 
    146 H146        2.0936  -21.2619  -43.1727 H         1 UNK         0.0600 
    147 H147        2.7741  -22.5218  -44.1923 H         1 UNK         0.0600 
    148 H148        2.3653  -20.9616  -44.8877 H         1 UNK         0.0600 
    149 H149        0.0200  -20.2189  -44.2273 H         1 UNK         0.3000 
    150 H150       -3.5428  -20.3311  -44.6203 H         1 UNK         0.0600 
    151 H151       -3.0818  -20.3471  -42.1689 H         1 UNK         0.0600 
    152 H152       -3.3361  -18.7087  -42.7521 H         1 UNK         0.0600 
    153 H153       -1.7051  -19.2770  -42.4022 H         1 UNK         0.0600 
    154 H154       -1.6891  -18.1661  -44.6402 H         1 UNK         0.3000 
    155 H155       -0.9457  -18.1901  -48.1259 H         1 UNK         0.0600 
    156 H156       -1.7665  -15.8192  -47.6900 H         1 UNK         0.0600 
    157 H157       -3.0684  -16.9766  -47.9159 H         1 UNK         0.0600 
    158 H158       -2.6681  -16.4229  -46.3041 H         1 UNK         0.0600 
    159 H159       -0.0379  -16.5010  -46.0556 H         1 UNK         0.3000 
    160 H160        2.6917  -18.4926  -44.9073 H         1 UNK         0.0600 
    161 H161        2.8200  -16.0804  -46.7779 H         1 UNK         0.0600 
    162 H162        3.5721  -17.6381  -47.0766 H         1 UNK         0.0600 
    163 H163        4.1039  -16.6583  -45.7185 H         1 UNK         0.0600 
    164 H164        1.9353  -15.7546  -44.4704 H         1 UNK         0.3000 
    165 H165       -0.2617  -16.4160  -41.7352 H         1 UNK         0.0600 
    166 H166        1.3321  -14.8876  -40.6084 H         1 UNK         0.0600 
    167 H167        2.0454  -16.4851  -40.7699 H         1 UNK         0.0600 
    168 H168        2.5479  -15.1885  -41.8493 H         1 UNK         0.0600 
    169 H169        0.6839  -13.9949  -42.9581 H         1 UNK         0.3000 
    170 H170       -0.6004  -13.3240  -45.3189 H         1 UNK         0.0600 
    171 H171       -2.8779  -14.1234  -45.7990 H         1 UNK         0.0600 
    172 H172       -3.4647  -13.4982  -44.2620 H         1 UNK         0.0600 
    173 H173       -2.9083  -12.3947  -45.5209 H         1 UNK         0.0600 
    174 H174       -1.9213  -11.8919  -43.1692 H         1 UNK         0.3000 
    175 H175       -0.7815   -9.8984  -42.5854 H         1 UNK         0.0600 
    176 H176       -1.0537  -11.5908  -40.7396 H         1 UNK         0.0600 
    177 H177        0.6929  -11.6654  -40.5365 H         1 UNK         0.0600 
    178 H178       -0.1816  -10.1822  -40.1594 H         1 UNK         0.0600 
    179 H179        2.1052  -10.3317  -42.7172 H         1 UNK         0.3000 
    180 H180        2.6922   -6.8298  -42.6592 H         1 UNK         0.0600 
    181 H181        3.8593   -8.8851  -40.7134 H         1 UNK         0.0600 
    182 H182        3.1448   -7.3379  -40.2916 H         1 UNK         0.0600 
    183 H183        4.6389   -7.3844  -41.2143 H         1 UNK         0.0600 
    184 H184        3.7498   -7.8142  -44.2853 H         1 UNK         0.3000 
    185 H185        4.7892   -9.1303  -45.6212 H         1 UNK         0.0600 
    186 H186        6.8432   -9.2425  -44.2043 H         1 UNK         0.0600 
    187 H187        6.6150  -10.9737  -43.9836 H         1 UNK         0.0600 
    188 H188        6.9665  -10.3238  -45.5844 H         1 UNK         0.0600 
    189 H189        4.8897  -12.0431  -45.3456 H         1 UNK         0.3000 
    190 H190       -2.0721  -21.8625  -47.5429 H         1 UNK         0.3000 
    191 H191       -3.6242  -23.6477  -49.0767 H         1 UNK         0.0600 
    192 H192       -4.3290  -22.1344  -46.5087 H         1 UNK         0.0600 
    193 H193       -5.4922  -22.8907  -47.5955 H         1 UNK         0.0600 
    194 H194       -4.5203  -21.5400  -48.1584 H         1 UNK         0.0600 
    195 H195       -2.4561  -23.9337  -45.6888 H         1 UNK         0.3000 
    196 H196       -3.7570  -26.3895  -45.0896 H         1 UNK         0.0600 
    197 H197       -2.0962  -26.4915  -43.2156 H         1 UNK         0.0600 
    198 H198       -2.8494  -24.9093  -43.3367 H         1 UNK         0.0600 
    199 H199       -1.2066  -25.1504  -43.9286 H         1 UNK         0.0600 
    200 H200       -0.5293  -25.7049  -46.5051 H         1 UNK         0.3000 
    201 H201        0.3642  -28.4129  -46.6024 H         1 UNK         0.0600 
    202 H202        1.9191  -26.4984  -46.7189 H         1 UNK         0.0600 
    203 H203        1.2118  -25.9670  -48.2423 H         1 UNK         0.0600 
    204 H204        2.0913  -27.4892  -48.1597 H         1 UNK         0.0600 
    205 H205       -1.2917  -26.3465  -49.0336 H         1 UNK         0.3000 
    206 H206       -1.3323  -28.3537  -51.0979 H         1 UNK         0.0600 
    207 H207       -1.4506  -25.9138  -51.5653 H         1 UNK         0.0600 
    208 H208       -2.8584  -26.7347  -52.2241 H         1 UNK         0.0600 
    209 H209       -3.0049  -25.8131  -50.7327 H         1 UNK         0.0600 
    210 H210       -3.5379  -27.4905  -48.4889 H         1 UNK         0.3000 
    211 H211       -5.4567  -28.2002  -47.6958 H         1 UNK         0.0600 
    212 H212       -5.1717  -30.7705  -49.3416 H         1 UNK         0.0600 
    213 H213       -6.2446  -30.5101  -47.9750 H         1 UNK         0.0600 
    214 H214       -4.5056  -30.5208  -47.7279 H         1 UNK         0.0600 
    215 H215       -5.3991  -26.3813  -49.7518 H         1 UNK         0.3000 
    216 H216       -7.9944  -26.3832  -50.9283 H         1 UNK         0.0600 
    217 H217       -5.5769  -26.8675  -52.7857 H         1 UNK         0.0600 
    218 H218       -7.2059  -26.4830  -53.3300 H         1 UNK         0.0600 
    219 H219       -6.8936  -28.0077  -52.5291 H         1 UNK         0.0600 
    220 H220       -7.9210  -24.4487  -52.6430 H         1 UNK         0.3000 
    221 H221       -6.8214  -22.1067  -51.3268 H         1 UNK         0.0600 
    222 H222       -9.0596  -22.0457  -52.3645 H         1 UNK         0.0600 
    223 H223       -8.3829  -22.4507  -53.9422 H         1 UNK         0.0600 
    224 H224       -7.9925  -20.9130  -53.1789 H         1 UNK         0.0600 
    225 H225       -4.5925  -22.8695  -51.4468 H         1 UNK         0.3000 
    226 H226       -3.0089  -23.2411  -53.6957 H         1 UNK         0.0600 
    227 H227       -2.3086  -23.6497  -51.3290 H         1 UNK         0.0600 
    228 H228       -1.1299  -22.6563  -52.1698 H         1 UNK         0.0600 
    229 H229       -2.2592  -21.9170  -51.0333 H         1 UNK         0.0600 
    230 H230       -2.1446  -21.9694  -55.2362 H         1 UNK         0.3000 
    231 H231       -1.7428  -20.2859  -56.6028 H         1 UNK         0.0600 
    232 H232       -1.3146  -18.5682  -54.1020 H         1 UNK         0.0600 
    233 H233       -0.7052  -18.2302  -55.7146 H         1 UNK         0.0600 
    234 H234       -0.1063  -19.6227  -54.8298 H         1 UNK         0.0600 
    235 H235       -4.5372  -20.7036  -55.5983 H         1 UNK         0.3000 
    236 H236       -6.5893  -20.0233  -55.9185 H         1 UNK         0.0600 
    237 H237       -7.1843  -18.4152  -57.6681 H         1 UNK         0.0600 
    238 H238       -5.5490  -17.7760  -57.7193 H         1 UNK         0.0600 
    239 H239       -5.8726  -19.4271  -58.2482 H         1 UNK         0.0600 
    240 H240       -5.0978  -19.1160  -53.6081 H         1 UNK         0.3000 
    241 H241       -6.9797  -17.0912  -52.6974 H         1 UNK         0.0600 
    242 H242       -6.3400  -18.2198  -49.2962 H         1 UNK         0.3800 
    243 H243       -6.3938  -16.6811  -50.1038 H         1 UNK         0.3800 
    244 H244       -5.1630  -15.6846  -51.6299 H         1 UNK         0.0800 
    245 H245       -5.2520  -15.6000  -53.3522 H         1 UNK         0.0800 
    246 H246       -3.1816  -18.2054  -50.8611 H         1 UNK         0.0800 
    247 H247       -3.3100  -16.5572  -50.2929 H         1 UNK         0.0800 
@<TRIPOS>BOND
     1    1    2 1    
     2    1  127 1    
     3    1  128 1    
     4    1  129 1    
     5    2    3 2    
     6    2    4 am   BACKBONE|DICT|INTERRES
     7    4    5 1    
     8    4  130 1    
     9    5    6 1    
    10    5   65 1    
    11    5  131 1    
    12    6    7 1    
    13    6  132 1    
    14    6  133 1    
    15    7    8 1    
    16    8    9 1    
    17    8  134 1    
    18    8  135 1    
    19    9   10 ar   
    20    9   14 ar   
    21   10   11 ar   
    22   10  136 1    
    23   11   12 ar   
    24   11  126 1    
    25   12   13 ar   
    26   12  137 1    
    27   13   14 ar   
    28   13   15 1    
    29   14  138 1    
    30   15   16 1    
    31   15  139 1    
    32   15  140 1    
    33   16   17 1    
    34   17   18 1    
    35   17  141 1    
    36   17  142 1    
    37   18   19 1    
    38   18   67 1    
    39   18  143 1    
    40   19   20 am   BACKBONE|DICT|INTERRES
    41   19  144 1    
    42   20   21 2    
    43   20   22 1    
    44   22   23 1    
    45   22   24 1    
    46   22  145 1    
    47   23  146 1    
    48   23  147 1    
    49   23  148 1    
    50   24   25 am   BACKBONE|DICT|INTERRES
    51   24  149 1    
    52   25   26 2    
    53   25   27 1    
    54   27   28 1    
    55   27   29 1    
    56   27  150 1    
    57   28  151 1    
    58   28  152 1    
    59   28  153 1    
    60   29   30 am   BACKBONE|DICT|INTERRES
    61   29  154 1    
    62   30   31 2    
    63   30   32 1    
    64   32   33 1    
    65   32   34 1    
    66   32  155 1    
    67   33  156 1    
    68   33  157 1    
    69   33  158 1    
    70   34   35 am   BACKBONE|DICT|INTERRES
    71   34  159 1    
    72   35   36 2    
    73   35   37 1    
    74   37   38 1    
    75   37   39 1    
    76   37  160 1    
    77   38  161 1    
    78   38  162 1    
    79   38  163 1    
    80   39   40 am   BACKBONE|DICT|INTERRES
    81   39  164 1    
    82   40   41 2    
    83   40   42 1    
    84   42   43 1    
    85   42   44 1    
    86   42  165 1    
    87   43  166 1    
    88   43  167 1    
    89   43  168 1    
    90   44   45 am   BACKBONE|DICT|INTERRES
    91   44  169 1    
    92   45   46 2    
    93   45   47 1    
    94   47   48 1    
    95   47   49 1    
    96   47  170 1    
    97   48  171 1    
    98   48  172 1    
    99   48  173 1    
   100   49   50 am   BACKBONE|DICT|INTERRES
   101   49  174 1    
   102   50   51 2    
   103   50   52 1    
   104   52   53 1    
   105   52   54 1    
   106   52  175 1    
   107   53  176 1    
   108   53  177 1    
   109   53  178 1    
   110   54   55 am   BACKBONE|DICT|INTERRES
   111   54  179 1    
   112   55   56 2    
   113   55   57 1    
   114   57   58 1    
   115   57   59 1    
   116   57  180 1    
   117   58  181 1    
   118   58  182 1    
   119   58  183 1    
   120   59   60 am   BACKBONE|DICT|INTERRES
   121   59  184 1    
   122   60   61 2    
   123   60   62 1    
   124   62   63 1    
   125   62   64 1    
   126   62  185 1    
   127   63  186 1    
   128   63  187 1    
   129   63  188 1    
   130   64   65 am   BACKBONE|DICT|INTERRES
   131   64  189 1    
   132   65   66 2    
   133   67   68 2    
   134   67   69 am   BACKBONE|DICT|INTERRES
   135   69   70 1    
   136   69  190 1    
   137   70   71 1    
   138   70   72 1    
   139   70  191 1    
   140   71  192 1    
   141   71  193 1    
   142   71  194 1    
   143   72   73 2    
   144   72   74 am   BACKBONE|DICT|INTERRES
   145   74   75 1    
   146   74  195 1    
   147   75   76 1    
   148   75   77 1    
   149   75  196 1    
   150   76  197 1    
   151   76  198 1    
   152   76  199 1    
   153   77   78 2    
   154   77   79 am   BACKBONE|DICT|INTERRES
   155   79   80 1    
   156   79  200 1    
   157   80   81 1    
   158   80   82 1    
   159   80  201 1    
   160   81  202 1    
   161   81  203 1    
   162   81  204 1    
   163   82   83 2    
   164   82   84 am   BACKBONE|DICT|INTERRES
   165   84   85 1    
   166   84  205 1    
   167   85   86 1    
   168   85   87 1    
   169   85  206 1    
   170   86  207 1    
   171   86  208 1    
   172   86  209 1    
   173   87   88 2    
   174   87   89 am   BACKBONE|DICT|INTERRES
   175   89   90 1    
   176   89  210 1    
   177   90   91 1    
   178   90   92 1    
   179   90  211 1    
   180   91  212 1    
   181   91  213 1    
   182   91  214 1    
   183   92   93 2    
   184   92   94 am   BACKBONE|DICT|INTERRES
   185   94   95 1    
   186   94  215 1    
   187   95   96 1    
   188   95   97 1    
   189   95  216 1    
   190   96  217 1    
   191   96  218 1    
   192   96  219 1    
   193   97   98 2    
   194   97   99 am   BACKBONE|DICT|INTERRES
   195   99  100 1    
   196   99  220 1    
   197  100  101 1    
   198  100  102 1    
   199  100  221 1    
   200  101  222 1    
   201  101  223 1    
   202  101  224 1    
   203  102  103 2    
   204  102  104 am   BACKBONE|DICT|INTERRES
   205  104  105 1    
   206  104  225 1    
   207  105  106 1    
   208  105  107 1    
   209  105  226 1    
   210  106  227 1    
   211  106  228 1    
   212  106  229 1    
   213  107  108 2    
   214  107  109 am   BACKBONE|DICT|INTERRES
   215  109  110 1    
   216  109  230 1    
   217  110  111 1    
   218  110  112 1    
   219  110  231 1    
   220  111  232 1    
   221  111  233 1    
   222  111  234 1    
   223  112  113 2    
   224  112  114 am   BACKBONE|DICT|INTERRES
   225  114  115 1    
   226  114  235 1    
   227  115  116 1    
   228  115  117 1    
   229  115  236 1    
   230  116  237 1    
   231  116  238 1    
   232  116  239 1    
   233  117  118 2    
   234  117  119 am   BACKBONE|DICT|INTERRES
   235  119  120 1    
   236  119  240 1    
   237  120  121 1    
   238  120  124 1    
   239  120  241 1    
   240  121  122 am   BACKBONE|DICT|INTERRES
   241  121  123 2    
   242  122  242 1    
   243  122  243 1    
   244  124  125 1    
   245  124  244 1    
   246  124  245 1    
   247  125  126 1    
   248  126  246 1    
   249  126  247 1    
@<TRIPOS>SUBSTRUCTURE
     1 UNK         1 GROUP             0       ****    0 ROOT    
