@<TRIPOS>MOLECULE
3R540
247   249    1
SMALL
USER_CHARGES


@<TRIPOS>ATOM
      1 CA          4.2214  -14.8762  -45.5048 C.3       0 UNK        -0.1800 
      2 C           3.4021  -14.2186  -46.6052 C.2       0 UNK         0.5000 
      3 O           3.8153  -13.1891  -47.1380 O.2       0 UNK        -0.5000 
      4 N           2.2447  -14.8093  -46.9391 N.am      1 UNK        -0.5000 
      5 CA          1.3208  -14.3815  -48.0050 C.3       1 UNK         0.1400 
      6 C6          1.9443  -14.4196  -49.4319 C.3       23 UNK        -0.0398 
      7 S7          2.8125  -15.9750  -49.8435 S.3       23 UNK        -0.2404 
      8 C8          1.6223  -16.7959  -50.9498 C.3       23 UNK        -0.0205 
      9 C9          2.2664  -17.9450  -51.7146 C.ar      23 UNK        -0.0193 
     10 C10         2.3700  -17.8884  -53.1071 C.ar      23 UNK        -0.1150 
     11 C11         2.9729  -18.9288  -53.8190 C.ar      23 UNK        -0.0193 
     12 C12         3.4769  -20.0347  -53.1289 C.ar      23 UNK        -0.1150 
     13 C13         3.3772  -20.1080  -51.7366 C.ar      23 UNK        -0.0193 
     14 C14         2.7689  -19.0611  -51.0372 C.ar      23 UNK        -0.1150 
     15 C15         3.9684  -21.2932  -50.9836 C.3       23 UNK        -0.0205 
     16 S16         3.1863  -22.8825  -51.4168 S.3       23 UNK        -0.2404 
     17 C17         1.4752  -22.6666  -50.8240 C.3       23 UNK        -0.0398 
     18 CA          1.2121  -23.3823  -49.4762 C.3       11 UNK         0.1400 
     19 N           2.0037  -22.8184  -48.3800 N.am      11 UNK        -0.5000 
     20 C           2.0718  -23.3199  -47.1387 C.2       10 UNK         0.5000 
     21 O           1.5132  -24.3578  -46.7838 O.2       10 UNK        -0.5000 
     22 CA          2.8559  -22.4832  -46.1103 C.3       10 UNK         0.1400 
     23 CB          4.3448  -22.8585  -46.1343 C.3       10 UNK        -0.1800 
     24 N           2.7164  -21.0370  -46.3160 N.am      10 UNK        -0.5000 
     25 C           1.5579  -20.3685  -46.2383 C.2       9 UNK         0.5000 
     26 O           0.4738  -20.9043  -46.0031 O.2       9 UNK        -0.5000 
     27 CA          1.6093  -18.8571  -46.5086 C.3       9 UNK         0.1400 
     28 CB          0.7426  -18.4910  -47.7217 C.3       9 UNK        -0.1800 
     29 N           1.1435  -18.1184  -45.3394 N.am      9 UNK        -0.5000 
     30 C           1.8782  -17.9351  -44.2338 C.2       8 UNK         0.5000 
     31 O           3.0577  -18.2749  -44.1353 O.2       8 UNK        -0.5000 
     32 CA          1.1866  -17.2582  -43.0382 C.3       8 UNK         0.1400 
     33 CB          1.1613  -15.7324  -43.2182 C.3       8 UNK        -0.1800 
     34 N          -0.1739  -17.7434  -42.8140 N.am      8 UNK        -0.5000 
     35 C          -0.4919  -18.9828  -42.4113 C.2       7 UNK         0.5000 
     36 O           0.3365  -19.8679  -42.1969 O.2       7 UNK        -0.5000 
     37 CA         -1.9849  -19.2798  -42.1953 C.3       7 UNK         0.1400 
     38 CB         -2.4246  -18.8314  -40.7924 C.3       7 UNK        -0.1800 
     39 N          -2.8058  -18.5982  -43.1944 N.am      7 UNK        -0.5000 
     40 C          -3.3056  -19.1828  -44.2904 C.2       6 UNK         0.5000 
     41 O          -3.2063  -20.3849  -44.5298 O.2       6 UNK        -0.5000 
     42 CA         -4.0562  -18.2850  -45.2947 C.3       6 UNK         0.1400 
     43 CB         -5.5746  -18.4244  -45.1097 C.3       6 UNK        -0.1800 
     44 N          -3.6980  -16.8681  -45.2242 N.am      6 UNK        -0.5000 
     45 C          -2.5009  -16.3626  -45.5497 C.2       5 UNK         0.5000 
     46 O          -1.5522  -17.0350  -45.9474 O.2       5 UNK        -0.5000 
     47 CA         -2.3161  -14.8513  -45.3457 C.3       5 UNK         0.1400 
     48 CB         -2.7900  -14.0780  -46.5847 C.3       5 UNK        -0.1800 
     49 N          -2.9744  -14.3099  -44.1537 N.am      5 UNK        -0.5000 
     50 C          -2.8166  -14.7411  -42.8940 C.2       4 UNK         0.5000 
     51 O          -2.2253  -15.7808  -42.5983 O.2       4 UNK        -0.5000 
     52 CA         -3.3717  -13.8204  -41.7866 C.3       4 UNK         0.1400 
     53 CB         -3.2557  -14.4469  -40.3855 C.3       4 UNK        -0.1800 
     54 N          -2.6558  -12.5433  -41.7959 N.am      4 UNK        -0.5000 
     55 C          -2.8584  -11.5582  -42.6795 C.2       3 UNK         0.5000 
     56 O          -3.7915  -11.5555  -43.4859 O.2       3 UNK        -0.5000 
     57 CA         -1.8148  -10.4260  -42.7472 C.3       3 UNK         0.1400 
     58 CB         -0.8102  -10.4050  -41.5721 C.3       3 UNK        -0.1800 
     59 N          -1.1199  -10.4648  -44.0401 N.am      3 UNK        -0.5000 
     60 C          -0.3726  -11.4686  -44.5246 C.2       2 UNK         0.5000 
     61 O          -0.0663  -12.4803  -43.8875 O.2       2 UNK        -0.5000 
     62 CA          0.1079  -11.3141  -45.9744 C.3       2 UNK         0.1400 
     63 CB          1.2091  -10.2447  -46.0893 C.3       2 UNK        -0.1800 
     64 N           0.6249  -12.5951  -46.4458 N.am      2 UNK        -0.5000 
     65 C           0.6506  -13.0127  -47.7168 C.2       1 UNK         0.5000 
     66 O           0.1666  -12.3624  -48.6446 O.2       1 UNK        -0.5000 
     67 C          -0.2920  -23.3532  -49.1462 C.2       11 UNK         0.5000 
     68 O          -0.9795  -24.3533  -49.3474 O.2       11 UNK        -0.5000 
     69 N          -0.7687  -22.2174  -48.6172 N.am      12 UNK        -0.5000 
     70 CA         -2.1621  -22.0227  -48.2264 C.3       12 UNK         0.1400 
     71 CB         -2.4413  -20.5349  -48.0067 C.3       12 UNK        -0.1800 
     72 C          -2.5401  -22.8293  -46.9804 C.2       12 UNK         0.5000 
     73 O          -3.6379  -23.3805  -46.9439 O.2       12 UNK        -0.5000 
     74 N          -1.6187  -22.9242  -46.0139 N.am      13 UNK        -0.5000 
     75 CA         -1.7759  -23.7317  -44.8055 C.3       13 UNK         0.1400 
     76 CB         -0.6013  -23.4582  -43.8546 C.3       13 UNK        -0.1800 
     77 C          -1.9018  -25.2370  -45.1134 C.2       13 UNK         0.5000 
     78 O          -2.6675  -25.9309  -44.4435 O.2       13 UNK        -0.5000 
     79 N          -1.1711  -25.7047  -46.1350 N.am      14 UNK        -0.5000 
     80 CA         -1.2403  -27.0708  -46.6454 C.3       14 UNK         0.1400 
     81 CB          0.0289  -27.3757  -47.4572 C.3       14 UNK        -0.1800 
     82 C          -2.5050  -27.3217  -47.4881 C.2       14 UNK         0.5000 
     83 O          -3.2077  -28.3040  -47.2461 O.2       14 UNK        -0.5000 
     84 N          -2.7595  -26.4522  -48.4764 N.am      15 UNK        -0.5000 
     85 CA         -3.8212  -26.6302  -49.4710 C.3       15 UNK         0.1400 
     86 CB         -3.4948  -25.7780  -50.7085 C.3       15 UNK        -0.1800 
     87 C          -5.2331  -26.2868  -48.9632 C.2       15 UNK         0.5000 
     88 O          -6.2048  -26.8090  -49.5097 O.2       15 UNK        -0.5000 
     89 N          -5.3240  -25.3814  -47.9773 N.am      16 UNK        -0.5000 
     90 CA         -6.5408  -24.7413  -47.4553 C.3       16 UNK         0.1400 
     91 CB         -7.5043  -25.7764  -46.8380 C.3       16 UNK        -0.1800 
     92 C          -7.2311  -23.8125  -48.4826 C.2       16 UNK         0.5000 
     93 O          -8.4111  -23.4942  -48.3284 O.2       16 UNK        -0.5000 
     94 N          -6.4845  -23.3915  -49.5139 N.am      17 UNK        -0.5000 
     95 CA         -6.9738  -22.5932  -50.6403 C.3       17 UNK         0.1400 
     96 CB         -6.0822  -22.8770  -51.8595 C.3       17 UNK        -0.1800 
     97 C          -7.0225  -21.0797  -50.3537 C.2       17 UNK         0.5000 
     98 O          -7.7507  -20.3704  -51.0489 O.2       17 UNK        -0.5000 
     99 N          -6.2547  -20.6311  -49.3473 N.am      18 UNK        -0.5000 
    100 CA        -6.0178  -19.2447  -48.9194 C.3       18 UNK         0.1400 
    101 CB        -7.3349  -18.5140  -48.5881 C.3       18 UNK        -0.1800 
    102 C         -5.1549  -18.4254  -49.9051 C.2       18 UNK         0.5000 
    103 O         -5.1476  -18.6909  -51.1084 O.2       18 UNK        -0.5000 
    104 N         -4.4576  -17.4185  -49.3553 N.am      19 UNK        -0.5000 
    105 CA        -3.6288  -16.4239  -50.0491 C.3       19 UNK         0.1400 
    106 CB        -4.5344  -15.3992  -50.7681 C.3       19 UNK        -0.1800 
    107 C         -2.5440  -17.0543  -50.9527 C.2       19 UNK         0.5000 
    108 O         -1.7989  -17.9175  -50.4860 O.2       19 UNK        -0.5000 
    109 N         -2.4591  -16.6203  -52.2182 N.am      20 UNK        -0.5000 
    110 CA        -1.5575  -17.1480  -53.2434 C.3       20 UNK         0.1400 
    111 CB        -1.3899  -16.0991  -54.3557 C.3       20 UNK        -0.1800 
    112 C         -2.0503  -18.5085  -53.7750 C.2       20 UNK         0.5000 
    113 O         -2.4779  -18.6211  -54.9262 O.2       20 UNK        -0.5000 
    114 N         -1.9833  -19.5218  -52.9043 N.am      21 UNK        -0.5000 
    115 CA        -2.4538  -20.8925  -53.1169 C.3       21 UNK         0.1400 
    116 CB        -2.3127  -21.6545  -51.7948 C.3       21 UNK        -0.1800 
    117 C         -1.7659  -21.6537  -54.2687 C.2       21 UNK         0.5000 
    118 O         -2.2868  -22.6814  -54.7035 O.2       21 UNK        -0.5000 
    119 N         -0.6337  -21.1337  -54.7589 N.am      22 UNK        -0.5000 
    120 CA         0.0146  -21.5613  -56.0064 C.3       22 UNK         0.1400 
    121 C         -0.8108  -21.2813  -57.3012 C.2       22 UNK         0.5000 
    122 N         -1.8059  -20.3999  -57.2824 N.am      22 UNK        -0.7600 
    123 O         -0.5466  -21.8841  -58.3380 O.2       22 UNK        -0.5000 
    124 C124        1.4544  -20.9980  -56.1173 C.3       23 UNK        -0.0398 
    125 S125        1.5272  -19.1697  -56.1695 S.3       23 UNK        -0.2404 
    126 C126        3.1045  -18.8349  -55.3303 C.3       23 UNK        -0.0205 
    127 H127        4.1916  -14.2693  -44.5999 H         1 UNK         0.0600 
    128 H128        3.8503  -15.8717  -45.2647 H         1 UNK         0.0600 
    129 H129        5.2609  -14.9733  -45.8177 H         1 UNK         0.0600 
    130 H130        1.9795  -15.6593  -46.4637 H         1 UNK         0.3000 
    131 H131        0.5037  -15.1038  -47.9916 H         1 UNK         0.0600 
    132 H132        1.1762  -14.2354  -50.1845 H         1 UNK         0.0800 
    133 H133        2.6656  -13.6090  -49.5473 H         1 UNK         0.0800 
    134 H134        1.2174  -16.0615  -51.6473 H         1 UNK         0.0800 
    135 H135        0.7788  -17.1707  -50.3708 H         1 UNK         0.0800 
    136 H136        1.9898  -17.0297  -53.6428 H         1 UNK         0.1150 
    137 H137        3.9568  -20.8370  -53.6716 H         1 UNK         0.1150 
    138 H138        2.7160  -19.0968  -49.9602 H         1 UNK         0.1150 
    139 H139        5.0318  -21.3566  -51.2181 H         1 UNK         0.0800 
    140 H140        3.9079  -21.1418  -49.9056 H         1 UNK         0.0800 
    141 H141        0.8237  -23.0732  -51.6002 H         1 UNK         0.0800 
    142 H142        1.2340  -21.6047  -50.7579 H         1 UNK         0.0800 
    143 H143        1.4976  -24.4311  -49.5836 H         1 UNK         0.0600 
    144 H144        2.5070  -21.9682  -48.5763 H         1 UNK         0.3000 
    145 H145        2.4591  -22.7187  -45.1207 H         1 UNK         0.0600 
    146 H146        4.8967  -22.3336  -45.3543 H         1 UNK         0.0600 
    147 H147        4.4803  -23.9273  -45.9628 H         1 UNK         0.0600 
    148 H148        4.8066  -22.6188  -47.0930 H         1 UNK         0.0600 
    149 H149        3.5690  -20.5232  -46.4860 H         1 UNK         0.3000 
    150 H150        2.6380  -18.5657  -46.7323 H         1 UNK         0.0600 
    151 H151        0.9836  -19.1038  -48.5883 H         1 UNK         0.0600 
    152 H152        0.8845  -17.4493  -48.0000 H         1 UNK         0.0600 
    153 H153       -0.3167  -18.6312  -47.5221 H         1 UNK         0.0600 
    154 H154        0.1656  -17.8432  -45.3436 H         1 UNK         0.3000 
    155 H155        1.7706  -17.4834  -42.1435 H         1 UNK         0.0600 
    156 H156        0.6242  -15.4414  -44.1199 H         1 UNK         0.0600 
    157 H157        2.1720  -15.3310  -43.2939 H         1 UNK         0.0600 
    158 H158        0.6808  -15.2401  -42.3723 H         1 UNK         0.0600 
    159 H159       -0.9172  -17.0551  -42.8948 H         1 UNK         0.3000 
    160 H160       -2.1232  -20.3612  -42.2611 H         1 UNK         0.0600 
    161 H161       -1.8384  -19.3330  -40.0214 H         1 UNK         0.0600 
    162 H162       -3.4723  -19.0730  -40.6133 H         1 UNK         0.0600 
    163 H163       -2.3005  -17.7568  -40.6521 H         1 UNK         0.0600 
    164 H164       -2.9002  -17.5946  -43.0854 H         1 UNK         0.3000 
    165 H165       -3.7990  -18.6347  -46.2941 H         1 UNK         0.0600 
    166 H166       -6.1212  -17.8308  -45.8419 H         1 UNK         0.0600 
    167 H167       -5.8898  -19.4617  -45.2315 H         1 UNK         0.0600 
    168 H168       -5.8882  -18.1009  -44.1164 H         1 UNK         0.0600 
    169 H169       -4.4032  -16.2363  -44.8733 H         1 UNK         0.3000 
    170 H170       -1.2476  -14.6694  -45.2285 H         1 UNK         0.0600 
    171 H171       -2.2693  -14.4180  -47.4805 H         1 UNK         0.0600 
    172 H172       -3.8598  -14.2044  -46.7552 H         1 UNK         0.0600 
    173 H173       -2.5913  -13.0109  -46.4837 H         1 UNK         0.0600 
    174 H174       -3.4536  -13.4238  -44.2712 H         1 UNK         0.3000 
    175 H175       -4.4301  -13.6482  -41.9930 H         1 UNK         0.0600 
    176 H176       -2.2172  -14.6395  -40.1131 H         1 UNK         0.0600 
    177 H177       -3.6859  -13.7943  -39.6256 H         1 UNK         0.0600 
    178 H178       -3.7895  -15.3969  -40.3373 H         1 UNK         0.0600 
    179 H179       -1.8313  -12.4931  -41.2151 H         1 UNK         0.3000 
    180 H180       -2.3752   -9.4904  -42.7187 H         1 UNK         0.0600 
    181 H181       -0.1927  -11.3025  -41.5295 H         1 UNK         0.0600 
    182 H182       -1.3281  -10.3127  -40.6166 H         1 UNK         0.0600 
    183 H183       -0.1382   -9.5507  -41.6544 H         1 UNK         0.0600 
    184 H184       -1.3243   -9.6883  -44.6535 H         1 UNK         0.3000 
    185 H185       -0.7515  -11.0224  -46.5816 H         1 UNK         0.0600 
    186 H186        0.8553   -9.2713  -45.7480 H         1 UNK         0.0600 
    187 H187        2.0834  -10.5063  -45.4918 H         1 UNK         0.0600 
    188 H188        1.5363  -10.1246  -47.1222 H         1 UNK         0.0600 
    189 H189        0.9886  -13.1911  -45.7137 H         1 UNK         0.3000 
    190 H190       -0.1317  -21.4653  -48.4037 H         1 UNK         0.3000 
    191 H191       -2.7967  -22.3731  -49.0418 H         1 UNK         0.0600 
    192 H192       -1.9092  -20.1516  -47.1365 H         1 UNK         0.0600 
    193 H193       -3.5018  -20.3800  -47.8278 H         1 UNK         0.0600 
    194 H194       -2.1606  -19.9399  -48.8743 H         1 UNK         0.0600 
    195 H195       -0.7738  -22.3644  -46.0880 H         1 UNK         0.3000 
    196 H196       -2.6961  -23.4122  -44.3118 H         1 UNK         0.0600 
    197 H197        0.3495  -23.7608  -44.2933 H         1 UNK         0.0600 
    198 H198       -0.7213  -24.0050  -42.9187 H         1 UNK         0.0600 
    199 H199       -0.5339  -22.3980  -43.6075 H         1 UNK         0.0600 
    200 H200       -0.5240  -25.0765  -46.5971 H         1 UNK         0.3000 
    201 H201       -1.2637  -27.7564  -45.7955 H         1 UNK         0.0600 
    202 H202        0.9216  -27.2834  -46.8383 H         1 UNK         0.0600 
    203 H203        0.1418  -26.6983  -48.3043 H         1 UNK         0.0600 
    204 H204        0.0079  -28.3933  -47.8492 H         1 UNK         0.0600 
    205 H205       -2.1164  -25.6806  -48.6375 H         1 UNK         0.3000 
    206 H206       -3.8309  -27.6778  -49.7797 H         1 UNK         0.0600 
    207 H207       -2.5276  -26.0507  -51.1313 H         1 UNK         0.0600 
    208 H208       -4.2416  -25.9181  -51.4913 H         1 UNK         0.0600 
    209 H209       -3.4660  -24.7145  -50.4692 H         1 UNK         0.0600 
    210 H210       -4.4634  -24.9827  -47.6114 H         1 UNK         0.3000 
    211 H211       -6.2105  -24.0900  -46.6453 H         1 UNK         0.0600 
    212 H212       -7.9687  -26.4061  -47.5969 H         1 UNK         0.0600 
    213 H213       -8.3083  -25.2826  -46.2913 H         1 UNK         0.0600 
    214 H214       -6.9855  -26.4257  -46.1327 H         1 UNK         0.0600 
    215 H215       -5.5281  -23.7071  -49.5597 H         1 UNK         0.3000 
    216 H216       -7.9893  -22.9137  -50.8835 H         1 UNK         0.0600 
    217 H217       -6.4275  -22.3252  -52.7349 H         1 UNK         0.0600 
    218 H218       -6.0922  -23.9359  -52.1190 H         1 UNK         0.0600 
    219 H219       -5.0488  -22.5855  -51.6764 H         1 UNK         0.0600 
    220 H220       -5.7192  -21.3291  -48.8535 H         1 UNK         0.3000 
    221 H221       -5.4616  -19.3230  -47.9869 H         1 UNK         0.0600 
    222 H222       -7.9328  -18.3203  -49.4786 H         1 UNK         0.0600 
    223 H223       -7.9432  -19.0919  -47.8922 H         1 UNK         0.0600 
    224 H224       -7.1387  -17.5480  -48.1220 H         1 UNK         0.0600 
    225 H225       -4.5091  -17.2970  -48.3553 H         1 UNK         0.3000 
    226 H226       -3.0839  -15.8891  -49.2708 H         1 UNK         0.0600 
    227 H227       -5.2464  -14.9559  -50.0716 H         1 UNK         0.0600 
    228 H228       -3.9531  -14.5779  -51.1890 H         1 UNK         0.0600 
    229 H229       -5.1079  -15.8569  -51.5752 H         1 UNK         0.0600 
    230 H230       -3.1317  -15.9358  -52.5312 H         1 UNK         0.3000 
    231 H231       -0.5761  -17.3135  -52.7975 H         1 UNK         0.0600 
    232 H232       -0.7093  -16.4581  -55.1292 H         1 UNK         0.0600 
    233 H233       -0.9727  -15.1719  -53.9627 H         1 UNK         0.0600 
    234 H234       -2.3402  -15.8634  -54.8363 H         1 UNK         0.0600 
    235 H235       -1.6830  -19.2916  -51.9625 H         1 UNK         0.3000 
    236 H236       -3.5156  -20.8379  -53.3657 H         1 UNK         0.0600 
    237 H237       -2.6030  -22.7008  -51.8987 H         1 UNK         0.0600 
    238 H238       -1.2859  -21.6304  -51.4328 H         1 UNK         0.0600 
    239 H239       -2.9512  -21.2090  -51.0326 H         1 UNK         0.0600 
    240 H240       -0.2804  -20.2819  -54.3499 H         1 UNK         0.3000 
    241 H241        0.1066  -22.6476  -55.9497 H         1 UNK         0.0600 
    242 H242       -2.3331  -20.2311  -58.1241 H         1 UNK         0.3800 
    243 H243       -2.0159  -19.8668  -56.4447 H         1 UNK         0.3800 
    244 H244        2.0414  -21.3580  -55.2721 H         1 UNK         0.0800 
    245 H245        1.9510  -21.3895  -57.0067 H         1 UNK         0.0800 
    246 H246        3.4371  -17.8309  -55.5979 H         1 UNK         0.0800 
    247 H247        3.8716  -19.5168  -55.7007 H         1 UNK         0.0800 
@<TRIPOS>BOND
     1    1    2 1    
     2    1  127 1    
     3    1  128 1    
     4    1  129 1    
     5    2    3 2    
     6    2    4 am   BACKBONE|DICT|INTERRES
     7    4    5 1    
     8    4  130 1    
     9    5    6 1    
    10    5   65 1    
    11    5  131 1    
    12    6    7 1    
    13    6  132 1    
    14    6  133 1    
    15    7    8 1    
    16    8    9 1    
    17    8  134 1    
    18    8  135 1    
    19    9   10 ar   
    20    9   14 ar   
    21   10   11 ar   
    22   10  136 1    
    23   11   12 ar   
    24   11  126 1    
    25   12   13 ar   
    26   12  137 1    
    27   13   14 ar   
    28   13   15 1    
    29   14  138 1    
    30   15   16 1    
    31   15  139 1    
    32   15  140 1    
    33   16   17 1    
    34   17   18 1    
    35   17  141 1    
    36   17  142 1    
    37   18   19 1    
    38   18   67 1    
    39   18  143 1    
    40   19   20 am   BACKBONE|DICT|INTERRES
    41   19  144 1    
    42   20   21 2    
    43   20   22 1    
    44   22   23 1    
    45   22   24 1    
    46   22  145 1    
    47   23  146 1    
    48   23  147 1    
    49   23  148 1    
    50   24   25 am   BACKBONE|DICT|INTERRES
    51   24  149 1    
    52   25   26 2    
    53   25   27 1    
    54   27   28 1    
    55   27   29 1    
    56   27  150 1    
    57   28  151 1    
    58   28  152 1    
    59   28  153 1    
    60   29   30 am   BACKBONE|DICT|INTERRES
    61   29  154 1    
    62   30   31 2    
    63   30   32 1    
    64   32   33 1    
    65   32   34 1    
    66   32  155 1    
    67   33  156 1    
    68   33  157 1    
    69   33  158 1    
    70   34   35 am   BACKBONE|DICT|INTERRES
    71   34  159 1    
    72   35   36 2    
    73   35   37 1    
    74   37   38 1    
    75   37   39 1    
    76   37  160 1    
    77   38  161 1    
    78   38  162 1    
    79   38  163 1    
    80   39   40 am   BACKBONE|DICT|INTERRES
    81   39  164 1    
    82   40   41 2    
    83   40   42 1    
    84   42   43 1    
    85   42   44 1    
    86   42  165 1    
    87   43  166 1    
    88   43  167 1    
    89   43  168 1    
    90   44   45 am   BACKBONE|DICT|INTERRES
    91   44  169 1    
    92   45   46 2    
    93   45   47 1    
    94   47   48 1    
    95   47   49 1    
    96   47  170 1    
    97   48  171 1    
    98   48  172 1    
    99   48  173 1    
   100   49   50 am   BACKBONE|DICT|INTERRES
   101   49  174 1    
   102   50   51 2    
   103   50   52 1    
   104   52   53 1    
   105   52   54 1    
   106   52  175 1    
   107   53  176 1    
   108   53  177 1    
   109   53  178 1    
   110   54   55 am   BACKBONE|DICT|INTERRES
   111   54  179 1    
   112   55   56 2    
   113   55   57 1    
   114   57   58 1    
   115   57   59 1    
   116   57  180 1    
   117   58  181 1    
   118   58  182 1    
   119   58  183 1    
   120   59   60 am   BACKBONE|DICT|INTERRES
   121   59  184 1    
   122   60   61 2    
   123   60   62 1    
   124   62   63 1    
   125   62   64 1    
   126   62  185 1    
   127   63  186 1    
   128   63  187 1    
   129   63  188 1    
   130   64   65 am   BACKBONE|DICT|INTERRES
   131   64  189 1    
   132   65   66 2    
   133   67   68 2    
   134   67   69 am   BACKBONE|DICT|INTERRES
   135   69   70 1    
   136   69  190 1    
   137   70   71 1    
   138   70   72 1    
   139   70  191 1    
   140   71  192 1    
   141   71  193 1    
   142   71  194 1    
   143   72   73 2    
   144   72   74 am   BACKBONE|DICT|INTERRES
   145   74   75 1    
   146   74  195 1    
   147   75   76 1    
   148   75   77 1    
   149   75  196 1    
   150   76  197 1    
   151   76  198 1    
   152   76  199 1    
   153   77   78 2    
   154   77   79 am   BACKBONE|DICT|INTERRES
   155   79   80 1    
   156   79  200 1    
   157   80   81 1    
   158   80   82 1    
   159   80  201 1    
   160   81  202 1    
   161   81  203 1    
   162   81  204 1    
   163   82   83 2    
   164   82   84 am   BACKBONE|DICT|INTERRES
   165   84   85 1    
   166   84  205 1    
   167   85   86 1    
   168   85   87 1    
   169   85  206 1    
   170   86  207 1    
   171   86  208 1    
   172   86  209 1    
   173   87   88 2    
   174   87   89 am   BACKBONE|DICT|INTERRES
   175   89   90 1    
   176   89  210 1    
   177   90   91 1    
   178   90   92 1    
   179   90  211 1    
   180   91  212 1    
   181   91  213 1    
   182   91  214 1    
   183   92   93 2    
   184   92   94 am   BACKBONE|DICT|INTERRES
   185   94   95 1    
   186   94  215 1    
   187   95   96 1    
   188   95   97 1    
   189   95  216 1    
   190   96  217 1    
   191   96  218 1    
   192   96  219 1    
   193   97   98 2    
   194   97   99 am   BACKBONE|DICT|INTERRES
   195   99  100 1    
   196   99  220 1    
   197  100  101 1    
   198  100  102 1    
   199  100  221 1    
   200  101  222 1    
   201  101  223 1    
   202  101  224 1    
   203  102  103 2    
   204  102  104 am   BACKBONE|DICT|INTERRES
   205  104  105 1    
   206  104  225 1    
   207  105  106 1    
   208  105  107 1    
   209  105  226 1    
   210  106  227 1    
   211  106  228 1    
   212  106  229 1    
   213  107  108 2    
   214  107  109 am   BACKBONE|DICT|INTERRES
   215  109  110 1    
   216  109  230 1    
   217  110  111 1    
   218  110  112 1    
   219  110  231 1    
   220  111  232 1    
   221  111  233 1    
   222  111  234 1    
   223  112  113 2    
   224  112  114 am   BACKBONE|DICT|INTERRES
   225  114  115 1    
   226  114  235 1    
   227  115  116 1    
   228  115  117 1    
   229  115  236 1    
   230  116  237 1    
   231  116  238 1    
   232  116  239 1    
   233  117  118 2    
   234  117  119 am   BACKBONE|DICT|INTERRES
   235  119  120 1    
   236  119  240 1    
   237  120  121 1    
   238  120  124 1    
   239  120  241 1    
   240  121  122 am   BACKBONE|DICT|INTERRES
   241  121  123 2    
   242  122  242 1    
   243  122  243 1    
   244  124  125 1    
   245  124  244 1    
   246  124  245 1    
   247  125  126 1    
   248  126  246 1    
   249  126  247 1    
@<TRIPOS>SUBSTRUCTURE
     1 UNK         1 GROUP             0       ****    0 ROOT    
