@<TRIPOS>MOLECULE
3R540
247   249    1
SMALL
USER_CHARGES


@<TRIPOS>ATOM
      1 CA          1.1035   -9.4111  -50.3947 C.3       0 UNK        -0.1800 
      2 C           2.3061  -10.0461  -49.7105 C.2       0 UNK         0.5000 
      3 O           3.4195   -9.5326  -49.8271 O.2       0 UNK        -0.5000 
      4 N           2.0873  -11.1638  -49.0074 N.am      1 UNK        -0.5000 
      5 CA          3.1059  -11.8918  -48.2431 C.3       1 UNK         0.1400 
      6 C6          2.6035  -13.2841  -47.7920 C.3       23 UNK        -0.0398 
      7 S7          2.1500  -14.3547  -49.1952 S.3       23 UNK        -0.2404 
      8 C8          0.5663  -15.0434  -48.6153 C.3       23 UNK        -0.0205 
      9 C9          0.1029  -16.2004  -49.4877 C.ar      23 UNK        -0.0193 
     10 C10        -1.1290  -16.1493  -50.1454 C.ar      23 UNK        -0.1150 
     11 C11        -1.5635  -17.2235  -50.9303 C.ar      23 UNK        -0.0193 
     12 C12        -0.7471  -18.3518  -51.0626 C.ar      23 UNK        -0.1150 
     13 C13         0.4978  -18.4047  -50.4275 C.ar      23 UNK        -0.0193 
     14 C14         0.9074  -17.3336  -49.6304 C.ar      23 UNK        -0.1150 
     15 C15         1.4254  -19.5949  -50.6286 C.3       23 UNK        -0.0205 
     16 S16         1.7213  -20.5076  -49.0831 S.3       23 UNK        -0.2404 
     17 C17         0.0592  -21.1781  -48.7761 C.3       23 UNK        -0.0398 
     18 CA          0.0922  -22.3741  -47.8015 C.3       11 UNK         0.1400 
     19 N           0.3594  -21.9558  -46.4243 N.am      11 UNK        -0.5000 
     20 C           0.5731  -22.7902  -45.3984 C.2       10 UNK         0.5000 
     21 O           0.6393  -24.0141  -45.5129 O.2       10 UNK        -0.5000 
     22 CA          0.6573  -22.1520  -44.0003 C.3       10 UNK         0.1400 
     23 CB          2.0454  -21.5442  -43.7504 C.3       10 UNK        -0.1800 
     24 N          -0.3797  -21.1379  -43.7948 N.am      10 UNK        -0.5000 
     25 C          -1.6945  -21.4035  -43.7866 C.2       9 UNK         0.5000 
     26 O          -2.1585  -22.5398  -43.8850 O.2       9 UNK        -0.5000 
     27 CA         -2.6556  -20.2058  -43.6852 C.3       9 UNK         0.1400 
     28 CB         -2.8322  -19.7807  -42.2202 C.3       9 UNK        -0.1800 
     29 N          -2.2289  -19.0570  -44.4855 N.am      9 UNK        -0.5000 
     30 C          -2.1540  -19.0413  -45.8245 C.2       8 UNK         0.5000 
     31 O          -2.4725  -19.9922  -46.5361 O.2       8 UNK        -0.5000 
     32 CA         -1.5694  -17.7741  -46.4785 C.3       8 UNK         0.1400 
     33 CB         -2.6197  -16.6586  -46.5737 C.3       8 UNK        -0.1800 
     34 N          -0.3856  -17.2757  -45.7773 N.am      8 UNK        -0.5000 
     35 C           0.7512  -17.9728  -45.6365 C.2       7 UNK         0.5000 
     36 O           0.9255  -19.1009  -46.0943 O.2       7 UNK        -0.5000 
     37 CA          1.8563  -17.3248  -44.7882 C.3       7 UNK         0.1400 
     38 CB          2.6517  -16.2933  -45.6031 C.3       7 UNK        -0.1800 
     39 N           1.3142  -16.7079  -43.5771 N.am      7 UNK        -0.5000 
     40 C           0.8027  -17.4045  -42.5513 C.2       6 UNK         0.5000 
     41 O           0.8057  -18.6341  -42.4905 O.2       6 UNK        -0.5000 
     42 CA          0.1232  -16.5938  -41.4339 C.3       6 UNK         0.1400 
     43 CB          1.1483  -16.1137  -40.3976 C.3       6 UNK        -0.1800 
     44 N          -0.6318  -15.4531  -41.9574 N.am      6 UNK        -0.5000 
     45 C          -1.7673  -15.5825  -42.6599 C.2       5 UNK         0.5000 
     46 O          -2.2803  -16.6687  -42.9211 O.2       5 UNK        -0.5000 
     47 CA         -2.4395  -14.3028  -43.1872 C.3       5 UNK         0.1400 
     48 CB         -3.4963  -13.8048  -42.1903 C.3       5 UNK        -0.1800 
     49 N          -1.5102  -13.2151  -43.4810 N.am      5 UNK        -0.5000 
     50 C          -0.5146  -13.2528  -44.3758 C.2       4 UNK         0.5000 
     51 O          -0.2342  -14.2471  -45.0506 O.2       4 UNK        -0.5000 
     52 CA          0.3246  -11.9667  -44.5293 C.3       4 UNK         0.1400 
     53 CB         -0.2533  -10.7397  -43.7896 C.3       4 UNK        -0.1800 
     54 N           1.7248  -12.1534  -44.1436 N.am      4 UNK        -0.5000 
     55 C           2.2061  -12.6714  -43.0018 C.2       3 UNK         0.5000 
     56 O           1.4944  -13.1316  -42.1075 O.2       3 UNK        -0.5000 
     57 CA          3.7401  -12.6863  -42.8248 C.3       3 UNK         0.1400 
     58 CB          4.2530  -14.1063  -42.5378 C.3       3 UNK        -0.1800 
     59 N           4.4459  -12.1569  -43.9963 N.am      3 UNK        -0.5000 
     60 C           4.8412  -10.8845  -44.1405 C.2       2 UNK         0.5000 
     61 O           4.7129  -10.0220  -43.2711 O.2       2 UNK        -0.5000 
     62 CA          5.4524  -10.5042  -45.5042 C.3       2 UNK         0.1400 
     63 CB          6.9670  -10.7621  -45.5061 C.3       2 UNK        -0.1800 
     64 N           4.8416  -11.2015  -46.6431 N.am      2 UNK        -0.5000 
     65 C           3.5590  -11.0791  -47.0131 C.2       1 UNK         0.5000 
     66 O           2.7336  -10.4053  -46.3926 O.2       1 UNK        -0.5000 
     67 C          -1.2024  -23.2025  -47.9124 C.2       11 UNK         0.5000 
     68 O          -1.1951  -24.2340  -48.5832 O.2       11 UNK        -0.5000 
     69 N          -2.2738  -22.7682  -47.2349 N.am      12 UNK        -0.5000 
     70 CA         -3.5601  -23.4649  -47.1909 C.3       12 UNK         0.1400 
     71 CB         -4.5906  -22.6079  -46.4440 C.3       12 UNK        -0.1800 
     72 C          -3.4634  -24.8623  -46.5550 C.2       12 UNK         0.5000 
     73 O          -4.0540  -25.8109  -47.0700 O.2       12 UNK        -0.5000 
     74 N          -2.6913  -24.9748  -45.4663 N.am      13 UNK        -0.5000 
     75 CA         -2.3954  -26.2415  -44.7992 C.3       13 UNK         0.1400 
     76 CB         -1.6941  -25.9595  -43.4618 C.3       13 UNK        -0.1800 
     77 C          -1.5511  -27.1907  -45.6716 C.2       13 UNK         0.5000 
     78 O          -1.7831  -28.4002  -45.6511 O.2       13 UNK        -0.5000 
     79 N          -0.5915  -26.6285  -46.4175 N.am      14 UNK        -0.5000 
     80 CA          0.3298  -27.3713  -47.2728 C.3       14 UNK         0.1400 
     81 CB          1.5740  -26.5097  -47.5402 C.3       14 UNK        -0.1800 
     82 C          -0.2925  -27.8341  -48.6027 C.2       14 UNK         0.5000 
     83 O          -0.0388  -28.9668  -49.0158 O.2       14 UNK        -0.5000 
     84 N          -1.0451  -26.9490  -49.2707 N.am      15 UNK        -0.5000 
     85 CA         -1.4026  -27.0848  -50.6860 C.3       15 UNK         0.1400 
     86 CB         -0.4682  -26.1808  -51.5112 C.3       15 UNK        -0.1800 
     87 C          -2.8894  -26.8170  -50.9875 C.2       15 UNK         0.5000 
     88 O          -3.2307  -26.5954  -52.1516 O.2       15 UNK        -0.5000 
     89 N          -3.7535  -26.8697  -49.9635 N.am      16 UNK        -0.5000 
     90 CA         -5.2146  -26.7283  -50.0251 C.3       16 UNK         0.1400 
     91 CB         -5.8556  -27.8948  -50.8095 C.3       16 UNK        -0.1800 
     92 C          -5.6496  -25.3383  -50.5299 C.2       16 UNK         0.5000 
     93 O          -5.7680  -24.4184  -49.7214 O.2       16 UNK        -0.5000 
     94 N          -5.8777  -25.2028  -51.8438 N.am      17 UNK        -0.5000 
     95 CA         -6.1434  -23.9267  -52.5136 C.3       17 UNK         0.1400 
     96 CB         -6.8024  -24.1942  -53.8741 C.3       17 UNK        -0.1800 
     97 C          -4.8636  -23.0860  -52.6907 C.2       17 UNK         0.5000 
     98 O          -4.9313  -21.8561  -52.6277 O.2       17 UNK        -0.5000 
     99 N          -3.7217  -23.7685  -52.8517 N.am      18 UNK        -0.5000 
    100 CA        -2.3805  -23.2195  -53.0361 C.3       18 UNK         0.1400 
    101 CB        -1.9178  -22.4860  -51.7594 C.3       18 UNK        -0.1800 
    102 C         -2.2473  -22.3903  -54.3314 C.2       18 UNK         0.5000 
    103 O         -2.7322  -22.8191  -55.3799 O.2       18 UNK        -0.5000 
    104 N         -1.5576  -21.2449  -54.2482 N.am      19 UNK        -0.5000 
    105 CA        -1.2083  -20.3693  -55.3703 C.3       19 UNK         0.1400 
    106 CB        -0.1273  -19.3842  -54.8950 C.3       19 UNK        -0.1800 
    107 C         -2.3964  -19.6010  -55.9847 C.2       19 UNK         0.5000 
    108 O         -2.2488  -19.0430  -57.0732 O.2       19 UNK        -0.5000 
    109 N         -3.5356  -19.5661  -55.2860 N.am      20 UNK        -0.5000 
    110 CA        -4.7570  -18.8930  -55.7087 C.3       20 UNK         0.1400 
    111 CB        -4.7034  -17.4033  -55.3028 C.3       20 UNK        -0.1800 
    112 C         -5.9444  -19.6748  -55.1300 C.2       20 UNK         0.5000 
    113 O         -6.1924  -20.7993  -55.5668 O.2       20 UNK        -0.5000 
    114 N         -6.6387  -19.0820  -54.1540 N.am      21 UNK        -0.5000 
    115 CA        -7.7410  -19.6884  -53.4089 C.3       21 UNK         0.1400 
    116 CB        -9.0782  -19.1529  -53.9532 C.3       21 UNK        -0.1800 
    117 C         -7.5734  -19.4481  -51.8961 C.2       21 UNK         0.5000 
    118 O         -8.5652  -19.4401  -51.1650 O.2       21 UNK        -0.5000 
    119 N         -6.3248  -19.2458  -51.4516 N.am      22 UNK        -0.5000 
    120 CA        -5.9555  -19.1139  -50.0321 C.3       22 UNK         0.1400 
    121 C         -6.1333  -20.4389  -49.2458 C.2       22 UNK         0.5000 
    122 N         -5.7954  -21.5704  -49.8479 N.am      22 UNK        -0.7600 
    123 O         -6.5951  -20.4330  -48.1090 O.2       22 UNK        -0.5000 
    124 C124       -4.5137  -18.5764  -49.8466 C.3       23 UNK        -0.0398 
    125 S125       -4.3086  -16.9086  -50.5559 S.3       23 UNK        -0.2404 
    126 C126       -2.8899  -17.1395  -51.6754 C.3       23 UNK        -0.0205 
    127 H127        0.9516   -8.3982  -50.0217 H         1 UNK         0.0600 
    128 H128        0.1896   -9.9790  -50.2182 H         1 UNK         0.0600 
    129 H129        1.2682   -9.3585  -51.4709 H         1 UNK         0.0600 
    130 H130        1.1505  -11.5343  -48.9485 H         1 UNK         0.3000 
    131 H131        3.9712  -12.0334  -48.8945 H         1 UNK         0.0600 
    132 H132        1.7494  -13.1838  -47.1197 H         1 UNK         0.0800 
    133 H133        3.3785  -13.8048  -47.2270 H         1 UNK         0.0800 
    134 H134        0.6731  -15.4018  -47.5926 H         1 UNK         0.0800 
    135 H135       -0.1818  -14.2497  -48.5885 H         1 UNK         0.0800 
    136 H136       -1.7559  -15.2741  -50.0473 H         1 UNK         0.1150 
    137 H137       -1.0693  -19.1771  -51.6800 H         1 UNK         0.1150 
    138 H138        1.8645  -17.3770  -49.1296 H         1 UNK         0.1150 
    139 H139        1.0343  -20.2758  -51.3859 H         1 UNK         0.0800 
    140 H140        2.3816  -19.2340  -51.0098 H         1 UNK         0.0800 
    141 H141       -0.3555  -21.4761  -49.7365 H         1 UNK         0.0800 
    142 H142       -0.5830  -20.3803  -48.4007 H         1 UNK         0.0800 
    143 H143        0.9076  -23.0357  -48.1021 H         1 UNK         0.0600 
    144 H144        0.3769  -20.9536  -46.2533 H         1 UNK         0.3000 
    145 H145        0.4991  -22.9439  -43.2652 H         1 UNK         0.0600 
    146 H146        2.8268  -22.2951  -43.8732 H         1 UNK         0.0600 
    147 H147        2.2624  -20.7297  -44.4412 H         1 UNK         0.0600 
    148 H148        2.1267  -21.1526  -42.7364 H         1 UNK         0.0600 
    149 H149       -0.0667  -20.1822  -43.6676 H         1 UNK         0.3000 
    150 H150       -3.6277  -20.5294  -44.0624 H         1 UNK         0.0600 
    151 H151       -3.1522  -20.6219  -41.6040 H         1 UNK         0.0600 
    152 H152       -3.5894  -19.0023  -42.1249 H         1 UNK         0.0600 
    153 H153       -1.9027  -19.3972  -41.7980 H         1 UNK         0.0600 
    154 H154       -2.0065  -18.2088  -43.9710 H         1 UNK         0.3000 
    155 H155       -1.2640  -18.0364  -47.4937 H         1 UNK         0.0600 
    156 H156       -2.9980  -16.3782  -45.5917 H         1 UNK         0.0600 
    157 H157       -2.2075  -15.7661  -47.0450 H         1 UNK         0.0600 
    158 H158       -3.4734  -16.9762  -47.1719 H         1 UNK         0.0600 
    159 H159       -0.4407  -16.3450  -45.3798 H         1 UNK         0.3000 
    160 H160        2.5452  -18.1195  -44.4936 H         1 UNK         0.0600 
    161 H161        2.1165  -15.3493  -45.6934 H         1 UNK         0.0600 
    162 H162        2.8561  -16.6561  -46.6117 H         1 UNK         0.0600 
    163 H163        3.6163  -16.0904  -45.1412 H         1 UNK         0.0600 
    164 H164        1.2115  -15.7030  -43.5774 H         1 UNK         0.3000 
    165 H165       -0.5776  -17.2587  -40.9242 H         1 UNK         0.0600 
    166 H166        0.6628  -15.5823  -39.5790 H         1 UNK         0.0600 
    167 H167        1.6881  -16.9568  -39.9645 H         1 UNK         0.0600 
    168 H168        1.8856  -15.4458  -40.8396 H         1 UNK         0.0600 
    169 H169       -0.2302  -14.5324  -41.8239 H         1 UNK         0.3000 
    170 H170       -2.9470  -14.5574  -44.1188 H         1 UNK         0.0600 
    171 H171       -4.2243  -14.5868  -41.9696 H         1 UNK         0.0600 
    172 H172       -3.0454  -13.4997  -41.2451 H         1 UNK         0.0600 
    173 H173       -4.0477  -12.9539  -42.5907 H         1 UNK         0.0600 
    174 H174       -1.6399  -12.3633  -42.9550 H         1 UNK         0.3000 
    175 H175        0.3240  -11.7354  -45.5952 H         1 UNK         0.0600 
    176 H176       -0.2470  -10.8705  -42.7067 H         1 UNK         0.0600 
    177 H177        0.3310   -9.8467  -44.0132 H         1 UNK         0.0600 
    178 H178       -1.2781  -10.5329  -44.1008 H         1 UNK         0.0600 
    179 H179        2.3918  -11.7582  -44.7933 H         1 UNK         0.3000 
    180 H180        3.9658  -12.0717  -41.9511 H         1 UNK         0.0600 
    181 H181        3.9526  -14.8094  -43.3121 H         1 UNK         0.0600 
    182 H182        3.8651  -14.4765  -41.5892 H         1 UNK         0.0600 
    183 H183        5.3406  -14.1274  -42.4670 H         1 UNK         0.0600 
    184 H184        4.6076  -12.8001  -44.7572 H         1 UNK         0.3000 
    185 H185        5.2905   -9.4336  -45.6470 H         1 UNK         0.0600 
    186 H186        7.4536  -10.2378  -44.6824 H         1 UNK         0.0600 
    187 H187        7.1958  -11.8233  -45.4002 H         1 UNK         0.0600 
    188 H188        7.4265  -10.4092  -46.4295 H         1 UNK         0.0600 
    189 H189        5.4610  -11.7761  -47.1971 H         1 UNK         0.3000 
    190 H190       -2.2268  -21.8721  -46.7573 H         1 UNK         0.3000 
    191 H191       -3.8907  -23.5820  -48.2228 H         1 UNK         0.0600 
    192 H192       -4.3723  -22.5427  -45.3786 H         1 UNK         0.0600 
    193 H193       -5.5917  -23.0271  -46.5497 H         1 UNK         0.0600 
    194 H194       -4.6182  -21.5935  -46.8379 H         1 UNK         0.0600 
    195 H195       -2.2825  -24.1351  -45.0666 H         1 UNK         0.3000 
    196 H196       -3.3436  -26.7398  -44.5867 H         1 UNK         0.0600 
    197 H197       -1.4836  -26.8867  -42.9275 H         1 UNK         0.0600 
    198 H198       -2.3169  -25.3432  -42.8130 H         1 UNK         0.0600 
    199 H199       -0.7464  -25.4396  -43.6052 H         1 UNK         0.0600 
    200 H200       -0.4361  -25.6296  -46.3391 H         1 UNK         0.3000 
    201 H201        0.6556  -28.2629  -46.7325 H         1 UNK         0.0600 
    202 H202        2.0804  -26.2502  -46.6103 H         1 UNK         0.0600 
    203 H203        1.3183  -25.5807  -48.0511 H         1 UNK         0.0600 
    204 H204        2.2928  -27.0416  -48.1647 H         1 UNK         0.0600 
    205 H205       -1.1846  -26.0215  -48.8708 H         1 UNK         0.3000 
    206 H206       -1.2369  -28.1116  -51.0168 H         1 UNK         0.0600 
    207 H207       -0.6647  -26.2699  -52.5801 H         1 UNK         0.0600 
    208 H208       -0.5829  -25.1329  -51.2346 H         1 UNK         0.0600 
    209 H209        0.5762  -26.4514  -51.3555 H         1 UNK         0.0600 
    210 H210       -3.3758  -26.9887  -49.0324 H         1 UNK         0.3000 
    211 H211       -5.5745  -26.8044  -48.9984 H         1 UNK         0.0600 
    212 H212       -5.5041  -27.9554  -51.8395 H         1 UNK         0.0600 
    213 H213       -6.9413  -27.7939  -50.8385 H         1 UNK         0.0600 
    214 H214       -5.6346  -28.8493  -50.3318 H         1 UNK         0.0600 
    215 H215       -5.7275  -26.0069  -52.4364 H         1 UNK         0.3000 
    216 H216       -6.8443  -23.3495  -51.9070 H         1 UNK         0.0600 
    217 H217       -6.1533  -24.7765  -54.5293 H         1 UNK         0.0600 
    218 H218       -7.0303  -23.2585  -54.3864 H         1 UNK         0.0600 
    219 H219       -7.7401  -24.7380  -53.7584 H         1 UNK         0.0600 
    220 H220       -3.7677  -24.7824  -52.8415 H         1 UNK         0.3000 
    221 H221       -1.7275  -24.0810  -53.1741 H         1 UNK         0.0600 
    222 H222       -2.4564  -21.5517  -51.5965 H         1 UNK         0.0600 
    223 H223       -2.0750  -23.1098  -50.8800 H         1 UNK         0.0600 
    224 H224       -0.8521  -22.2628  -51.8093 H         1 UNK         0.0600 
    225 H225       -1.1916  -20.9781  -53.3476 H         1 UNK         0.3000 
    226 H226       -0.7817  -20.9897  -56.1611 H         1 UNK         0.0600 
    227 H227        0.7451  -19.9088  -54.5047 H         1 UNK         0.0600 
    228 H228        0.2169  -18.7548  -55.7168 H         1 UNK         0.0600 
    229 H229       -0.5011  -18.7225  -54.1128 H         1 UNK         0.0600 
    230 H230       -3.6036  -20.1215  -54.4440 H         1 UNK         0.3000 
    231 H231       -4.8507  -18.9516  -56.7952 H         1 UNK         0.0600 
    232 H232       -5.6196  -16.8838  -55.5867 H         1 UNK         0.0600 
    233 H233       -3.8815  -16.8931  -55.8054 H         1 UNK         0.0600 
    234 H234       -4.5596  -17.2736  -54.2299 H         1 UNK         0.0600 
    235 H235       -6.3729  -18.1506  -53.8653 H         1 UNK         0.3000 
    236 H236       -7.7274  -20.7726  -53.5390 H         1 UNK         0.0600 
    237 H237       -9.1765  -19.3538  -55.0201 H         1 UNK         0.0600 
    238 H238       -9.9254  -19.6278  -53.4571 H         1 UNK         0.0600 
    239 H239       -9.1681  -18.0763  -53.8047 H         1 UNK         0.0600 
    240 H240       -5.5644  -19.3279  -52.1088 H         1 UNK         0.3000 
    241 H241       -6.6373  -18.3885  -49.5833 H         1 UNK         0.0600 
    242 H242       -5.4432  -21.5468  -50.7980 H         1 UNK         0.3800 
    243 H243       -5.9136  -22.4684  -49.3934 H         1 UNK         0.3800 
    244 H244       -4.2617  -18.5185  -48.7867 H         1 UNK         0.0800 
    245 H245       -3.7894  -19.2628  -50.2888 H         1 UNK         0.0800 
    246 H246       -2.8472  -16.2921  -52.3609 H         1 UNK         0.0800 
    247 H247       -3.0528  -18.0230  -52.2944 H         1 UNK         0.0800 
@<TRIPOS>BOND
     1    1    2 1    
     2    1  127 1    
     3    1  128 1    
     4    1  129 1    
     5    2    3 2    
     6    2    4 am   BACKBONE|DICT|INTERRES
     7    4    5 1    
     8    4  130 1    
     9    5    6 1    
    10    5   65 1    
    11    5  131 1    
    12    6    7 1    
    13    6  132 1    
    14    6  133 1    
    15    7    8 1    
    16    8    9 1    
    17    8  134 1    
    18    8  135 1    
    19    9   10 ar   
    20    9   14 ar   
    21   10   11 ar   
    22   10  136 1    
    23   11   12 ar   
    24   11  126 1    
    25   12   13 ar   
    26   12  137 1    
    27   13   14 ar   
    28   13   15 1    
    29   14  138 1    
    30   15   16 1    
    31   15  139 1    
    32   15  140 1    
    33   16   17 1    
    34   17   18 1    
    35   17  141 1    
    36   17  142 1    
    37   18   19 1    
    38   18   67 1    
    39   18  143 1    
    40   19   20 am   BACKBONE|DICT|INTERRES
    41   19  144 1    
    42   20   21 2    
    43   20   22 1    
    44   22   23 1    
    45   22   24 1    
    46   22  145 1    
    47   23  146 1    
    48   23  147 1    
    49   23  148 1    
    50   24   25 am   BACKBONE|DICT|INTERRES
    51   24  149 1    
    52   25   26 2    
    53   25   27 1    
    54   27   28 1    
    55   27   29 1    
    56   27  150 1    
    57   28  151 1    
    58   28  152 1    
    59   28  153 1    
    60   29   30 am   BACKBONE|DICT|INTERRES
    61   29  154 1    
    62   30   31 2    
    63   30   32 1    
    64   32   33 1    
    65   32   34 1    
    66   32  155 1    
    67   33  156 1    
    68   33  157 1    
    69   33  158 1    
    70   34   35 am   BACKBONE|DICT|INTERRES
    71   34  159 1    
    72   35   36 2    
    73   35   37 1    
    74   37   38 1    
    75   37   39 1    
    76   37  160 1    
    77   38  161 1    
    78   38  162 1    
    79   38  163 1    
    80   39   40 am   BACKBONE|DICT|INTERRES
    81   39  164 1    
    82   40   41 2    
    83   40   42 1    
    84   42   43 1    
    85   42   44 1    
    86   42  165 1    
    87   43  166 1    
    88   43  167 1    
    89   43  168 1    
    90   44   45 am   BACKBONE|DICT|INTERRES
    91   44  169 1    
    92   45   46 2    
    93   45   47 1    
    94   47   48 1    
    95   47   49 1    
    96   47  170 1    
    97   48  171 1    
    98   48  172 1    
    99   48  173 1    
   100   49   50 am   BACKBONE|DICT|INTERRES
   101   49  174 1    
   102   50   51 2    
   103   50   52 1    
   104   52   53 1    
   105   52   54 1    
   106   52  175 1    
   107   53  176 1    
   108   53  177 1    
   109   53  178 1    
   110   54   55 am   BACKBONE|DICT|INTERRES
   111   54  179 1    
   112   55   56 2    
   113   55   57 1    
   114   57   58 1    
   115   57   59 1    
   116   57  180 1    
   117   58  181 1    
   118   58  182 1    
   119   58  183 1    
   120   59   60 am   BACKBONE|DICT|INTERRES
   121   59  184 1    
   122   60   61 2    
   123   60   62 1    
   124   62   63 1    
   125   62   64 1    
   126   62  185 1    
   127   63  186 1    
   128   63  187 1    
   129   63  188 1    
   130   64   65 am   BACKBONE|DICT|INTERRES
   131   64  189 1    
   132   65   66 2    
   133   67   68 2    
   134   67   69 am   BACKBONE|DICT|INTERRES
   135   69   70 1    
   136   69  190 1    
   137   70   71 1    
   138   70   72 1    
   139   70  191 1    
   140   71  192 1    
   141   71  193 1    
   142   71  194 1    
   143   72   73 2    
   144   72   74 am   BACKBONE|DICT|INTERRES
   145   74   75 1    
   146   74  195 1    
   147   75   76 1    
   148   75   77 1    
   149   75  196 1    
   150   76  197 1    
   151   76  198 1    
   152   76  199 1    
   153   77   78 2    
   154   77   79 am   BACKBONE|DICT|INTERRES
   155   79   80 1    
   156   79  200 1    
   157   80   81 1    
   158   80   82 1    
   159   80  201 1    
   160   81  202 1    
   161   81  203 1    
   162   81  204 1    
   163   82   83 2    
   164   82   84 am   BACKBONE|DICT|INTERRES
   165   84   85 1    
   166   84  205 1    
   167   85   86 1    
   168   85   87 1    
   169   85  206 1    
   170   86  207 1    
   171   86  208 1    
   172   86  209 1    
   173   87   88 2    
   174   87   89 am   BACKBONE|DICT|INTERRES
   175   89   90 1    
   176   89  210 1    
   177   90   91 1    
   178   90   92 1    
   179   90  211 1    
   180   91  212 1    
   181   91  213 1    
   182   91  214 1    
   183   92   93 2    
   184   92   94 am   BACKBONE|DICT|INTERRES
   185   94   95 1    
   186   94  215 1    
   187   95   96 1    
   188   95   97 1    
   189   95  216 1    
   190   96  217 1    
   191   96  218 1    
   192   96  219 1    
   193   97   98 2    
   194   97   99 am   BACKBONE|DICT|INTERRES
   195   99  100 1    
   196   99  220 1    
   197  100  101 1    
   198  100  102 1    
   199  100  221 1    
   200  101  222 1    
   201  101  223 1    
   202  101  224 1    
   203  102  103 2    
   204  102  104 am   BACKBONE|DICT|INTERRES
   205  104  105 1    
   206  104  225 1    
   207  105  106 1    
   208  105  107 1    
   209  105  226 1    
   210  106  227 1    
   211  106  228 1    
   212  106  229 1    
   213  107  108 2    
   214  107  109 am   BACKBONE|DICT|INTERRES
   215  109  110 1    
   216  109  230 1    
   217  110  111 1    
   218  110  112 1    
   219  110  231 1    
   220  111  232 1    
   221  111  233 1    
   222  111  234 1    
   223  112  113 2    
   224  112  114 am   BACKBONE|DICT|INTERRES
   225  114  115 1    
   226  114  235 1    
   227  115  116 1    
   228  115  117 1    
   229  115  236 1    
   230  116  237 1    
   231  116  238 1    
   232  116  239 1    
   233  117  118 2    
   234  117  119 am   BACKBONE|DICT|INTERRES
   235  119  120 1    
   236  119  240 1    
   237  120  121 1    
   238  120  124 1    
   239  120  241 1    
   240  121  122 am   BACKBONE|DICT|INTERRES
   241  121  123 2    
   242  122  242 1    
   243  122  243 1    
   244  124  125 1    
   245  124  244 1    
   246  124  245 1    
   247  125  126 1    
   248  126  246 1    
   249  126  247 1    
@<TRIPOS>SUBSTRUCTURE
     1 UNK         1 GROUP             0       ****    0 ROOT    
