@<TRIPOS>MOLECULE
3R540
247   249    1
SMALL
USER_CHARGES


@<TRIPOS>ATOM
      1 CA          2.1433  -12.0311  -51.7610 C.3       0 UNK        -0.1800 
      2 C           2.7097  -12.6902  -50.5114 C.2       0 UNK         0.5000 
      3 O           3.1625  -11.9943  -49.6029 O.2       0 UNK        -0.5000 
      4 N           2.6857  -14.0280  -50.4633 N.am      1 UNK        -0.5000 
      5 CA          3.1847  -14.8325  -49.3400 C.3       1 UNK         0.1400 
      6 C6          3.5160  -16.2797  -49.7722 C.3       23 UNK        -0.0398 
      7 S7          4.9288  -16.3838  -50.9264 S.3       23 UNK        -0.2404 
      8 C8          4.3067  -17.5148  -52.2270 C.3       23 UNK        -0.0205 
      9 C9          3.8656  -18.9118  -51.7740 C.ar      23 UNK        -0.0193 
     10 C10         3.2055  -19.7317  -52.6960 C.ar      23 UNK        -0.1150 
     11 C11         2.7345  -20.9951  -52.3254 C.ar      23 UNK        -0.0193 
     12 C12         2.8931  -21.4263  -51.0061 C.ar      23 UNK        -0.1150 
     13 C13         3.5579  -20.6288  -50.0720 C.ar      23 UNK        -0.0193 
     14 C14         4.0826  -19.3985  -50.4782 C.ar      23 UNK        -0.1150 
     15 C15         3.7026  -21.1103  -48.6308 C.3       23 UNK        -0.0205 
     16 S16         3.4270  -19.8149  -47.3679 S.3       23 UNK        -0.2404 
     17 C17         1.8267  -19.0827  -47.8567 C.3       23 UNK        -0.0398 
     18 CA          0.6174  -20.0320  -47.6992 C.3       11 UNK         0.1400 
     19 N           0.4630  -20.5600  -46.3398 N.am      11 UNK        -0.5000 
     20 C          -0.3779  -21.5514  -46.0112 C.2       10 UNK         0.5000 
     21 O          -1.0476  -22.1746  -46.8347 O.2       10 UNK        -0.5000 
     22 CA         -0.5531  -21.8512  -44.5109 C.3       10 UNK         0.1400 
     23 CB          0.5315  -22.8111  -44.0003 C.3       10 UNK        -0.1800 
     24 N          -0.5622  -20.6244  -43.7115 N.am      10 UNK        -0.5000 
     25 C          -1.5579  -19.7257  -43.7431 C.2       9 UNK         0.5000 
     26 O          -2.5987  -19.8926  -44.3781 O.2       9 UNK        -0.5000 
     27 CA         -1.3387  -18.4000  -42.9908 C.3       9 UNK         0.1400 
     28 CB         -1.8016  -18.5155  -41.5316 C.3       9 UNK        -0.1800 
     29 N           0.0533  -17.9586  -43.0262 N.am      9 UNK        -0.5000 
     30 C           0.7171  -17.5869  -44.1268 C.2       8 UNK         0.5000 
     31 O           0.1953  -17.5109  -45.2364 O.2       8 UNK        -0.5000 
     32 CA          2.2230  -17.3057  -43.9766 C.3       8 UNK         0.1400 
     33 CB          2.4778  -15.8357  -43.6353 C.3       8 UNK        -0.1800 
     34 N           2.8557  -18.1438  -42.9600 N.am      8 UNK        -0.5000 
     35 C           3.0328  -19.4658  -43.0696 C.2       7 UNK         0.5000 
     36 O           2.6640  -20.1236  -44.0410 O.2       7 UNK        -0.5000 
     37 CA          3.6995  -20.1677  -41.8733 C.3       7 UNK         0.1400 
     38 CB          5.2270  -20.0197  -41.9389 C.3       7 UNK        -0.1800 
     39 N           3.2136  -19.6499  -40.5926 N.am      7 UNK        -0.5000 
     40 C           1.9917  -19.9008  -40.1032 C.2       6 UNK         0.5000 
     41 O           1.1711  -20.6328  -40.6581 O.2       6 UNK        -0.5000 
     42 CA          1.6103  -19.1863  -38.7910 C.3       6 UNK         0.1400 
     43 CB          2.1528  -19.9583  -37.5786 C.3       6 UNK        -0.1800 
     44 N           2.0417  -17.7839  -38.7078 N.am      6 UNK        -0.5000 
     45 C           1.6896  -16.8269  -39.5768 C.2       5 UNK         0.5000 
     46 O           1.0766  -17.0532  -40.6180 O.2       5 UNK        -0.5000 
     47 CA          2.1118  -15.3813  -39.2509 C.3       5 UNK         0.1400 
     48 CB          3.5200  -15.0979  -39.7962 C.3       5 UNK        -0.1800 
     49 N           1.1775  -14.3985  -39.8119 N.am      5 UNK        -0.5000 
     50 C          -0.1033  -14.2612  -39.4371 C.2       4 UNK         0.5000 
     51 O          -0.6105  -14.8999  -38.5132 O.2       4 UNK        -0.5000 
     52 CA         -0.9682  -13.2257  -40.1868 C.3       4 UNK         0.1400 
     53 CB         -1.2318  -12.0032  -39.2925 C.3       4 UNK        -0.1800 
     54 N          -0.4049  -12.7584  -41.4576 N.am      4 UNK        -0.5000 
     55 C          -0.4195  -13.4508  -42.6035 C.2       3 UNK         0.5000 
     56 O          -0.8583  -14.5993  -42.7053 O.2       3 UNK        -0.5000 
     57 CA          0.1396  -12.7315  -43.8446 C.3       3 UNK         0.1400 
     58 CB          1.6033  -12.2831  -43.6347 C.3       3 UNK        -0.1800 
     59 N           0.0125  -13.6256  -44.9947 N.am      3 UNK        -0.5000 
     60 C           0.1736  -13.3016  -46.2816 C.2       2 UNK         0.5000 
     61 O           0.4718  -12.1721  -46.6761 O.2       2 UNK        -0.5000 
     62 CA         -0.0848  -14.4202  -47.3095 C.3       2 UNK         0.1400 
     63 CB         -1.4492  -14.2247  -47.9893 C.3       2 UNK        -0.1800 
     64 N           0.9508  -14.4669  -48.3406 N.am      2 UNK        -0.5000 
     65 C           2.2166  -14.8558  -48.1347 C.2       1 UNK         0.5000 
     66 O           2.6323  -15.2554  -47.0473 O.2       1 UNK        -0.5000 
     67 C          -0.6716  -19.3436  -48.1969 C.2       11 UNK         0.5000 
     68 O          -1.0291  -19.5113  -49.3601 O.2       11 UNK        -0.5000 
     69 N          -1.3616  -18.6112  -47.3097 N.am      12 UNK        -0.5000 
     70 CA         -2.6559  -17.9796  -47.5721 C.3       12 UNK         0.1400 
     71 CB         -3.0376  -17.0568  -46.4041 C.3       12 UNK        -0.1800 
     72 C          -3.7668  -19.0109  -47.8364 C.2       12 UNK         0.5000 
     73 O          -4.5385  -18.8364  -48.7774 O.2       12 UNK        -0.5000 
     74 N          -3.7997  -20.0890  -47.0392 N.am      13 UNK        -0.5000 
     75 CA         -4.6925  -21.2366  -47.2218 C.3       13 UNK         0.1400 
     76 CB         -4.5165  -22.2149  -46.0506 C.3       13 UNK        -0.1800 
     77 C          -4.4737  -21.9448  -48.5728 C.2       13 UNK         0.5000 
     78 O          -5.4471  -22.2829  -49.2497 O.2       13 UNK        -0.5000 
     79 N          -3.1980  -22.1055  -48.9499 N.am      14 UNK        -0.5000 
     80 CA         -2.7548  -22.6643  -50.2263 C.3       14 UNK         0.1400 
     81 CB         -1.2689  -23.0405  -50.1191 C.3       14 UNK        -0.1800 
     82 C          -2.9955  -21.7397  -51.4379 C.2       14 UNK         0.5000 
     83 O          -2.9525  -22.2172  -52.5696 O.2       14 UNK        -0.5000 
     84 N          -3.2707  -20.4475  -51.2183 N.am      15 UNK        -0.5000 
     85 CA         -3.5520  -19.4683  -52.2702 C.3       15 UNK         0.1400 
     86 CB         -3.1234  -18.0677  -51.7962 C.3       15 UNK        -0.1800 
     87 C          -5.0244  -19.5282  -52.7329 C.2       15 UNK         0.5000 
     88 O          -5.6901  -18.4943  -52.8058 O.2       15 UNK        -0.5000 
     89 N          -5.5145  -20.7474  -53.0047 N.am      16 UNK        -0.5000 
     90 CA         -6.8640  -21.1229  -53.4465 C.3       16 UNK         0.1400 
     91 CB         -7.2409  -20.4008  -54.7588 C.3       16 UNK        -0.1800 
     92 C          -7.9701  -20.9410  -52.3847 C.2       16 UNK         0.5000 
     93 O          -9.1283  -21.2414  -52.6790 O.2       16 UNK        -0.5000 
     94 N          -7.6276  -20.4476  -51.1867 N.am      17 UNK        -0.5000 
     95 CA         -8.5818  -20.1174  -50.1282 C.3       17 UNK         0.1400 
     96 CB         -7.9077  -19.1980  -49.1013 C.3       17 UNK        -0.1800 
     97 C          -9.1740  -21.3608  -49.4446 C.2       17 UNK         0.5000 
     98 O         -10.3646  -21.3638  -49.1279 O.2       17 UNK        -0.5000 
     99 N          -8.3415  -22.3878  -49.2382 N.am      18 UNK        -0.5000 
    100 CA        -8.7305  -23.6604  -48.6308 C.3       18 UNK         0.1400 
    101 CB        -8.3058  -23.6676  -47.1542 C.3       18 UNK        -0.1800 
    102 C         -8.1399  -24.8702  -49.3732 C.2       18 UNK         0.5000 
    103 O         -8.7273  -25.9512  -49.3080 O.2       18 UNK        -0.5000 
    104 N         -7.0069  -24.6904  -50.0617 N.am      19 UNK        -0.5000 
    105 CA        -6.3037  -25.7320  -50.8030 C.3       19 UNK         0.1400 
    106 CB        -5.3538  -26.4746  -49.8436 C.3       19 UNK        -0.1800 
    107 C         -5.5283  -25.1048  -51.9702 C.2       19 UNK         0.5000 
    108 O         -5.4172  -23.8795  -52.0368 O.2       19 UNK        -0.5000 
    109 N         -4.9883  -25.9726  -52.8387 N.am      20 UNK        -0.5000 
    110 CA        -4.0645  -25.6881  -53.9432 C.3       20 UNK         0.1400 
    111 CB        -2.6287  -25.5360  -53.3942 C.3       20 UNK        -0.1800 
    112 C         -4.5305  -24.5479  -54.8786 C.2       20 UNK         0.5000 
    113 O         -5.6856  -24.5692  -55.3103 O.2       20 UNK        -0.5000 
    114 N         -3.6384  -23.6017  -55.1967 N.am      21 UNK        -0.5000 
    115 CA        -3.9078  -22.4364  -56.0352 C.3       21 UNK         0.1400 
    116 CB        -4.0968  -22.8340  -57.5129 C.3       21 UNK        -0.1800 
    117 C         -2.7919  -21.3927  -55.8930 C.2       21 UNK         0.5000 
    118 O         -3.0883  -20.2171  -55.6820 O.2       21 UNK        -0.5000 
    119 N         -1.5348  -21.8420  -56.0301 N.am      22 UNK        -0.5000 
    120 CA        -0.3053  -21.0219  -55.9807 C.3       22 UNK         0.1400 
    121 C         -0.1816  -19.9476  -57.1082 C.2       22 UNK         0.5000 
    122 N         -0.9063  -20.0644  -58.2144 N.am      22 UNK        -0.7600 
    123 O          0.6079  -19.0127  -57.0033 O.2       22 UNK        -0.5000 
    124 C124       -0.0058  -20.4480  -54.5651 C.3       23 UNK        -0.0398 
    125 S125        0.2662  -21.7693  -53.3377 S.3       23 UNK        -0.2404 
    126 C126        2.0787  -21.9134  -53.3461 C.3       23 UNK        -0.0205 
    127 H127        1.7830  -12.7668  -52.4806 H         1 UNK         0.0600 
    128 H128        2.9101  -11.4280  -52.2472 H         1 UNK         0.0600 
    129 H129        1.3114  -11.3783  -51.4966 H         1 UNK         0.0600 
    130 H130        2.3209  -14.5465  -51.2495 H         1 UNK         0.3000 
    131 H131        4.1090  -14.3758  -48.9789 H         1 UNK         0.0600 
    132 H132        3.7805  -16.8801  -48.8997 H         1 UNK         0.0800 
    133 H133        2.6385  -16.7532  -50.2157 H         1 UNK         0.0800 
    134 H134        5.0898  -17.6295  -52.9775 H         1 UNK         0.0800 
    135 H135        3.4707  -17.0254  -52.7289 H         1 UNK         0.0800 
    136 H136        3.0628  -19.3850  -53.7098 H         1 UNK         0.1150 
    137 H137        2.5053  -22.3917  -50.7117 H         1 UNK         0.1150 
    138 H138        4.6298  -18.8126  -49.7570 H         1 UNK         0.1150 
    139 H139        3.0127  -21.9319  -48.4323 H         1 UNK         0.0800 
    140 H140        4.7063  -21.5159  -48.4995 H         1 UNK         0.0800 
    141 H141        1.8999  -18.7413  -48.8893 H         1 UNK         0.0800 
    142 H142        1.6862  -18.1801  -47.2613 H         1 UNK         0.0800 
    143 H143        0.7856  -20.8872  -48.3566 H         1 UNK         0.0600 
    144 H144        1.0189  -20.1252  -45.6137 H         1 UNK         0.3000 
    145 H145       -1.5189  -22.3440  -44.3805 H         1 UNK         0.0600 
    146 H146        0.4161  -23.0070  -42.9340 H         1 UNK         0.0600 
    147 H147        0.4709  -23.7697  -44.5166 H         1 UNK         0.0600 
    148 H148        1.5351  -22.4203  -44.1627 H         1 UNK         0.0600 
    149 H149        0.2685  -20.4169  -43.1739 H         1 UNK         0.3000 
    150 H150       -1.9426  -17.6326  -43.4784 H         1 UNK         0.0600 
    151 H151       -2.8468  -18.8219  -41.4758 H         1 UNK         0.0600 
    152 H152       -1.7139  -17.5585  -41.0162 H         1 UNK         0.0600 
    153 H153       -1.2123  -19.2478  -40.9791 H         1 UNK         0.0600 
    154 H154        0.5254  -17.8707  -42.1284 H         1 UNK         0.3000 
    155 H155        2.6996  -17.5193  -44.9359 H         1 UNK         0.0600 
    156 H156        1.9534  -15.5348  -42.7282 H         1 UNK         0.0600 
    157 H157        2.1339  -15.1970  -44.4462 H         1 UNK         0.0600 
    158 H158        3.5404  -15.6352  -43.4990 H         1 UNK         0.0600 
    159 H159        3.1251  -17.6889  -42.1015 H         1 UNK         0.3000 
    160 H160        3.4587  -21.2315  -41.9338 H         1 UNK         0.0600 
    161 H161        5.5369  -18.9767  -41.8626 H         1 UNK         0.0600 
    162 H162        5.6156  -20.4096  -42.8807 H         1 UNK         0.0600 
    163 H163        5.7111  -20.5736  -41.1344 H         1 UNK         0.0600 
    164 H164        3.8289  -19.0404  -40.0743 H         1 UNK         0.3000 
    165 H165        0.5198  -19.1902  -38.7310 H         1 UNK         0.0600 
    166 H166        1.7887  -19.5318  -36.6438 H         1 UNK         0.0600 
    167 H167        1.8330  -21.0010  -37.6039 H         1 UNK         0.0600 
    168 H168        3.2431  -19.9499  -37.5502 H         1 UNK         0.0600 
    169 H169        2.5661  -17.5263  -37.8842 H         1 UNK         0.3000 
    170 H170        2.1231  -15.2589  -38.1660 H         1 UNK         0.0600 
    171 H171        4.2498  -15.7931  -39.3793 H         1 UNK         0.0600 
    172 H172        3.5611  -15.1918  -40.8815 H         1 UNK         0.0600 
    173 H173        3.8480  -14.0916  -39.5352 H         1 UNK         0.0600 
    174 H174        1.5060  -13.8499  -40.5911 H         1 UNK         0.3000 
    175 H175       -1.9281  -13.7037  -40.3941 H         1 UNK         0.0600 
    176 H176       -0.3092  -11.4719  -39.0556 H         1 UNK         0.0600 
    177 H177       -1.9113  -11.3001  -39.7747 H         1 UNK         0.0600 
    178 H178       -1.6915  -12.2989  -38.3484 H         1 UNK         0.0600 
    179 H179       -0.0258  -11.8225  -41.4567 H         1 UNK         0.3000 
    180 H180       -0.4824  -11.8533  -44.0279 H         1 UNK         0.0600 
    181 H181        2.2484  -13.1090  -43.3405 H         1 UNK         0.0600 
    182 H182        1.6735  -11.5265  -42.8530 H         1 UNK         0.0600 
    183 H183        2.0258  -11.8386  -44.5352 H         1 UNK         0.0600 
    184 H184       -0.2851  -14.5600  -44.7378 H         1 UNK         0.3000 
    185 H185       -0.0903  -15.3822  -46.7942 H         1 UNK         0.0600 
    186 H186       -1.6727  -15.0460  -48.6701 H         1 UNK         0.0600 
    187 H187       -2.2525  -14.1826  -47.2529 H         1 UNK         0.0600 
    188 H188       -1.4837  -13.2965  -48.5611 H         1 UNK         0.0600 
    189 H189        0.7012  -14.1127  -49.2516 H         1 UNK         0.3000 
    190 H190       -0.9458  -18.4404  -46.3980 H         1 UNK         0.3000 
    191 H191       -2.5453  -17.3672  -48.4691 H         1 UNK         0.0600 
    192 H192       -3.8983  -16.4407  -46.6661 H         1 UNK         0.0600 
    193 H193       -2.2229  -16.3852  -46.1381 H         1 UNK         0.0600 
    194 H194       -3.3045  -17.6201  -45.5109 H         1 UNK         0.0600 
    195 H195       -3.1715  -20.1232  -46.2416 H         1 UNK         0.3000 
    196 H196       -5.7193  -20.8704  -47.1978 H         1 UNK         0.0600 
    197 H197       -3.4952  -22.5870  -45.9829 H         1 UNK         0.0600 
    198 H198       -4.7606  -21.7387  -45.1008 H         1 UNK         0.0600 
    199 H199       -5.1677  -23.0818  -46.1570 H         1 UNK         0.0600 
    200 H200       -2.4657  -21.8320  -48.3031 H         1 UNK         0.3000 
    201 H201       -3.3185  -23.5820  -50.4001 H         1 UNK         0.0600 
    202 H202       -1.0906  -23.7221  -49.2874 H         1 UNK         0.0600 
    203 H203       -0.6416  -22.1608  -49.9746 H         1 UNK         0.0600 
    204 H204       -0.9267  -23.5388  -51.0268 H         1 UNK         0.0600 
    205 H205       -3.2972  -20.1089  -50.2656 H         1 UNK         0.3000 
    206 H206       -2.9373  -19.7068  -53.1377 H         1 UNK         0.0600 
    207 H207       -2.0819  -18.0611  -51.4746 H         1 UNK         0.0600 
    208 H208       -3.2166  -17.3402  -52.6032 H         1 UNK         0.0600 
    209 H209       -3.7344  -17.7137  -50.9669 H         1 UNK         0.0600 
    210 H210       -4.8815  -21.5315  -52.8720 H         1 UNK         0.3000 
    211 H211       -6.8154  -22.1915  -53.6600 H         1 UNK         0.0600 
    212 H212       -8.1209  -20.8573  -55.2130 H         1 UNK         0.0600 
    213 H213       -6.4398  -20.4412  -55.4946 H         1 UNK         0.0600 
    214 H214       -7.4760  -19.3500  -54.5876 H         1 UNK         0.0600 
    215 H215       -6.6559  -20.2349  -51.0137 H         1 UNK         0.3000 
    216 H216       -9.4079  -19.5629  -50.5788 H         1 UNK         0.0600 
    217 H217       -7.0697  -19.6929  -48.6144 H         1 UNK         0.0600 
    218 H218       -8.6102  -18.8981  -48.3229 H         1 UNK         0.0600 
    219 H219       -7.5310  -18.2887  -49.5704 H         1 UNK         0.0600 
    220 H220       -7.3626  -22.2800  -49.4858 H         1 UNK         0.3000 
    221 H221       -9.8154  -23.7771  -48.6745 H         1 UNK         0.0600 
    222 H222       -8.7711  -22.8493  -46.6046 H         1 UNK         0.0600 
    223 H223       -7.2259  -23.5693  -47.0540 H         1 UNK         0.0600 
    224 H224       -8.5992  -24.5977  -46.6659 H         1 UNK         0.0600 
    225 H225       -6.5518  -23.7835  -50.0914 H         1 UNK         0.3000 
    226 H226       -7.0251  -26.4352  -51.2246 H         1 UNK         0.0600 
    227 H227       -4.6132  -25.7982  -49.4144 H         1 UNK         0.0600 
    228 H228       -5.9019  -26.9338  -49.0208 H         1 UNK         0.0600 
    229 H229       -4.8140  -27.2728  -50.3540 H         1 UNK         0.0600 
    230 H230       -5.1930  -26.9526  -52.7057 H         1 UNK         0.3000 
    231 H231       -4.0684  -26.5814  -54.5694 H         1 UNK         0.0600 
    232 H232       -2.5451  -24.7071  -52.6945 H         1 UNK         0.0600 
    233 H233       -1.9017  -25.3821  -54.1922 H         1 UNK         0.0600 
    234 H234       -2.3234  -26.4369  -52.8622 H         1 UNK         0.0600 
    235 H235       -2.7631  -23.5819  -54.6892 H         1 UNK         0.3000 
    236 H236       -4.8289  -21.9778  -55.6780 H         1 UNK         0.0600 
    237 H237       -4.9820  -23.4543  -57.6515 H         1 UNK         0.0600 
    238 H238       -4.2260  -21.9516  -58.1410 H         1 UNK         0.0600 
    239 H239       -3.2389  -23.3883  -57.8946 H         1 UNK         0.0600 
    240 H240       -1.3920  -22.8192  -56.2383 H         1 UNK         0.3000 
    241 H241        0.5031  -21.7166  -56.2108 H         1 UNK         0.0600 
    242 H242       -0.8122  -19.3739  -58.9427 H         1 UNK         0.3800 
    243 H243       -1.5490  -20.8307  -58.3307 H         1 UNK         0.3800 
    244 H244       -0.8267  -19.8174  -54.2247 H         1 UNK         0.0800 
    245 H245        0.8746  -19.8055  -54.5755 H         1 UNK         0.0800 
    246 H246        2.3423  -22.9481  -53.1219 H         1 UNK         0.0800 
    247 H247        2.4679  -21.7177  -54.3464 H         1 UNK         0.0800 
@<TRIPOS>BOND
     1    1    2 1    
     2    1  127 1    
     3    1  128 1    
     4    1  129 1    
     5    2    3 2    
     6    2    4 am   BACKBONE|DICT|INTERRES
     7    4    5 1    
     8    4  130 1    
     9    5    6 1    
    10    5   65 1    
    11    5  131 1    
    12    6    7 1    
    13    6  132 1    
    14    6  133 1    
    15    7    8 1    
    16    8    9 1    
    17    8  134 1    
    18    8  135 1    
    19    9   10 ar   
    20    9   14 ar   
    21   10   11 ar   
    22   10  136 1    
    23   11   12 ar   
    24   11  126 1    
    25   12   13 ar   
    26   12  137 1    
    27   13   14 ar   
    28   13   15 1    
    29   14  138 1    
    30   15   16 1    
    31   15  139 1    
    32   15  140 1    
    33   16   17 1    
    34   17   18 1    
    35   17  141 1    
    36   17  142 1    
    37   18   19 1    
    38   18   67 1    
    39   18  143 1    
    40   19   20 am   BACKBONE|DICT|INTERRES
    41   19  144 1    
    42   20   21 2    
    43   20   22 1    
    44   22   23 1    
    45   22   24 1    
    46   22  145 1    
    47   23  146 1    
    48   23  147 1    
    49   23  148 1    
    50   24   25 am   BACKBONE|DICT|INTERRES
    51   24  149 1    
    52   25   26 2    
    53   25   27 1    
    54   27   28 1    
    55   27   29 1    
    56   27  150 1    
    57   28  151 1    
    58   28  152 1    
    59   28  153 1    
    60   29   30 am   BACKBONE|DICT|INTERRES
    61   29  154 1    
    62   30   31 2    
    63   30   32 1    
    64   32   33 1    
    65   32   34 1    
    66   32  155 1    
    67   33  156 1    
    68   33  157 1    
    69   33  158 1    
    70   34   35 am   BACKBONE|DICT|INTERRES
    71   34  159 1    
    72   35   36 2    
    73   35   37 1    
    74   37   38 1    
    75   37   39 1    
    76   37  160 1    
    77   38  161 1    
    78   38  162 1    
    79   38  163 1    
    80   39   40 am   BACKBONE|DICT|INTERRES
    81   39  164 1    
    82   40   41 2    
    83   40   42 1    
    84   42   43 1    
    85   42   44 1    
    86   42  165 1    
    87   43  166 1    
    88   43  167 1    
    89   43  168 1    
    90   44   45 am   BACKBONE|DICT|INTERRES
    91   44  169 1    
    92   45   46 2    
    93   45   47 1    
    94   47   48 1    
    95   47   49 1    
    96   47  170 1    
    97   48  171 1    
    98   48  172 1    
    99   48  173 1    
   100   49   50 am   BACKBONE|DICT|INTERRES
   101   49  174 1    
   102   50   51 2    
   103   50   52 1    
   104   52   53 1    
   105   52   54 1    
   106   52  175 1    
   107   53  176 1    
   108   53  177 1    
   109   53  178 1    
   110   54   55 am   BACKBONE|DICT|INTERRES
   111   54  179 1    
   112   55   56 2    
   113   55   57 1    
   114   57   58 1    
   115   57   59 1    
   116   57  180 1    
   117   58  181 1    
   118   58  182 1    
   119   58  183 1    
   120   59   60 am   BACKBONE|DICT|INTERRES
   121   59  184 1    
   122   60   61 2    
   123   60   62 1    
   124   62   63 1    
   125   62   64 1    
   126   62  185 1    
   127   63  186 1    
   128   63  187 1    
   129   63  188 1    
   130   64   65 am   BACKBONE|DICT|INTERRES
   131   64  189 1    
   132   65   66 2    
   133   67   68 2    
   134   67   69 am   BACKBONE|DICT|INTERRES
   135   69   70 1    
   136   69  190 1    
   137   70   71 1    
   138   70   72 1    
   139   70  191 1    
   140   71  192 1    
   141   71  193 1    
   142   71  194 1    
   143   72   73 2    
   144   72   74 am   BACKBONE|DICT|INTERRES
   145   74   75 1    
   146   74  195 1    
   147   75   76 1    
   148   75   77 1    
   149   75  196 1    
   150   76  197 1    
   151   76  198 1    
   152   76  199 1    
   153   77   78 2    
   154   77   79 am   BACKBONE|DICT|INTERRES
   155   79   80 1    
   156   79  200 1    
   157   80   81 1    
   158   80   82 1    
   159   80  201 1    
   160   81  202 1    
   161   81  203 1    
   162   81  204 1    
   163   82   83 2    
   164   82   84 am   BACKBONE|DICT|INTERRES
   165   84   85 1    
   166   84  205 1    
   167   85   86 1    
   168   85   87 1    
   169   85  206 1    
   170   86  207 1    
   171   86  208 1    
   172   86  209 1    
   173   87   88 2    
   174   87   89 am   BACKBONE|DICT|INTERRES
   175   89   90 1    
   176   89  210 1    
   177   90   91 1    
   178   90   92 1    
   179   90  211 1    
   180   91  212 1    
   181   91  213 1    
   182   91  214 1    
   183   92   93 2    
   184   92   94 am   BACKBONE|DICT|INTERRES
   185   94   95 1    
   186   94  215 1    
   187   95   96 1    
   188   95   97 1    
   189   95  216 1    
   190   96  217 1    
   191   96  218 1    
   192   96  219 1    
   193   97   98 2    
   194   97   99 am   BACKBONE|DICT|INTERRES
   195   99  100 1    
   196   99  220 1    
   197  100  101 1    
   198  100  102 1    
   199  100  221 1    
   200  101  222 1    
   201  101  223 1    
   202  101  224 1    
   203  102  103 2    
   204  102  104 am   BACKBONE|DICT|INTERRES
   205  104  105 1    
   206  104  225 1    
   207  105  106 1    
   208  105  107 1    
   209  105  226 1    
   210  106  227 1    
   211  106  228 1    
   212  106  229 1    
   213  107  108 2    
   214  107  109 am   BACKBONE|DICT|INTERRES
   215  109  110 1    
   216  109  230 1    
   217  110  111 1    
   218  110  112 1    
   219  110  231 1    
   220  111  232 1    
   221  111  233 1    
   222  111  234 1    
   223  112  113 2    
   224  112  114 am   BACKBONE|DICT|INTERRES
   225  114  115 1    
   226  114  235 1    
   227  115  116 1    
   228  115  117 1    
   229  115  236 1    
   230  116  237 1    
   231  116  238 1    
   232  116  239 1    
   233  117  118 2    
   234  117  119 am   BACKBONE|DICT|INTERRES
   235  119  120 1    
   236  119  240 1    
   237  120  121 1    
   238  120  124 1    
   239  120  241 1    
   240  121  122 am   BACKBONE|DICT|INTERRES
   241  121  123 2    
   242  122  242 1    
   243  122  243 1    
   244  124  125 1    
   245  124  244 1    
   246  124  245 1    
   247  125  126 1    
   248  126  246 1    
   249  126  247 1    
@<TRIPOS>SUBSTRUCTURE
     1 UNK         1 GROUP             0       ****    0 ROOT    
