@<TRIPOS>MOLECULE
3R540
247   249    1
SMALL
USER_CHARGES


@<TRIPOS>ATOM
      1 CA          0.6978  -15.0440  -47.3105 C.3       0 UNK        -0.1800 
      2 C           1.9200  -15.5030  -48.0927 C.2       0 UNK         0.5000 
      3 O           2.9887  -14.9067  -47.9620 O.2       0 UNK        -0.5000 
      4 N           1.7645  -16.5539  -48.9108 N.am      1 UNK        -0.5000 
      5 CA          2.8200  -17.1288  -49.7570 C.3       1 UNK         0.1400 
      6 C6          2.2887  -18.1918  -50.7510 C.3       23 UNK        -0.0398 
      7 S7          1.0297  -17.5553  -51.9094 S.3       23 UNK        -0.2404 
      8 C8         -0.3934  -18.6390  -51.5679 C.3       23 UNK        -0.0205 
      9 C9         -1.2264  -18.1162  -50.4085 C.ar      23 UNK        -0.0193 
     10 C10        -2.3562  -17.3347  -50.6615 C.ar      23 UNK        -0.1150 
     11 C11        -3.1295  -16.8458  -49.6069 C.ar      23 UNK        -0.0193 
     12 C12        -2.7520  -17.1233  -48.2922 C.ar      23 UNK        -0.1150 
     13 C13        -1.6193  -17.8948  -48.0178 C.ar      23 UNK        -0.0193 
     14 C14        -0.8746  -18.4101  -49.0879 C.ar      23 UNK        -0.1150 
     15 C15        -1.2512  -18.1168  -46.5512 C.3       23 UNK        -0.0205 
     16 S16         0.4581  -18.6641  -46.2214 S.3       23 UNK        -0.2404 
     17 C17         0.3289  -20.4443  -46.5674 C.3       23 UNK        -0.0398 
     18 CA          0.5269  -21.3272  -45.3111 C.3       11 UNK         0.1400 
     19 N          -0.5308  -21.1473  -44.3111 N.am      11 UNK        -0.5000 
     20 C          -0.4890  -21.6728  -43.0794 C.2       10 UNK         0.5000 
     21 O           0.4928  -22.2653  -42.6263 O.2       10 UNK        -0.5000 
     22 CA         -1.7487  -21.4979  -42.2172 C.3       10 UNK         0.1400 
     23 CB         -1.6920  -22.3048  -40.9024 C.3       10 UNK        -0.1800 
     24 N          -1.9656  -20.0833  -41.9248 N.am      10 UNK        -0.5000 
     25 C          -3.1493  -19.5554  -41.5789 C.2       9 UNK         0.5000 
     26 O          -4.1968  -20.2031  -41.5525 O.2       9 UNK        -0.5000 
     27 CA         -3.1886  -18.0677  -41.1727 C.3       9 UNK         0.1400 
     28 CB         -3.2976  -17.9318  -39.6461 C.3       9 UNK        -0.1800 
     29 N          -2.0229  -17.3153  -41.6302 N.am      9 UNK        -0.5000 
     30 C          -1.8238  -16.9247  -42.8959 C.2       8 UNK         0.5000 
     31 O          -2.6549  -17.0883  -43.7886 O.2       8 UNK        -0.5000 
     32 CA         -0.4751  -16.2550  -43.2277 C.3       8 UNK         0.1400 
     33 CB         -0.6665  -14.7668  -43.5568 C.3       8 UNK        -0.1800 
     34 N           0.5251  -16.4051  -42.1686 N.am      8 UNK        -0.5000 
     35 C           1.1505  -17.5568  -41.8803 C.2       7 UNK         0.5000 
     36 O           0.9069  -18.6208  -42.4490 O.2       7 UNK        -0.5000 
     37 CA          2.1817  -17.5378  -40.7368 C.3       7 UNK         0.1400 
     38 CB          3.5989  -17.3645  -41.2943 C.3       7 UNK        -0.1800 
     39 N           1.9239  -16.4924  -39.7463 N.am      7 UNK        -0.5000 
     40 C           0.8973  -16.5091  -38.8850 C.2       6 UNK         0.5000 
     41 O           0.0837  -17.4304  -38.8169 O.2       6 UNK        -0.5000 
     42 CA          0.7268  -15.2806  -37.9697 C.3       6 UNK         0.1400 
     43 CB          1.4053  -15.5239  -36.6133 C.3       6 UNK        -0.1800 
     44 N           1.2329  -14.0279  -38.5400 N.am      6 UNK        -0.5000 
     45 C           0.7928  -13.4616  -39.6721 C.2       5 UNK         0.5000 
     46 O          -0.0716  -13.9678  -40.3880 O.2       5 UNK        -0.5000 
     47 CA          1.4040  -12.1080  -40.0872 C.3       5 UNK         0.1400 
     48 CB          2.5157  -11.5897  -39.1456 C.3       5 UNK        -0.1800 
     49 N           1.8660  -12.1242  -41.4789 N.am      5 UNK        -0.5000 
     50 C           2.8294  -12.8962  -42.0019 C.2       4 UNK         0.5000 
     51 O           3.4607  -13.7373  -41.3561 O.2       4 UNK        -0.5000 
     52 CA          3.1519  -12.6420  -43.4905 C.3       4 UNK         0.1400 
     53 CB          3.6556  -11.2038  -43.7086 C.3       4 UNK        -0.1800 
     54 N           4.1681  -13.5578  -44.0070 N.am      4 UNK        -0.5000 
     55 C           3.9466  -14.8223  -44.3793 C.2       3 UNK         0.5000 
     56 O           2.8356  -15.3595  -44.3768 O.2       3 UNK        -0.5000 
     57 CA          5.1820  -15.6148  -44.8353 C.3       3 UNK         0.1400 
     58 CB          6.0999  -15.9642  -43.6440 C.3       3 UNK        -0.1800 
     59 N           4.7204  -16.8148  -45.5227 N.am      3 UNK        -0.5000 
     60 C           5.4646  -17.7410  -46.1349 C.2       2 UNK         0.5000 
     61 O           6.6950  -17.7282  -46.1806 O.2       2 UNK        -0.5000 
     62 CA          4.6849  -18.8558  -46.8521 C.3       2 UNK         0.1400 
     63 CB          4.0102  -19.8021  -45.8461 C.3       2 UNK        -0.1800 
     64 N           3.6831  -18.3001  -47.7639 N.am      2 UNK        -0.5000 
     65 C           3.9846  -17.7308  -48.9415 C.2       1 UNK         0.5000 
     66 O           5.1262  -17.6782  -49.4014 O.2       1 UNK        -0.5000 
     67 C           0.6037  -22.7985  -45.7618 C.2       11 UNK         0.5000 
     68 O          -0.4316  -23.3864  -46.0836 O.2       11 UNK        -0.5000 
     69 N           1.8282  -23.3317  -45.8755 N.am      12 UNK        -0.5000 
     70 CA          2.1114  -24.6623  -46.4289 C.3       12 UNK         0.1400 
     71 CB          3.5991  -24.9837  -46.2206 C.3       12 UNK        -0.1800 
     72 C           1.7323  -24.7992  -47.9194 C.2       12 UNK         0.5000 
     73 O           1.4641  -25.9082  -48.3816 O.2       12 UNK        -0.5000 
     74 N           1.6900  -23.6626  -48.6308 N.am      13 UNK        -0.5000 
     75 CA          1.2231  -23.5351  -50.0111 C.3       13 UNK         0.1400 
     76 CB          1.5765  -22.1287  -50.5200 C.3       13 UNK        -0.1800 
     77 C          -0.2880  -23.7898  -50.1828 C.2       13 UNK         0.5000 
     78 O          -0.7092  -24.1076  -51.2944 O.2       13 UNK        -0.5000 
     79 N          -1.0733  -23.6277  -49.1038 N.am      14 UNK        -0.5000 
     80 CA         -2.5164  -23.8862  -49.0102 C.3       14 UNK         0.1400 
     81 CB         -2.7714  -25.4075  -48.9946 C.3       14 UNK        -0.1800 
     82 C          -3.3499  -23.1547  -50.0858 C.2       14 UNK         0.5000 
     83 O          -4.1921  -23.7719  -50.7385 O.2       14 UNK        -0.5000 
     84 N          -3.0638  -21.8580  -50.2829 N.am      15 UNK        -0.5000 
     85 CA         -3.6606  -20.9791  -51.3004 C.3       15 UNK         0.1400 
     86 CB         -5.1428  -20.7032  -50.9867 C.3       15 UNK        -0.1800 
     87 C          -3.4278  -21.4934  -52.7386 C.2       15 UNK         0.5000 
     88 O          -4.3524  -21.5137  -53.5585 O.2       15 UNK        -0.5000 
     89 N          -2.1821  -21.9301  -52.9820 N.am      16 UNK        -0.5000 
     90 CA         -1.6744  -22.5875  -54.1896 C.3       16 UNK         0.1400 
     91 CB         -1.7034  -21.6260  -55.3952 C.3       16 UNK        -0.1800 
     92 C          -2.4065  -23.9166  -54.4537 C.2       16 UNK         0.5000 
     93 O          -2.9466  -24.1194  -55.5400 O.2       16 UNK        -0.5000 
     94 N          -2.4651  -24.7718  -53.4219 N.am      17 UNK        -0.5000 
     95 CA         -3.2101  -26.0377  -53.3632 C.3       17 UNK         0.1400 
     96 CB         -2.5248  -27.1038  -54.2420 C.3       17 UNK        -0.1800 
     97 C          -4.7105  -25.8593  -53.6911 C.2       17 UNK         0.5000 
     98 O          -5.3010  -26.6812  -54.3939 O.2       17 UNK        -0.5000 
     99 N          -5.2738  -24.7457  -53.2029 N.am      18 UNK        -0.5000 
    100 CA        -6.6185  -24.2186  -53.4397 C.3       18 UNK         0.1400 
    101 CB        -7.6842  -25.1568  -52.8379 C.3       18 UNK        -0.1800 
    102 C         -6.9241  -23.8440  -54.9083 C.2       18 UNK         0.5000 
    103 O         -8.0910  -23.6142  -55.2291 O.2       18 UNK        -0.5000 
    104 N         -5.9050  -23.7639  -55.7792 N.am      19 UNK        -0.5000 
    105 CA        -6.0691  -23.3688  -57.1802 C.3       19 UNK         0.1400 
    106 CB        -4.8883  -23.8773  -58.0207 C.3       19 UNK        -0.1800 
    107 C         -6.2254  -21.8471  -57.3327 C.2       19 UNK         0.5000 
    108 O         -6.9976  -21.4053  -58.1847 O.2       19 UNK        -0.5000 
    109 N         -5.5095  -21.0744  -56.5021 N.am      20 UNK        -0.5000 
    110 CA        -5.6581  -19.6207  -56.4253 C.3       20 UNK         0.1400 
    111 CB        -4.3419  -18.9759  -55.9623 C.3       20 UNK        -0.1800 
    112 C         -6.8112  -19.2431  -55.4839 C.2       20 UNK         0.5000 
    113 O         -7.5548  -18.3057  -55.7791 O.2       20 UNK        -0.5000 
    114 N         -6.9268  -19.9746  -54.3618 N.am      21 UNK        -0.5000 
    115 CA        -7.9743  -19.8667  -53.3334 C.3       21 UNK         0.1400 
    116 CB        -9.3291  -20.3322  -53.9047 C.3       21 UNK        -0.1800 
    117 C         -8.0717  -18.4722  -52.6708 C.2       21 UNK         0.5000 
    118 O         -9.1105  -18.1358  -52.0999 O.2       21 UNK        -0.5000 
    119 N         -6.9921  -17.6857  -52.7779 N.am      22 UNK        -0.5000 
    120 CA        -6.8883  -16.2721  -52.3796 C.3       22 UNK         0.1400 
    121 C         -7.7826  -15.3058  -53.2174 C.2       22 UNK         0.5000 
    122 N         -8.2309  -15.6872  -54.4091 N.am      22 UNK        -0.7600 
    123 O         -8.0513  -14.1816  -52.8021 O.2       22 UNK        -0.5000 
    124 C124       -7.0138  -16.0478  -50.8454 C.3       23 UNK        -0.0398 
    125 S125       -5.8496  -17.0849  -49.8971 S.3       23 UNK        -0.2404 
    126 C126       -4.3743  -16.0234  -49.8880 C.3       23 UNK        -0.0205 
    127 H127       -0.2270  -15.3847  -47.7751 H         1 UNK         0.0600 
    128 H128        0.6667  -13.9558  -47.2592 H         1 UNK         0.0600 
    129 H129        0.7381  -15.4321  -46.2929 H         1 UNK         0.0600 
    130 H130        0.8494  -16.9727  -49.0034 H         1 UNK         0.3000 
    131 H131        3.2379  -16.3075  -50.3431 H         1 UNK         0.0600 
    132 H132        3.1082  -18.5738  -51.3632 H         1 UNK         0.0800 
    133 H133        1.9000  -19.0554  -50.2124 H         1 UNK         0.0800 
    134 H134       -1.0065  -18.6936  -52.4690 H         1 UNK         0.0800 
    135 H135       -0.0610  -19.6590  -51.3750 H         1 UNK         0.0800 
    136 H136       -2.6391  -17.1124  -51.6809 H         1 UNK         0.1150 
    137 H137       -3.3459  -16.7343  -47.4765 H         1 UNK         0.1150 
    138 H138       -0.0080  -19.0246  -48.9062 H         1 UNK         0.1150 
    139 H139       -1.3799  -17.1647  -46.0380 H         1 UNK         0.0800 
    140 H140       -1.9599  -18.8092  -46.0955 H         1 UNK         0.0800 
    141 H141        1.0914  -20.6666  -47.3157 H         1 UNK         0.0800 
    142 H142       -0.6300  -20.6616  -47.0422 H         1 UNK         0.0800 
    143 H143        1.4740  -21.0549  -44.8407 H         1 UNK         0.0600 
    144 H144       -1.3642  -20.6663  -44.6129 H         1 UNK         0.3000 
    145 H145       -2.5847  -21.8737  -42.8110 H         1 UNK         0.0600 
    146 H146       -2.6334  -22.2456  -40.3563 H         1 UNK         0.0600 
    147 H147       -1.5016  -23.3607  -41.0986 H         1 UNK         0.0600 
    148 H148       -0.9011  -21.9426  -40.2444 H         1 UNK         0.0600 
    149 H149       -1.1438  -19.4910  -41.9694 H         1 UNK         0.3000 
    150 H150       -4.0837  -17.6272  -41.6170 H         1 UNK         0.0600 
    151 H151       -4.1996  -18.4197  -39.2744 H         1 UNK         0.0600 
    152 H152       -3.3459  -16.8856  -39.3434 H         1 UNK         0.0600 
    153 H153       -2.4468  -18.3896  -39.1403 H         1 UNK         0.0600 
    154 H154       -1.2950  -17.1430  -40.9503 H         1 UNK         0.3000 
    155 H155       -0.0757  -16.7396  -44.1181 H         1 UNK         0.0600 
    156 H156       -1.2974  -14.6443  -44.4380 H         1 UNK         0.0600 
    157 H157        0.2861  -14.2838  -43.7721 H         1 UNK         0.0600 
    158 H158       -1.1436  -14.2281  -42.7385 H         1 UNK         0.0600 
    159 H159        0.7228  -15.5808  -41.6150 H         1 UNK         0.3000 
    160 H160        2.1317  -18.5063  -40.2344 H         1 UNK         0.0600 
    161 H161        3.7161  -16.3929  -41.7731 H         1 UNK         0.0600 
    162 H162        3.8227  -18.1291  -42.0397 H         1 UNK         0.0600 
    163 H163        4.3485  -17.4448  -40.5071 H         1 UNK         0.0600 
    164 H164        2.5305  -15.6837  -39.7668 H         1 UNK         0.3000 
    165 H165       -0.3440  -15.1536  -37.7974 H         1 UNK         0.0600 
    166 H166        1.2094  -14.7052  -35.9206 H         1 UNK         0.0600 
    167 H167        1.0321  -16.4372  -36.1477 H         1 UNK         0.0600 
    168 H168        2.4862  -15.6264  -36.7171 H         1 UNK         0.0600 
    169 H169        1.9561  -13.5554  -38.0175 H         1 UNK         0.3000 
    170 H170        0.5844  -11.3891  -40.0480 H         1 UNK         0.0600 
    171 H171        2.1405  -11.4469  -38.1315 H         1 UNK         0.0600 
    172 H172        3.3667  -12.2699  -39.0950 H         1 UNK         0.0600 
    173 H173        2.8893  -10.6229  -39.4831 H         1 UNK         0.0600 
    174 H174        1.3822  -11.4858  -42.0943 H         1 UNK         0.3000 
    175 H175        2.2326  -12.7785  -44.0636 H         1 UNK         0.0600 
    176 H176        4.5513  -10.9984  -43.1208 H         1 UNK         0.0600 
    177 H177        3.8955  -11.0256  -44.7571 H         1 UNK         0.0600 
    178 H178        2.9024  -10.4675  -43.4262 H         1 UNK         0.0600 
    179 H179        5.1163  -13.2123  -44.0027 H         1 UNK         0.3000 
    180 H180        5.7301  -14.9979  -45.5499 H         1 UNK         0.0600 
    181 H181        5.6885  -16.7716  -43.0410 H         1 UNK         0.0600 
    182 H182        6.2548  -15.1078  -42.9867 H         1 UNK         0.0600 
    183 H183        7.0853  -16.2807  -43.9848 H         1 UNK         0.0600 
    184 H184        3.7103  -16.8882  -45.5438 H         1 UNK         0.3000 
    185 H185        5.3978  -19.4442  -47.4341 H         1 UNK         0.0600 
    186 H186        4.7469  -20.2402  -45.1716 H         1 UNK         0.0600 
    187 H187        3.2724  -19.2856  -45.2310 H         1 UNK         0.0600 
    188 H188        3.5113  -20.6235  -46.3587 H         1 UNK         0.0600 
    189 H189        2.7265  -18.2728  -47.4404 H         1 UNK         0.3000 
    190 H190        2.6301  -22.7972  -45.5737 H         1 UNK         0.3000 
    191 H191        1.5198  -25.3920  -45.8721 H         1 UNK         0.0600 
    192 H192        4.2420  -24.2713  -46.7392 H         1 UNK         0.0600 
    193 H193        3.8624  -24.9668  -45.1628 H         1 UNK         0.0600 
    194 H194        3.8405  -25.9785  -46.5975 H         1 UNK         0.0600 
    195 H195        1.9773  -22.8125  -48.1727 H         1 UNK         0.3000 
    196 H196        1.7531  -24.2698  -50.6208 H         1 UNK         0.0600 
    197 H197        2.6507  -21.9486  -50.4721 H         1 UNK         0.0600 
    198 H198        1.0792  -21.3559  -49.9337 H         1 UNK         0.0600 
    199 H199        1.2746  -21.9999  -51.5605 H         1 UNK         0.0600 
    200 H200       -0.6292  -23.3981  -48.2232 H         1 UNK         0.3000 
    201 H201       -2.8415  -23.4871  -48.0484 H         1 UNK         0.0600 
    202 H202       -3.8268  -25.6285  -48.8311 H         1 UNK         0.0600 
    203 H203       -2.2117  -25.8901  -48.1932 H         1 UNK         0.0600 
    204 H204       -2.4786  -25.8757  -49.9347 H         1 UNK         0.0600 
    205 H205       -2.3547  -21.4385  -49.6995 H         1 UNK         0.3000 
    206 H206       -3.1362  -20.0274  -51.2322 H         1 UNK         0.0600 
    207 H207       -5.2702  -20.3563  -49.9613 H         1 UNK         0.0600 
    208 H208       -5.7632  -21.5892  -51.1229 H         1 UNK         0.0600 
    209 H209       -5.5284  -19.9206  -51.6379 H         1 UNK         0.0600 
    210 H210       -1.5399  -21.9330  -52.2035 H         1 UNK         0.3000 
    211 H211       -0.6316  -22.8405  -53.9921 H         1 UNK         0.0600 
    212 H212       -1.2001  -20.6869  -55.1655 H         1 UNK         0.0600 
    213 H213       -1.1968  -22.0668  -56.2543 H         1 UNK         0.0600 
    214 H214       -2.7213  -21.3949  -55.7051 H         1 UNK         0.0600 
    215 H215       -1.9660  -24.5159  -52.5717 H         1 UNK         0.3000 
    216 H216       -3.1613  -26.3764  -52.3276 H         1 UNK         0.0600 
    217 H217       -2.9987  -28.0780  -54.1169 H         1 UNK         0.0600 
    218 H218       -2.5753  -26.8479  -55.3008 H         1 UNK         0.0600 
    219 H219       -1.4744  -27.2180  -53.9742 H         1 UNK         0.0600 
    220 H220       -4.7069  -24.1847  -52.5729 H         1 UNK         0.3000 
    221 H221       -6.6615  -23.2801  -52.8856 H         1 UNK         0.0600 
    222 H222       -7.7489  -26.0985  -53.3835 H         1 UNK         0.0600 
    223 H223       -7.4625  -25.3863  -51.7956 H         1 UNK         0.0600 
    224 H224       -8.6726  -24.6966  -52.8629 H         1 UNK         0.0600 
    225 H225       -4.9593  -23.9660  -55.4705 H         1 UNK         0.3000 
    226 H226       -6.9742  -23.8411  -57.5683 H         1 UNK         0.0600 
    227 H227       -4.7162  -24.9420  -57.8619 H         1 UNK         0.0600 
    228 H228       -5.0817  -23.7322  -59.0841 H         1 UNK         0.0600 
    229 H229       -3.9650  -23.3469  -57.7865 H         1 UNK         0.0600 
    230 H230       -4.9230  -21.5149  -55.8047 H         1 UNK         0.3000 
    231 H231       -5.8891  -19.2241  -57.4164 H         1 UNK         0.0600 
    232 H232       -4.4324  -17.8894  -55.9329 H         1 UNK         0.0600 
    233 H233       -3.5268  -19.2130  -56.6460 H         1 UNK         0.0600 
    234 H234       -4.0499  -19.3044  -54.9653 H         1 UNK         0.0600 
    235 H235       -6.2138  -20.6740  -54.1869 H         1 UNK         0.3000 
    236 H236       -7.6996  -20.5627  -52.5405 H         1 UNK         0.0600 
    237 H237       -9.2476  -21.3182  -54.3609 H         1 UNK         0.0600 
    238 H238      -10.0840  -20.4026  -53.1209 H         1 UNK         0.0600 
    239 H239       -9.7062  -19.6439  -54.6616 H         1 UNK         0.0600 
    240 H240       -6.1946  -18.0575  -53.2703 H         1 UNK         0.3000 
    241 H241       -5.8739  -15.9823  -52.6540 H         1 UNK         0.0600 
    242 H242       -8.7991  -15.0537  -54.9486 H         1 UNK         0.3800 
    243 H243       -8.0095  -16.6035  -54.7854 H         1 UNK         0.3800 
    244 H244       -6.8355  -15.0022  -50.5891 H         1 UNK         0.0800 
    245 H245       -8.0267  -16.2711  -50.5084 H         1 UNK         0.0800 
    246 H246       -4.2717  -15.5154  -50.8479 H         1 UNK         0.0800 
    247 H247       -4.4918  -15.2421  -49.1356 H         1 UNK         0.0800 
@<TRIPOS>BOND
     1    1    2 1    
     2    1  127 1    
     3    1  128 1    
     4    1  129 1    
     5    2    3 2    
     6    2    4 am   BACKBONE|DICT|INTERRES
     7    4    5 1    
     8    4  130 1    
     9    5    6 1    
    10    5   65 1    
    11    5  131 1    
    12    6    7 1    
    13    6  132 1    
    14    6  133 1    
    15    7    8 1    
    16    8    9 1    
    17    8  134 1    
    18    8  135 1    
    19    9   10 ar   
    20    9   14 ar   
    21   10   11 ar   
    22   10  136 1    
    23   11   12 ar   
    24   11  126 1    
    25   12   13 ar   
    26   12  137 1    
    27   13   14 ar   
    28   13   15 1    
    29   14  138 1    
    30   15   16 1    
    31   15  139 1    
    32   15  140 1    
    33   16   17 1    
    34   17   18 1    
    35   17  141 1    
    36   17  142 1    
    37   18   19 1    
    38   18   67 1    
    39   18  143 1    
    40   19   20 am   BACKBONE|DICT|INTERRES
    41   19  144 1    
    42   20   21 2    
    43   20   22 1    
    44   22   23 1    
    45   22   24 1    
    46   22  145 1    
    47   23  146 1    
    48   23  147 1    
    49   23  148 1    
    50   24   25 am   BACKBONE|DICT|INTERRES
    51   24  149 1    
    52   25   26 2    
    53   25   27 1    
    54   27   28 1    
    55   27   29 1    
    56   27  150 1    
    57   28  151 1    
    58   28  152 1    
    59   28  153 1    
    60   29   30 am   BACKBONE|DICT|INTERRES
    61   29  154 1    
    62   30   31 2    
    63   30   32 1    
    64   32   33 1    
    65   32   34 1    
    66   32  155 1    
    67   33  156 1    
    68   33  157 1    
    69   33  158 1    
    70   34   35 am   BACKBONE|DICT|INTERRES
    71   34  159 1    
    72   35   36 2    
    73   35   37 1    
    74   37   38 1    
    75   37   39 1    
    76   37  160 1    
    77   38  161 1    
    78   38  162 1    
    79   38  163 1    
    80   39   40 am   BACKBONE|DICT|INTERRES
    81   39  164 1    
    82   40   41 2    
    83   40   42 1    
    84   42   43 1    
    85   42   44 1    
    86   42  165 1    
    87   43  166 1    
    88   43  167 1    
    89   43  168 1    
    90   44   45 am   BACKBONE|DICT|INTERRES
    91   44  169 1    
    92   45   46 2    
    93   45   47 1    
    94   47   48 1    
    95   47   49 1    
    96   47  170 1    
    97   48  171 1    
    98   48  172 1    
    99   48  173 1    
   100   49   50 am   BACKBONE|DICT|INTERRES
   101   49  174 1    
   102   50   51 2    
   103   50   52 1    
   104   52   53 1    
   105   52   54 1    
   106   52  175 1    
   107   53  176 1    
   108   53  177 1    
   109   53  178 1    
   110   54   55 am   BACKBONE|DICT|INTERRES
   111   54  179 1    
   112   55   56 2    
   113   55   57 1    
   114   57   58 1    
   115   57   59 1    
   116   57  180 1    
   117   58  181 1    
   118   58  182 1    
   119   58  183 1    
   120   59   60 am   BACKBONE|DICT|INTERRES
   121   59  184 1    
   122   60   61 2    
   123   60   62 1    
   124   62   63 1    
   125   62   64 1    
   126   62  185 1    
   127   63  186 1    
   128   63  187 1    
   129   63  188 1    
   130   64   65 am   BACKBONE|DICT|INTERRES
   131   64  189 1    
   132   65   66 2    
   133   67   68 2    
   134   67   69 am   BACKBONE|DICT|INTERRES
   135   69   70 1    
   136   69  190 1    
   137   70   71 1    
   138   70   72 1    
   139   70  191 1    
   140   71  192 1    
   141   71  193 1    
   142   71  194 1    
   143   72   73 2    
   144   72   74 am   BACKBONE|DICT|INTERRES
   145   74   75 1    
   146   74  195 1    
   147   75   76 1    
   148   75   77 1    
   149   75  196 1    
   150   76  197 1    
   151   76  198 1    
   152   76  199 1    
   153   77   78 2    
   154   77   79 am   BACKBONE|DICT|INTERRES
   155   79   80 1    
   156   79  200 1    
   157   80   81 1    
   158   80   82 1    
   159   80  201 1    
   160   81  202 1    
   161   81  203 1    
   162   81  204 1    
   163   82   83 2    
   164   82   84 am   BACKBONE|DICT|INTERRES
   165   84   85 1    
   166   84  205 1    
   167   85   86 1    
   168   85   87 1    
   169   85  206 1    
   170   86  207 1    
   171   86  208 1    
   172   86  209 1    
   173   87   88 2    
   174   87   89 am   BACKBONE|DICT|INTERRES
   175   89   90 1    
   176   89  210 1    
   177   90   91 1    
   178   90   92 1    
   179   90  211 1    
   180   91  212 1    
   181   91  213 1    
   182   91  214 1    
   183   92   93 2    
   184   92   94 am   BACKBONE|DICT|INTERRES
   185   94   95 1    
   186   94  215 1    
   187   95   96 1    
   188   95   97 1    
   189   95  216 1    
   190   96  217 1    
   191   96  218 1    
   192   96  219 1    
   193   97   98 2    
   194   97   99 am   BACKBONE|DICT|INTERRES
   195   99  100 1    
   196   99  220 1    
   197  100  101 1    
   198  100  102 1    
   199  100  221 1    
   200  101  222 1    
   201  101  223 1    
   202  101  224 1    
   203  102  103 2    
   204  102  104 am   BACKBONE|DICT|INTERRES
   205  104  105 1    
   206  104  225 1    
   207  105  106 1    
   208  105  107 1    
   209  105  226 1    
   210  106  227 1    
   211  106  228 1    
   212  106  229 1    
   213  107  108 2    
   214  107  109 am   BACKBONE|DICT|INTERRES
   215  109  110 1    
   216  109  230 1    
   217  110  111 1    
   218  110  112 1    
   219  110  231 1    
   220  111  232 1    
   221  111  233 1    
   222  111  234 1    
   223  112  113 2    
   224  112  114 am   BACKBONE|DICT|INTERRES
   225  114  115 1    
   226  114  235 1    
   227  115  116 1    
   228  115  117 1    
   229  115  236 1    
   230  116  237 1    
   231  116  238 1    
   232  116  239 1    
   233  117  118 2    
   234  117  119 am   BACKBONE|DICT|INTERRES
   235  119  120 1    
   236  119  240 1    
   237  120  121 1    
   238  120  124 1    
   239  120  241 1    
   240  121  122 am   BACKBONE|DICT|INTERRES
   241  121  123 2    
   242  122  242 1    
   243  122  243 1    
   244  124  125 1    
   245  124  244 1    
   246  124  245 1    
   247  125  126 1    
   248  126  246 1    
   249  126  247 1    
@<TRIPOS>SUBSTRUCTURE
     1 UNK         1 GROUP             0       ****    0 ROOT    
