@<TRIPOS>MOLECULE
3R540
247   249    1
SMALL
USER_CHARGES


@<TRIPOS>ATOM
      1 CA          4.8575  -14.1339  -47.9442 C.3       0 UNK        -0.1800 
      2 C           3.5415  -13.8918  -47.2217 C.2       0 UNK         0.5000 
      3 O           3.5464  -13.4373  -46.0792 O.2       0 UNK        -0.5000 
      4 N           2.4133  -14.1696  -47.8872 N.am      1 UNK        -0.5000 
      5 CA          1.0499  -14.0450  -47.3500 C.3       1 UNK         0.1400 
      6 C6         -0.0078  -14.6143  -48.3323 C.3       23 UNK        -0.0398 
      7 S7         -0.0418  -13.7677  -49.9546 S.3       23 UNK        -0.2404 
      8 C8          0.6721  -15.0196  -51.0644 C.3       23 UNK        -0.0205 
      9 C9         -0.3615  -16.0451  -51.5022 C.ar      23 UNK        -0.0193 
     10 C10        -1.2977  -15.7110  -52.4844 C.ar      23 UNK        -0.1150 
     11 C11        -2.2303  -16.6522  -52.9268 C.ar      23 UNK        -0.0193 
     12 C12        -2.2195  -17.9333  -52.3734 C.ar      23 UNK        -0.1150 
     13 C13        -1.2780  -18.2948  -51.4071 C.ar      23 UNK        -0.0193 
     14 C14        -0.3605  -17.3342  -50.9613 C.ar      23 UNK        -0.1150 
     15 C15        -1.2869  -19.7276  -50.8791 C.3       23 UNK        -0.0205 
     16 S16         0.3628  -20.3706  -50.4346 S.3       23 UNK        -0.2404 
     17 C17         0.3311  -20.1901  -48.6179 C.3       23 UNK        -0.0398 
     18 CA          0.1086  -21.5429  -47.9009 C.3       11 UNK         0.1400 
     19 N           0.4257  -21.4697  -46.4745 N.am      11 UNK        -0.5000 
     20 C           0.5215  -22.5342  -45.6652 C.2       10 UNK         0.5000 
     21 O           0.4067  -23.6982  -46.0491 O.2       10 UNK        -0.5000 
     22 CA          0.7282  -22.2498  -44.1674 C.3       10 UNK         0.1400 
     23 CB          2.2020  -21.9376  -43.8703 C.3       10 UNK        -0.1800 
     24 N          -0.1207  -21.1602  -43.6818 N.am      10 UNK        -0.5000 
     25 C          -1.4613  -21.1931  -43.6735 C.2       9 UNK         0.5000 
     26 O          -2.1217  -22.1677  -44.0311 O.2       9 UNK        -0.5000 
     27 CA         -2.1915  -19.9108  -43.2381 C.3       9 UNK         0.1400 
     28 CB         -2.2204  -19.7911  -41.7074 C.3       9 UNK        -0.1800 
     29 N          -1.6087  -18.7003  -43.8166 N.am      9 UNK        -0.5000 
     30 C          -1.5544  -18.4238  -45.1273 C.2       8 UNK         0.5000 
     31 O          -2.0114  -19.1560  -46.0041 O.2       8 UNK        -0.5000 
     32 CA         -0.8116  -17.1369  -45.5293 C.3       8 UNK         0.1400 
     33 CB         -1.6770  -15.8970  -45.2536 C.3       8 UNK        -0.1800 
     34 N           0.4787  -17.0143  -44.8477 N.am      8 UNK        -0.5000 
     35 C           1.4925  -17.8814  -44.9946 C.2       7 UNK         0.5000 
     36 O           1.4732  -18.8290  -45.7801 O.2       7 UNK        -0.5000 
     37 CA          2.7058  -17.6967  -44.0680 C.3       7 UNK         0.1400 
     38 CB          3.6951  -16.6768  -44.6476 C.3       7 UNK        -0.1800 
     39 N           2.3054  -17.2914  -42.7206 N.am      7 UNK        -0.5000 
     40 C           1.6833  -18.0984  -41.8484 C.2       6 UNK         0.5000 
     41 O           1.4238  -19.2789  -42.0767 O.2       6 UNK        -0.5000 
     42 CA          1.2320  -17.4677  -40.5183 C.3       6 UNK         0.1400 
     43 CB          2.3872  -17.4527  -39.5065 C.3       6 UNK        -0.1800 
     44 N           0.7194  -16.1082  -40.6902 N.am      6 UNK        -0.5000 
     45 C          -0.3826  -15.7920  -41.3860 C.2       5 UNK         0.5000 
     46 O          -1.1260  -16.6277  -41.8968 O.2       5 UNK        -0.5000 
     47 CA         -0.6743  -14.2929  -41.5877 C.3       5 UNK         0.1400 
     48 CB         -1.6302  -13.7787  -40.5016 C.3       5 UNK        -0.1800 
     49 N           0.5426  -13.4769  -41.5904 N.am      5 UNK        -0.5000 
     50 C           1.4895  -13.5335  -42.5359 C.2       4 UNK         0.5000 
     51 O           1.4188  -14.2522  -43.5353 O.2       4 UNK        -0.5000 
     52 CA          2.7595  -12.7213  -42.2635 C.3       4 UNK         0.1400 
     53 CB          3.8931  -13.6398  -41.7745 C.3       4 UNK        -0.1800 
     54 N           3.1818  -12.0196  -43.4696 N.am      4 UNK        -0.5000 
     55 C           3.8071  -10.8349  -43.4701 C.2       3 UNK         0.5000 
     56 O           4.0897  -10.2116  -42.4456 O.2       3 UNK        -0.5000 
     57 CA          4.1760  -10.2300  -44.8339 C.3       3 UNK         0.1400 
     58 CB          5.5408  -10.7528  -45.3106 C.3       3 UNK        -0.1800 
     59 N           3.1626  -10.5125  -45.8483 N.am      3 UNK        -0.5000 
     60 C           2.0788   -9.7554  -46.0692 C.2       2 UNK         0.5000 
     61 O           1.8221   -8.7324  -45.4330 O.2       2 UNK        -0.5000 
     62 CA          1.1281  -10.1912  -47.2011 C.3       2 UNK         0.1400 
     63 CB          1.3772   -9.3500  -48.4627 C.3       2 UNK        -0.1800 
     64 N           1.2731  -11.6041  -47.5465 N.am      2 UNK        -0.5000 
     65 C           0.6864  -12.6130  -46.8890 C.2       1 UNK         0.5000 
     66 O          -0.0953  -12.4515  -45.9518 O.2       1 UNK        -0.5000 
     67 C          -1.3070  -22.1102  -48.1398 C.2       11 UNK         0.5000 
     68 O          -1.4657  -22.9937  -48.9802 O.2       11 UNK        -0.5000 
     69 N          -2.3024  -21.6366  -47.3761 N.am      12 UNK        -0.5000 
     70 CA         -3.6788  -22.1324  -47.4238 C.3       12 UNK         0.1400 
     71 CB         -4.5862  -21.2582  -46.5476 C.3       12 UNK        -0.1800 
     72 C          -3.7970  -23.6177  -47.0388 C.2       12 UNK         0.5000 
     73 O          -4.5275  -24.3524  -47.7030 O.2       12 UNK        -0.5000 
     74 N          -3.0469  -24.0435  -46.0133 N.am      13 UNK        -0.5000 
     75 CA         -2.9333  -25.4399  -45.5928 C.3       13 UNK         0.1400 
     76 CB         -2.1658  -25.5242  -44.2650 C.3       13 UNK        -0.1800 
     77 C          -2.2797  -26.3267  -46.6684 C.2       13 UNK         0.5000 
     78 O          -2.8067  -27.3989  -46.9664 O.2       13 UNK        -0.5000 
     79 N          -1.1806  -25.8471  -47.2700 N.am      14 UNK        -0.5000 
     80 CA         -0.4841  -26.5040  -48.3818 C.3       14 UNK         0.1400 
     81 CB          0.8243  -25.7575  -48.6820 C.3       14 UNK        -0.1800 
     82 C          -1.3510  -26.6211  -49.6515 C.2       14 UNK         0.5000 
     83 O          -1.2801  -27.6334  -50.3486 O.2       14 UNK        -0.5000 
     84 N          -2.1887  -25.6057  -49.8963 N.am      15 UNK        -0.5000 
     85 CA         -3.1947  -25.5589  -50.9575 C.3       15 UNK         0.1400 
     86 CB         -3.5507  -24.0874  -51.2317 C.3       15 UNK        -0.1800 
     87 C          -4.4661  -26.3796  -50.6474 C.2       15 UNK         0.5000 
     88 O          -5.3932  -26.3601  -51.4561 O.2       15 UNK        -0.5000 
     89 N          -4.5177  -27.0597  -49.4912 N.am      16 UNK        -0.5000 
     90 CA         -5.6224  -27.8936  -49.0034 C.3       16 UNK         0.1400 
     91 CB         -5.7793  -29.1559  -49.8767 C.3       16 UNK        -0.1800 
     92 C          -6.9378  -27.1044  -48.8324 C.2       16 UNK         0.5000 
     93 O          -8.0095  -27.5912  -49.1960 O.2       16 UNK        -0.5000 
     94 N          -6.8121  -25.8840  -48.2928 N.am      17 UNK        -0.5000 
     95 CA         -7.8589  -24.8953  -48.0183 C.3       17 UNK         0.1400 
     96 CB         -8.9625  -25.4677  -47.1041 C.3       17 UNK        -0.1800 
     97 C          -8.4284  -24.1990  -49.2716 C.2       17 UNK         0.5000 
     98 O          -9.3722  -23.4183  -49.1390 O.2       17 UNK        -0.5000 
     99 N          -7.8399  -24.4367  -50.4552 N.am      18 UNK        -0.5000 
    100 CA        -8.1941  -23.7344  -51.6939 C.3       18 UNK         0.1400 
    101 CB        -7.6478  -24.5066  -52.9037 C.3       18 UNK        -0.1800 
    102 C         -7.6842  -22.2800  -51.7144 C.2       18 UNK         0.5000 
    103 O         -8.2967  -21.4380  -52.3716 O.2       18 UNK        -0.5000 
    104 N         -6.5827  -22.0229  -50.9883 N.am      19 UNK        -0.5000 
    105 CA        -5.9156  -20.7275  -50.8069 C.3       19 UNK         0.1400 
    106 CB        -6.7714  -19.8029  -49.9179 C.3       19 UNK        -0.1800 
    107 C         -5.4857  -20.0709  -52.1360 C.2       19 UNK         0.5000 
    108 O         -5.6760  -18.8692  -52.3297 O.2       19 UNK        -0.5000 
    109 N         -4.9073  -20.8844  -53.0255 N.am      20 UNK        -0.5000 
    110 CA        -4.3753  -20.4842  -54.3222 C.3       20 UNK         0.1400 
    111 CB        -5.3262  -20.9658  -55.4289 C.3       20 UNK        -0.1800 
    112 C         -2.9849  -21.1114  -54.4849 C.2       20 UNK         0.5000 
    113 O         -2.7864  -22.2529  -54.0629 O.2       20 UNK        -0.5000 
    114 N         -2.0619  -20.3722  -55.1070 N.am      21 UNK        -0.5000 
    115 CA        -0.7275  -20.8437  -55.4685 C.3       21 UNK         0.1400 
    116 CB         0.2370  -20.8966  -54.2646 C.3       21 UNK        -0.1800 
    117 C         -0.1826  -20.0742  -56.6866 C.2       21 UNK         0.5000 
    118 O          0.1289  -20.7211  -57.6852 O.2       21 UNK        -0.5000 
    119 N         -0.1144  -18.7350  -56.7003 N.am      22 UNK        -0.5000 
    120 CA        -0.1725  -17.7747  -55.5885 C.3       22 UNK         0.1400 
    121 C          1.2536  -17.2307  -55.3154 C.2       22 UNK         0.5000 
    122 N          1.6638  -17.1436  -54.0580 N.am      22 UNK        -0.7600 
    123 O          1.9810  -16.8604  -56.2345 O.2       22 UNK        -0.5000 
    124 C124       -1.1468  -16.6104  -55.9037 C.3       23 UNK        -0.0398 
    125 S125       -2.8771  -17.1060  -55.6077 S.3       23 UNK        -0.2404 
    126 C126       -3.2369  -16.2915  -54.0126 C.3       23 UNK        -0.0205 
    127 H127        5.4247  -13.2054  -48.0097 H         1 UNK         0.0600 
    128 H128        5.4549  -14.8614  -47.3948 H         1 UNK         0.0600 
    129 H129        4.7027  -14.5123  -48.9548 H         1 UNK         0.0600 
    130 H130        2.4755  -14.5083  -48.8356 H         1 UNK         0.3000 
    131 H131        1.0263  -14.6628  -46.4504 H         1 UNK         0.0600 
    132 H132       -1.0063  -14.5478  -47.8974 H         1 UNK         0.0800 
    133 H133        0.1700  -15.6793  -48.4826 H         1 UNK         0.0800 
    134 H134        1.0671  -14.5160  -51.9481 H         1 UNK         0.0800 
    135 H135        1.5255  -15.5039  -50.5881 H         1 UNK         0.0800 
    136 H136       -1.2927  -14.7164  -52.9080 H         1 UNK         0.1150 
    137 H137       -2.9401  -18.6589  -52.7112 H         1 UNK         0.1150 
    138 H138        0.3683  -17.5898  -50.2060 H         1 UNK         0.1150 
    139 H139       -1.9703  -19.7924  -50.0318 H         1 UNK         0.0800 
    140 H140       -1.6918  -20.3946  -51.6422 H         1 UNK         0.0800 
    141 H141       -0.4085  -19.4485  -48.3111 H         1 UNK         0.0800 
    142 H142        1.2987  -19.7790  -48.3274 H         1 UNK         0.0800 
    143 H143        0.8129  -22.2582  -48.3316 H         1 UNK         0.0600 
    144 H144        0.5752  -20.5418  -46.0889 H         1 UNK         0.3000 
    145 H145        0.4559  -23.1532  -43.6179 H         1 UNK         0.0600 
    146 H146        2.3709  -21.8163  -42.8002 H         1 UNK         0.0600 
    147 H147        2.8490  -22.7466  -44.2117 H         1 UNK         0.0600 
    148 H148        2.5285  -21.0238  -44.3667 H         1 UNK         0.0600 
    149 H149        0.3551  -20.3422  -43.3125 H         1 UNK         0.3000 
    150 H150       -3.2222  -19.9810  -43.5910 H         1 UNK         0.0600 
    151 H151       -2.6734  -20.6741  -41.2548 H         1 UNK         0.0600 
    152 H152       -2.8048  -18.9269  -41.3911 H         1 UNK         0.0600 
    153 H153       -1.2180  -19.6860  -41.2919 H         1 UNK         0.0600 
    154 H154       -1.2505  -18.0129  -43.1581 H         1 UNK         0.3000 
    155 H155       -0.6141  -17.1840  -46.6019 H         1 UNK         0.0600 
    156 H156       -2.5553  -15.8902  -45.9001 H         1 UNK         0.0600 
    157 H157       -1.1306  -14.9731  -45.4352 H         1 UNK         0.0600 
    158 H158       -2.0351  -15.8675  -44.2254 H         1 UNK         0.0600 
    159 H159        0.5890  -16.2464  -44.1971 H         1 UNK         0.3000 
    160 H160        3.2194  -18.6577  -43.9978 H         1 UNK         0.0600 
    161 H161        4.5928  -16.6041  -44.0339 H         1 UNK         0.0600 
    162 H162        3.2543  -15.6836  -44.7130 H         1 UNK         0.0600 
    163 H163        4.0089  -16.9624  -45.6523 H         1 UNK         0.0600 
    164 H164        2.4375  -16.3202  -42.4813 H         1 UNK         0.3000 
    165 H165        0.4277  -18.0845  -40.1119 H         1 UNK         0.0600 
    166 H166        2.0582  -17.0755  -38.5381 H         1 UNK         0.0600 
    167 H167        2.7779  -18.4585  -39.3465 H         1 UNK         0.0600 
    168 H168        3.2151  -16.8292  -39.8466 H         1 UNK         0.0600 
    169 H169        1.2643  -15.3605  -40.2881 H         1 UNK         0.3000 
    170 H170       -1.1624  -14.1773  -42.5577 H         1 UNK         0.0600 
    171 H171       -2.5565  -14.3550  -40.4932 H         1 UNK         0.0600 
    172 H172       -1.1887  -13.8522  -39.5070 H         1 UNK         0.0600 
    173 H173       -1.8994  -12.7365  -40.6744 H         1 UNK         0.0600 
    174 H174        0.6748  -12.8664  -40.7967 H         1 UNK         0.3000 
    175 H175        2.5340  -11.9950  -41.4794 H         1 UNK         0.0600 
    176 H176        4.7811  -13.0642  -41.5131 H         1 UNK         0.0600 
    177 H177        3.5949  -14.1965  -40.8854 H         1 UNK         0.0600 
    178 H178        4.1793  -14.3639  -42.5385 H         1 UNK         0.0600 
    179 H179        3.0014  -12.4994  -44.3475 H         1 UNK         0.3000 
    180 H180        4.2644   -9.1488  -44.7067 H         1 UNK         0.0600 
    181 H181        5.5466  -11.8370  -45.4229 H         1 UNK         0.0600 
    182 H182        6.3244  -10.4960  -44.5968 H         1 UNK         0.0600 
    183 H183        5.8183  -10.3146  -46.2693 H         1 UNK         0.0600 
    184 H184        3.2604  -11.3892  -46.3446 H         1 UNK         0.3000 
    185 H185        0.1053  -10.0062  -46.8659 H         1 UNK         0.0600 
    186 H186        0.6775   -9.6131  -49.2562 H         1 UNK         0.0600 
    187 H187        1.2474   -8.2869  -48.2557 H         1 UNK         0.0600 
    188 H188        2.3888   -9.4886  -48.8465 H         1 UNK         0.0600 
    189 H189        1.8843  -11.8266  -48.3186 H         1 UNK         0.3000 
    190 H190       -2.1137  -20.8736  -46.7299 H         1 UNK         0.3000 
    191 H191       -4.0213  -22.0393  -48.4546 H         1 UNK         0.0600 
    192 H192       -4.2826  -21.2848  -45.5011 H         1 UNK         0.0600 
    193 H193       -5.6220  -21.5960  -46.5991 H         1 UNK         0.0600 
    194 H194       -4.5665  -20.2186  -46.8753 H         1 UNK         0.0600 
    195 H195       -2.5199  -23.3603  -45.4756 H         1 UNK         0.3000 
    196 H196       -3.9435  -25.8176  -45.4220 H         1 UNK         0.0600 
    197 H197       -1.1530  -25.1322  -44.3568 H         1 UNK         0.0600 
    198 H198       -2.0892  -26.5570  -43.9230 H         1 UNK         0.0600 
    199 H199       -2.6717  -24.9586  -43.4824 H         1 UNK         0.0600 
    200 H200       -0.7853  -24.9701  -46.9423 H         1 UNK         0.3000 
    201 H201       -0.2309  -27.5165  -48.0613 H         1 UNK         0.0600 
    202 H202        0.6394  -24.7289  -48.9920 H         1 UNK         0.0600 
    203 H203        1.3786  -26.2475  -49.4833 H         1 UNK         0.0600 
    204 H204        1.4729  -25.7309  -47.8062 H         1 UNK         0.0600 
    205 H205       -2.1138  -24.7741  -49.3166 H         1 UNK         0.3000 
    206 H206       -2.7576  -25.9756  -51.8669 H         1 UNK         0.0600 
    207 H207       -2.6625  -23.5088  -51.4872 H         1 UNK         0.0600 
    208 H208       -4.2424  -23.9980  -52.0697 H         1 UNK         0.0600 
    209 H209       -4.0147  -23.6202  -50.3639 H         1 UNK         0.0600 
    210 H210       -3.7260  -26.9894  -48.8633 H         1 UNK         0.3000 
    211 H211       -5.3362  -28.2217  -48.0032 H         1 UNK         0.0600 
    212 H212       -6.1159  -28.9133  -50.8851 H         1 UNK         0.0600 
    213 H213       -6.5092  -29.8415  -49.4448 H         1 UNK         0.0600 
    214 H214       -4.8366  -29.6968  -49.9588 H         1 UNK         0.0600 
    215 H215       -5.8719  -25.5541  -48.0791 H         1 UNK         0.3000 
    216 H216       -7.3597  -24.1056  -47.4550 H         1 UNK         0.0600 
    217 H217       -8.5363  -25.9492  -46.2240 H         1 UNK         0.0600 
    218 H218       -9.6243  -24.6766  -46.7498 H         1 UNK         0.0600 
    219 H219       -9.5835  -26.1987  -47.6218 H         1 UNK         0.0600 
    220 H220       -7.0954  -25.1204  -50.5109 H         1 UNK         0.3000 
    221 H221       -9.2829  -23.7087  -51.7756 H         1 UNK         0.0600 
    222 H222       -6.5582  -24.4961  -52.9321 H         1 UNK         0.0600 
    223 H223       -7.9744  -25.5467  -52.8918 H         1 UNK         0.0600 
    224 H224       -7.9999  -24.0646  -53.8366 H         1 UNK         0.0600 
    225 H225       -6.1771  -22.8002  -50.4894 H         1 UNK         0.3000 
    226 H226       -4.9897  -20.9293  -50.2684 H         1 UNK         0.0600 
    227 H227       -7.0166  -20.2843  -48.9711 H         1 UNK         0.0600 
    228 H228       -6.2380  -18.8810  -49.6833 H         1 UNK         0.0600 
    229 H229       -7.7066  -19.5264  -50.4057 H         1 UNK         0.0600 
    230 H230       -4.7375  -21.8500  -52.7798 H         1 UNK         0.3000 
    231 H231       -4.2892  -19.3990  -54.3859 H         1 UNK         0.0600 
    232 H232       -6.3174  -20.5272  -55.3120 H         1 UNK         0.0600 
    233 H233       -5.4383  -22.0509  -55.4203 H         1 UNK         0.0600 
    234 H234       -4.9562  -20.6789  -56.4140 H         1 UNK         0.0600 
    235 H235       -2.3100  -19.4556  -55.4595 H         1 UNK         0.3000 
    236 H236       -0.8365  -21.8745  -55.8144 H         1 UNK         0.0600 
    237 H237        1.2627  -21.0713  -54.5911 H         1 UNK         0.0600 
    238 H238        0.2330  -19.9881  -53.6667 H         1 UNK         0.0600 
    239 H239       -0.0283  -21.7153  -53.5954 H         1 UNK         0.0600 
    240 H240        0.2353  -18.3177  -57.5505 H         1 UNK         0.3000 
    241 H241       -0.5170  -18.2526  -54.6763 H         1 UNK         0.0600 
    242 H242        2.5879  -16.7857  -53.8739 H         1 UNK         0.3800 
    243 H243        1.0753  -17.4172  -53.2868 H         1 UNK         0.3800 
    244 H244       -0.9289  -15.7278  -55.3002 H         1 UNK         0.0800 
    245 H245       -1.0436  -16.2863  -56.9405 H         1 UNK         0.0800 
    246 H246       -4.2361  -16.5828  -53.6849 H         1 UNK         0.0800 
    247 H247       -3.2686  -15.2114  -54.1640 H         1 UNK         0.0800 
@<TRIPOS>BOND
     1    1    2 1    
     2    1  127 1    
     3    1  128 1    
     4    1  129 1    
     5    2    3 2    
     6    2    4 am   BACKBONE|DICT|INTERRES
     7    4    5 1    
     8    4  130 1    
     9    5    6 1    
    10    5   65 1    
    11    5  131 1    
    12    6    7 1    
    13    6  132 1    
    14    6  133 1    
    15    7    8 1    
    16    8    9 1    
    17    8  134 1    
    18    8  135 1    
    19    9   10 ar   
    20    9   14 ar   
    21   10   11 ar   
    22   10  136 1    
    23   11   12 ar   
    24   11  126 1    
    25   12   13 ar   
    26   12  137 1    
    27   13   14 ar   
    28   13   15 1    
    29   14  138 1    
    30   15   16 1    
    31   15  139 1    
    32   15  140 1    
    33   16   17 1    
    34   17   18 1    
    35   17  141 1    
    36   17  142 1    
    37   18   19 1    
    38   18   67 1    
    39   18  143 1    
    40   19   20 am   BACKBONE|DICT|INTERRES
    41   19  144 1    
    42   20   21 2    
    43   20   22 1    
    44   22   23 1    
    45   22   24 1    
    46   22  145 1    
    47   23  146 1    
    48   23  147 1    
    49   23  148 1    
    50   24   25 am   BACKBONE|DICT|INTERRES
    51   24  149 1    
    52   25   26 2    
    53   25   27 1    
    54   27   28 1    
    55   27   29 1    
    56   27  150 1    
    57   28  151 1    
    58   28  152 1    
    59   28  153 1    
    60   29   30 am   BACKBONE|DICT|INTERRES
    61   29  154 1    
    62   30   31 2    
    63   30   32 1    
    64   32   33 1    
    65   32   34 1    
    66   32  155 1    
    67   33  156 1    
    68   33  157 1    
    69   33  158 1    
    70   34   35 am   BACKBONE|DICT|INTERRES
    71   34  159 1    
    72   35   36 2    
    73   35   37 1    
    74   37   38 1    
    75   37   39 1    
    76   37  160 1    
    77   38  161 1    
    78   38  162 1    
    79   38  163 1    
    80   39   40 am   BACKBONE|DICT|INTERRES
    81   39  164 1    
    82   40   41 2    
    83   40   42 1    
    84   42   43 1    
    85   42   44 1    
    86   42  165 1    
    87   43  166 1    
    88   43  167 1    
    89   43  168 1    
    90   44   45 am   BACKBONE|DICT|INTERRES
    91   44  169 1    
    92   45   46 2    
    93   45   47 1    
    94   47   48 1    
    95   47   49 1    
    96   47  170 1    
    97   48  171 1    
    98   48  172 1    
    99   48  173 1    
   100   49   50 am   BACKBONE|DICT|INTERRES
   101   49  174 1    
   102   50   51 2    
   103   50   52 1    
   104   52   53 1    
   105   52   54 1    
   106   52  175 1    
   107   53  176 1    
   108   53  177 1    
   109   53  178 1    
   110   54   55 am   BACKBONE|DICT|INTERRES
   111   54  179 1    
   112   55   56 2    
   113   55   57 1    
   114   57   58 1    
   115   57   59 1    
   116   57  180 1    
   117   58  181 1    
   118   58  182 1    
   119   58  183 1    
   120   59   60 am   BACKBONE|DICT|INTERRES
   121   59  184 1    
   122   60   61 2    
   123   60   62 1    
   124   62   63 1    
   125   62   64 1    
   126   62  185 1    
   127   63  186 1    
   128   63  187 1    
   129   63  188 1    
   130   64   65 am   BACKBONE|DICT|INTERRES
   131   64  189 1    
   132   65   66 2    
   133   67   68 2    
   134   67   69 am   BACKBONE|DICT|INTERRES
   135   69   70 1    
   136   69  190 1    
   137   70   71 1    
   138   70   72 1    
   139   70  191 1    
   140   71  192 1    
   141   71  193 1    
   142   71  194 1    
   143   72   73 2    
   144   72   74 am   BACKBONE|DICT|INTERRES
   145   74   75 1    
   146   74  195 1    
   147   75   76 1    
   148   75   77 1    
   149   75  196 1    
   150   76  197 1    
   151   76  198 1    
   152   76  199 1    
   153   77   78 2    
   154   77   79 am   BACKBONE|DICT|INTERRES
   155   79   80 1    
   156   79  200 1    
   157   80   81 1    
   158   80   82 1    
   159   80  201 1    
   160   81  202 1    
   161   81  203 1    
   162   81  204 1    
   163   82   83 2    
   164   82   84 am   BACKBONE|DICT|INTERRES
   165   84   85 1    
   166   84  205 1    
   167   85   86 1    
   168   85   87 1    
   169   85  206 1    
   170   86  207 1    
   171   86  208 1    
   172   86  209 1    
   173   87   88 2    
   174   87   89 am   BACKBONE|DICT|INTERRES
   175   89   90 1    
   176   89  210 1    
   177   90   91 1    
   178   90   92 1    
   179   90  211 1    
   180   91  212 1    
   181   91  213 1    
   182   91  214 1    
   183   92   93 2    
   184   92   94 am   BACKBONE|DICT|INTERRES
   185   94   95 1    
   186   94  215 1    
   187   95   96 1    
   188   95   97 1    
   189   95  216 1    
   190   96  217 1    
   191   96  218 1    
   192   96  219 1    
   193   97   98 2    
   194   97   99 am   BACKBONE|DICT|INTERRES
   195   99  100 1    
   196   99  220 1    
   197  100  101 1    
   198  100  102 1    
   199  100  221 1    
   200  101  222 1    
   201  101  223 1    
   202  101  224 1    
   203  102  103 2    
   204  102  104 am   BACKBONE|DICT|INTERRES
   205  104  105 1    
   206  104  225 1    
   207  105  106 1    
   208  105  107 1    
   209  105  226 1    
   210  106  227 1    
   211  106  228 1    
   212  106  229 1    
   213  107  108 2    
   214  107  109 am   BACKBONE|DICT|INTERRES
   215  109  110 1    
   216  109  230 1    
   217  110  111 1    
   218  110  112 1    
   219  110  231 1    
   220  111  232 1    
   221  111  233 1    
   222  111  234 1    
   223  112  113 2    
   224  112  114 am   BACKBONE|DICT|INTERRES
   225  114  115 1    
   226  114  235 1    
   227  115  116 1    
   228  115  117 1    
   229  115  236 1    
   230  116  237 1    
   231  116  238 1    
   232  116  239 1    
   233  117  118 2    
   234  117  119 am   BACKBONE|DICT|INTERRES
   235  119  120 1    
   236  119  240 1    
   237  120  121 1    
   238  120  124 1    
   239  120  241 1    
   240  121  122 am   BACKBONE|DICT|INTERRES
   241  121  123 2    
   242  122  242 1    
   243  122  243 1    
   244  124  125 1    
   245  124  244 1    
   246  124  245 1    
   247  125  126 1    
   248  126  246 1    
   249  126  247 1    
@<TRIPOS>SUBSTRUCTURE
     1 UNK         1 GROUP             0       ****    0 ROOT    
