@<TRIPOS>MOLECULE
3R540
247   249    1
SMALL
USER_CHARGES


@<TRIPOS>ATOM
      1 CA         -5.1503  -18.3289  -45.8930 C.3       0 UNK        -0.1800 
      2 C          -3.8392  -17.5594  -45.9247 C.2       0 UNK         0.5000 
      3 O          -3.7415  -16.4883  -45.3301 O.2       0 UNK        -0.5000 
      4 N          -2.8256  -18.1084  -46.6050 N.am      1 UNK        -0.5000 
      5 CA         -1.4793  -17.5331  -46.7316 C.3       1 UNK         0.1400 
      6 C6         -0.6294  -18.3036  -47.7731 C.3       23 UNK        -0.0398 
      7 S7          0.8282  -17.3661  -48.3390 S.3       23 UNK        -0.2404 
      8 C8          1.0359  -17.9147  -50.0700 C.3       23 UNK        -0.0205 
      9 C9          1.3564  -19.3983  -50.2487 C.ar      23 UNK        -0.0193 
     10 C10         0.8804  -20.0652  -51.3820 C.ar      23 UNK        -0.1150 
     11 C11         1.1309  -21.4286  -51.5638 C.ar      23 UNK        -0.0193 
     12 C12         1.8679  -22.1253  -50.6021 C.ar      23 UNK        -0.1150 
     13 C13         2.3473  -21.4823  -49.4578 C.ar      23 UNK        -0.0193 
     14 C14         2.1182  -20.1083  -49.3127 C.ar      23 UNK        -0.1150 
     15 C15         3.0870  -22.3204  -48.4097 C.3       23 UNK        -0.0205 
     16 S16         3.1876  -21.6299  -46.7161 S.3       23 UNK        -0.2404 
     17 C17         1.4348  -21.3768  -46.2644 C.3       23 UNK        -0.0398 
     18 CA          0.7774  -22.5755  -45.5381 C.3       11 UNK         0.1400 
     19 N           1.5265  -22.9712  -44.3399 N.am      11 UNK        -0.5000 
     20 C           1.5496  -24.2023  -43.8094 C.2       10 UNK         0.5000 
     21 O           0.8795  -25.1365  -44.2521 O.2       10 UNK        -0.5000 
     22 CA          2.4458  -24.4407  -42.5773 C.3       10 UNK         0.1400 
     23 CB          3.7829  -25.0641  -43.0057 C.3       10 UNK        -0.1800 
     24 N           2.7184  -23.2289  -41.8062 N.am      10 UNK        -0.5000 
     25 C           1.8117  -22.5438  -41.0967 C.2       9 UNK         0.5000 
     26 O           0.6448  -22.9072  -40.9492 O.2       9 UNK        -0.5000 
     27 CA          2.2813  -21.2215  -40.4538 C.3       9 UNK         0.1400 
     28 CB          2.5617  -21.4276  -38.9574 C.3       9 UNK        -0.1800 
     29 N           3.4620  -20.6094  -41.0755 N.am      9 UNK        -0.5000 
     30 C           3.5764  -20.2341  -42.3572 C.2       8 UNK         0.5000 
     31 O           2.7136  -20.4403  -43.2135 O.2       8 UNK        -0.5000 
     32 CA          4.9175  -19.5804  -42.7421 C.3       8 UNK         0.1400 
     33 CB          5.9917  -20.6619  -42.9417 C.3       8 UNK        -0.1800 
     34 N           4.8408  -18.7779  -43.9622 N.am      8 UNK        -0.5000 
     35 C           4.0944  -17.6799  -44.1316 C.2       7 UNK         0.5000 
     36 O           3.3998  -17.1718  -43.2454 O.2       7 UNK        -0.5000 
     37 CA          4.1548  -17.0382  -45.5279 C.3       7 UNK         0.1400 
     38 CB          3.8636  -18.0538  -46.6437 C.3       7 UNK        -0.1800 
     39 N           3.1881  -15.9515  -45.5884 N.am      7 UNK        -0.5000 
     40 C           3.2545  -14.8677  -46.3685 C.2       6 UNK         0.5000 
     41 O           4.1366  -14.6808  -47.2077 O.2       6 UNK        -0.5000 
     42 CA          2.1697  -13.7937  -46.1553 C.3       6 UNK         0.1400 
     43 CB          1.1307  -13.8064  -47.2877 C.3       6 UNK        -0.1800 
     44 N           1.4736  -13.9633  -44.8811 N.am      6 UNK        -0.5000 
     45 C           1.9212  -13.5289  -43.6955 C.2       5 UNK         0.5000 
     46 O           2.9597  -12.8805  -43.5552 O.2       5 UNK        -0.5000 
     47 CA          1.0574  -13.8947  -42.4700 C.3       5 UNK         0.1400 
     48 CB          1.2979  -12.9732  -41.2565 C.3       5 UNK        -0.1800 
     49 N          -0.3694  -13.9799  -42.7967 N.am      5 UNK        -0.5000 
     50 C          -1.1697  -12.9992  -43.2446 C.2       4 UNK         0.5000 
     51 O          -0.8194  -11.8245  -43.3628 O.2       4 UNK        -0.5000 
     52 CA         -2.5977  -13.3993  -43.6683 C.3       4 UNK         0.1400 
     53 CB         -2.7254  -13.3485  -45.1998 C.3       4 UNK        -0.1800 
     54 N          -2.9835  -14.7360  -43.2152 N.am      4 UNK        -0.5000 
     55 C          -3.2745  -15.0710  -41.9519 C.2       3 UNK         0.5000 
     56 O          -3.3332  -14.2638  -41.0240 O.2       3 UNK        -0.5000 
     57 CA         -3.4908  -16.5697  -41.6761 C.3       3 UNK         0.1400 
     58 CB         -4.9445  -16.9744  -41.9633 C.3       3 UNK        -0.1800 
     59 N          -2.5823  -17.4268  -42.4442 N.am      3 UNK        -0.5000 
     60 C          -1.2568  -17.5011  -42.2526 C.2       2 UNK         0.5000 
     61 O          -0.6461  -16.8217  -41.4284 O.2       2 UNK        -0.5000 
     62 CA         -0.4854  -18.4999  -43.1345 C.3       2 UNK         0.1400 
     63 CB         -0.6620  -19.9199  -42.5762 C.3       2 UNK        -0.1800 
     64 N          -0.9099  -18.4732  -44.5350 N.am      2 UNK        -0.5000 
     65 C          -0.7803  -17.4195  -45.3555 C.2       1 UNK         0.5000 
     66 O          -0.2107  -16.3718  -45.0397 O.2       1 UNK        -0.5000 
     67 C          -0.7156  -22.3112  -45.2169 C.2       11 UNK         0.5000 
     68 O          -1.2509  -21.2540  -45.5613 O.2       11 UNK        -0.5000 
     69 N          -1.3577  -23.2619  -44.5272 N.am      12 UNK        -0.5000 
     70 CA         -2.7616  -23.1974  -44.1211 C.3       12 UNK         0.1400 
     71 CB         -2.9691  -24.0982  -42.8948 C.3       12 UNK        -0.1800 
     72 C          -3.7170  -23.5967  -45.2597 C.2       12 UNK         0.5000 
     73 O          -4.8009  -23.0249  -45.3726 O.2       12 UNK        -0.5000 
     74 N          -3.2889  -24.5472  -46.1017 N.am      13 UNK        -0.5000 
     75 CA         -4.0073  -25.0232  -47.2880 C.3       13 UNK         0.1400 
     76 CB         -3.7857  -26.5404  -47.4244 C.3       13 UNK        -0.1800 
     77 C          -3.5564  -24.2442  -48.5403 C.2       13 UNK         0.5000 
     78 O          -3.2591  -24.8392  -49.5793 O.2       13 UNK        -0.5000 
     79 N          -3.4702  -22.9197  -48.4008 N.am      14 UNK        -0.5000 
     80 CA         -2.8979  -22.0000  -49.3687 C.3       14 UNK         0.1400 
     81 CB         -1.3860  -21.9279  -49.1319 C.3       14 UNK        -0.1800 
     82 C          -3.5140  -20.6149  -49.1728 C.2       14 UNK         0.5000 
     83 O          -3.9586  -20.3005  -48.0679 O.2       14 UNK        -0.5000 
     84 N          -3.4681  -19.7902  -50.2206 N.am      15 UNK        -0.5000 
     85 CA         -3.8800  -18.3931  -50.2078 C.3       15 UNK         0.1400 
     86 CB         -5.3429  -18.2784  -50.6633 C.3       15 UNK        -0.1800 
     87 C          -2.9475  -17.6201  -51.1446 C.2       15 UNK         0.5000 
     88 O          -2.5998  -18.1351  -52.2081 O.2       15 UNK        -0.5000 
     89 N          -2.5683  -16.4002  -50.7471 N.am      16 UNK        -0.5000 
     90 CA         -1.7310  -15.5072  -51.5533 C.3       16 UNK         0.1400 
     91 CB         -1.0653  -14.4725  -50.6325 C.3       16 UNK        -0.1800 
     92 C          -2.5324  -14.8133  -52.6700 C.2       16 UNK         0.5000 
     93 O          -1.9997  -14.5881  -53.7565 O.2       16 UNK        -0.5000 
     94 N          -3.8052  -14.5062  -52.3847 N.am      17 UNK        -0.5000 
     95 CA         -4.7383  -13.8543  -53.3066 C.3       17 UNK         0.1400 
     96 CB         -5.7911  -13.0997  -52.4786 C.3       17 UNK        -0.1800 
     97 C          -5.4246  -14.8372  -54.2766 C.2       17 UNK         0.5000 
     98 O          -6.0671  -14.3910  -55.2279 O.2       17 UNK        -0.5000 
     99 N          -5.2982  -16.1443  -54.0185 N.am      18 UNK        -0.5000 
    100 CA        -5.9294  -17.2187  -54.7782 C.3       18 UNK         0.1400 
    101 CB        -7.2991  -17.5621  -54.1613 C.3       18 UNK        -0.1800 
    102 C         -4.9734  -18.4169  -54.8455 C.2       18 UNK         0.5000 
    103 O         -5.3237  -19.5204  -54.4270 O.2       18 UNK        -0.5000 
    104 N         -3.7683  -18.1786  -55.3808 N.am      19 UNK        -0.5000 
    105 CA        -2.6957  -19.1718  -55.5171 C.3       19 UNK         0.1400 
    106 CB        -1.4313  -18.4769  -56.0419 C.3       19 UNK        -0.1800 
    107 C         -3.0604  -20.3859  -56.3980 C.2       19 UNK         0.5000 
    108 O         -2.4699  -21.4523  -56.2340 O.2       19 UNK        -0.5000 
    109 N         -4.0573  -20.2282  -57.2796 N.am      20 UNK        -0.5000 
    110 CA        -4.6518  -21.3051  -58.0742 C.3       20 UNK         0.1400 
    111 CB        -5.5666  -20.6846  -59.1413 C.3       20 UNK        -0.1800 
    112 C         -5.4319  -22.3390  -57.2322 C.2       20 UNK         0.5000 
    113 O         -5.6057  -23.4704  -57.6858 O.2       20 UNK        -0.5000 
    114 N         -5.8805  -21.9466  -56.0305 N.am      21 UNK        -0.5000 
    115 CA        -6.6077  -22.7960  -55.0839 C.3       21 UNK         0.1400 
    116 CB        -7.6984  -21.9508  -54.4026 C.3       21 UNK        -0.1800 
    117 C         -5.6801  -23.4497  -54.0374 C.2       21 UNK         0.5000 
    118 O         -6.1775  -24.1380  -53.1451 O.2       21 UNK        -0.5000 
    119 N         -4.3643  -23.2180  -54.1430 N.am      22 UNK        -0.5000 
    120 CA        -3.3230  -23.7845  -53.2747 C.3       22 UNK         0.1400 
    121 C         -3.2495  -25.3367  -53.3496 C.2       22 UNK         0.5000 
    122 N         -3.1727  -26.0206  -52.2155 N.am      22 UNK        -0.7600 
    123 O         -3.2316  -25.9211  -54.4309 O.2       22 UNK        -0.5000 
    124 C124       -1.9560  -23.1279  -53.5917 C.3       23 UNK        -0.0398 
    125 S125       -0.7286  -23.3417  -52.2668 S.3       23 UNK        -0.2404 
    126 C126        0.5670  -22.1630  -52.7707 C.3       23 UNK        -0.0205 
    127 H127       -5.6447  -18.2706  -46.8627 H         1 UNK         0.0600 
    128 H128       -5.8238  -17.9189  -45.1406 H         1 UNK         0.0600 
    129 H129       -4.9760  -19.3788  -45.6560 H         1 UNK         0.0600 
    130 H130       -2.9940  -19.0017  -47.0612 H         1 UNK         0.3000 
    131 H131       -1.6157  -16.5148  -47.1028 H         1 UNK         0.0600 
    132 H132       -1.2353  -18.5281  -48.6502 H         1 UNK         0.0800 
    133 H133       -0.3093  -19.2656  -47.3780 H         1 UNK         0.0800 
    134 H134        0.1286  -17.6628  -50.6177 H         1 UNK         0.0800 
    135 H135        1.8407  -17.3333  -50.5209 H         1 UNK         0.0800 
    136 H136        0.2931  -19.5266  -52.1131 H         1 UNK         0.1150 
    137 H137        2.0392  -23.1847  -50.7334 H         1 UNK         0.1150 
    138 H138        2.5049  -19.5932  -48.4499 H         1 UNK         0.1150 
    139 H139        2.6168  -23.3024  -48.3380 H         1 UNK         0.0800 
    140 H140        4.1027  -22.4928  -48.7671 H         1 UNK         0.0800 
    141 H141        0.8773  -21.1503  -47.1690 H         1 UNK         0.0800 
    142 H142        1.3815  -20.4817  -45.6417 H         1 UNK         0.0800 
    143 H143        0.7915  -23.4125  -46.2394 H         1 UNK         0.0600 
    144 H144        2.0648  -22.2315  -43.8993 H         1 UNK         0.3000 
    145 H145        1.9288  -25.1487  -41.9264 H         1 UNK         0.0600 
    146 H146        3.6229  -25.9894  -43.5608 H         1 UNK         0.0600 
    147 H147        4.3528  -24.3907  -43.6476 H         1 UNK         0.0600 
    148 H148        4.4004  -25.3084  -42.1411 H         1 UNK         0.0600 
    149 H149        3.6522  -22.8523  -41.8697 H         1 UNK         0.3000 
    150 H150        1.4639  -20.5067  -40.5463 H         1 UNK         0.0600 
    151 H151        3.3994  -22.1072  -38.7956 H         1 UNK         0.0600 
    152 H152        1.6932  -21.8509  -38.4506 H         1 UNK         0.0600 
    153 H153        2.7934  -20.4834  -38.4643 H         1 UNK         0.0600 
    154 H154        4.2353  -20.4248  -40.4526 H         1 UNK         0.3000 
    155 H155        5.2247  -18.9210  -41.9278 H         1 UNK         0.0600 
    156 H156        5.7293  -21.3423  -43.7535 H         1 UNK         0.0600 
    157 H157        6.1231  -21.2620  -42.0405 H         1 UNK         0.0600 
    158 H158        6.9600  -20.2187  -43.1755 H         1 UNK         0.0600 
    159 H159        5.3477  -19.1388  -44.7563 H         1 UNK         0.3000 
    160 H160        5.1591  -16.6309  -45.6601 H         1 UNK         0.0600 
    161 H161        2.9052  -18.5446  -46.4744 H         1 UNK         0.0600 
    162 H162        4.6293  -18.8279  -46.6955 H         1 UNK         0.0600 
    163 H163        3.8304  -17.5742  -47.6219 H         1 UNK         0.0600 
    164 H164        2.4553  -16.0061  -44.8922 H         1 UNK         0.3000 
    165 H165        2.6682  -12.8222  -46.1664 H         1 UNK         0.0600 
    166 H166        0.5115  -14.7019  -47.2547 H         1 UNK         0.0600 
    167 H167        1.6098  -13.7703  -48.2669 H         1 UNK         0.0600 
    168 H168        0.4663  -12.9450  -47.2177 H         1 UNK         0.0600 
    169 H169        0.6493  -14.5563  -44.8974 H         1 UNK         0.3000 
    170 H170        1.3602  -14.9025  -42.1817 H         1 UNK         0.0600 
    171 H171        2.3337  -13.0337  -40.9206 H         1 UNK         0.0600 
    172 H172        1.0921  -11.9286  -41.4909 H         1 UNK         0.0600 
    173 H173        0.6677  -13.2597  -40.4145 H         1 UNK         0.0600 
    174 H174       -0.7652  -14.9087  -42.7343 H         1 UNK         0.3000 
    175 H175       -3.2887  -12.6720  -43.2375 H         1 UNK         0.0600 
    176 H176       -3.7430  -13.5751  -45.5184 H         1 UNK         0.0600 
    177 H177       -2.4776  -12.3581  -45.5836 H         1 UNK         0.0600 
    178 H178       -2.0575  -14.0646  -45.6811 H         1 UNK         0.0600 
    179 H179       -3.0397  -15.4550  -43.9334 H         1 UNK         0.3000 
    180 H180       -3.2956  -16.7421  -40.6155 H         1 UNK         0.0600 
    181 H181       -5.2103  -16.8117  -43.0078 H         1 UNK         0.0600 
    182 H182       -5.6372  -16.3903  -41.3561 H         1 UNK         0.0600 
    183 H183       -5.1164  -18.0256  -41.7313 H         1 UNK         0.0600 
    184 H184       -2.9968  -17.9913  -43.1702 H         1 UNK         0.3000 
    185 H185        0.5746  -18.2388  -43.0908 H         1 UNK         0.0600 
    186 H186        0.0620  -20.6058  -43.0123 H         1 UNK         0.0600 
    187 H187       -0.5186  -19.9421  -41.4962 H         1 UNK         0.0600 
    188 H188       -1.6597  -20.3121  -42.7742 H         1 UNK         0.0600 
    189 H189       -1.3471  -19.3169  -44.8914 H         1 UNK         0.3000 
    190 H190       -0.8335  -24.0905  -44.2664 H         1 UNK         0.3000 
    191 H191       -3.0000  -22.1719  -43.8309 H         1 UNK         0.0600 
    192 H192       -2.7368  -25.1408  -43.1153 H         1 UNK         0.0600 
    193 H193       -4.0030  -24.0565  -42.5498 H         1 UNK         0.0600 
    194 H194       -2.3361  -23.7823  -42.0649 H         1 UNK         0.0600 
    195 H195       -2.3669  -24.9316  -45.9564 H         1 UNK         0.3000 
    196 H196       -5.0792  -24.8522  -47.1692 H         1 UNK         0.0600 
    197 H197       -4.3452  -26.9440  -48.2693 H         1 UNK         0.0600 
    198 H198       -4.1225  -27.0690  -46.5324 H         1 UNK         0.0600 
    199 H199       -2.7335  -26.7815  -47.5803 H         1 UNK         0.0600 
    200 H200       -3.7929  -22.4827  -47.5452 H         1 UNK         0.3000 
    201 H201       -3.1067  -22.3373  -50.3838 H         1 UNK         0.0600 
    202 H202       -0.9328  -21.2015  -49.7995 H         1 UNK         0.0600 
    203 H203       -1.1606  -21.6135  -48.1165 H         1 UNK         0.0600 
    204 H204       -0.9010  -22.8888  -49.3022 H         1 UNK         0.0600 
    205 H205       -3.0353  -20.0852  -51.0868 H         1 UNK         0.3000 
    206 H206       -3.7851  -17.9788  -49.2031 H         1 UNK         0.0600 
    207 H207       -5.4889  -18.7250  -51.6473 H         1 UNK         0.0600 
    208 H208       -5.6605  -17.2365  -50.7196 H         1 UNK         0.0600 
    209 H209       -6.0106  -18.7852  -49.9663 H         1 UNK         0.0600 
    210 H210       -2.8842  -16.0423  -49.8574 H         1 UNK         0.3000 
    211 H211       -0.9419  -16.0910  -52.0319 H         1 UNK         0.0600 
    212 H212       -1.8016  -13.8561  -50.1154 H         1 UNK         0.0600 
    213 H213       -0.4181  -13.8034  -51.2011 H         1 UNK         0.0600 
    214 H214       -0.4453  -14.9570  -49.8782 H         1 UNK         0.0600 
    215 H215       -4.1592  -14.7208  -51.4646 H         1 UNK         0.3000 
    216 H216       -4.1939  -13.1249  -53.9103 H         1 UNK         0.0600 
    217 H217       -6.4871  -12.5628  -53.1245 H         1 UNK         0.0600 
    218 H218       -5.3245  -12.3626  -51.8247 H         1 UNK         0.0600 
    219 H219       -6.3772  -13.7781  -51.8573 H         1 UNK         0.0600 
    220 H220       -4.7073  -16.4310  -53.2517 H         1 UNK         0.3000 
    221 H221       -6.0923  -16.8996  -55.8098 H         1 UNK         0.0600 
    222 H222       -7.2071  -17.8794  -53.1227 H         1 UNK         0.0600 
    223 H223       -7.9692  -16.7028  -54.1891 H         1 UNK         0.0600 
    224 H224       -7.7850  -18.3695  -54.7106 H         1 UNK         0.0600 
    225 H225       -3.5529  -17.2404  -55.6862 H         1 UNK         0.3000 
    226 H226       -2.4792  -19.5588  -54.5194 H         1 UNK         0.0600 
    227 H227       -1.1119  -17.6819  -55.3673 H         1 UNK         0.0600 
    228 H228       -0.6033  -19.1821  -56.1254 H         1 UNK         0.0600 
    229 H229       -1.5925  -18.0392  -57.0278 H         1 UNK         0.0600 
    230 H230       -4.4831  -19.3170  -57.3599 H         1 UNK         0.3000 
    231 H231       -3.8447  -21.8375  -58.5819 H         1 UNK         0.0600 
    232 H232       -6.3868  -20.1238  -58.6911 H         1 UNK         0.0600 
    233 H233       -6.0057  -21.4554  -59.7761 H         1 UNK         0.0600 
    234 H234       -5.0124  -20.0075  -59.7916 H         1 UNK         0.0600 
    235 H235       -5.6677  -21.0107  -55.6990 H         1 UNK         0.3000 
    236 H236       -7.1039  -23.6057  -55.6225 H         1 UNK         0.0600 
    237 H237       -8.3355  -22.5704  -53.7705 H         1 UNK         0.0600 
    238 H238       -7.2715  -21.1724  -53.7698 H         1 UNK         0.0600 
    239 H239       -8.3432  -21.4696  -55.1380 H         1 UNK         0.0600 
    240 H240       -4.0393  -22.6687  -54.9263 H         1 UNK         0.3000 
    241 H241       -3.6042  -23.5134  -52.2567 H         1 UNK         0.0600 
    242 H242       -3.1126  -27.0254  -52.2505 H         1 UNK         0.3800 
    243 H243       -3.1732  -25.5540  -51.3099 H         1 UNK         0.3800 
    244 H244       -2.0959  -22.0535  -53.7135 H         1 UNK         0.0800 
    245 H245       -1.5462  -23.4961  -54.5341 H         1 UNK         0.0800 
    246 H246        1.3671  -22.7045  -53.2770 H         1 UNK         0.0800 
    247 H247        0.1719  -21.4503  -53.4962 H         1 UNK         0.0800 
@<TRIPOS>BOND
     1    1    2 1    
     2    1  127 1    
     3    1  128 1    
     4    1  129 1    
     5    2    3 2    
     6    2    4 am   BACKBONE|DICT|INTERRES
     7    4    5 1    
     8    4  130 1    
     9    5    6 1    
    10    5   65 1    
    11    5  131 1    
    12    6    7 1    
    13    6  132 1    
    14    6  133 1    
    15    7    8 1    
    16    8    9 1    
    17    8  134 1    
    18    8  135 1    
    19    9   10 ar   
    20    9   14 ar   
    21   10   11 ar   
    22   10  136 1    
    23   11   12 ar   
    24   11  126 1    
    25   12   13 ar   
    26   12  137 1    
    27   13   14 ar   
    28   13   15 1    
    29   14  138 1    
    30   15   16 1    
    31   15  139 1    
    32   15  140 1    
    33   16   17 1    
    34   17   18 1    
    35   17  141 1    
    36   17  142 1    
    37   18   19 1    
    38   18   67 1    
    39   18  143 1    
    40   19   20 am   BACKBONE|DICT|INTERRES
    41   19  144 1    
    42   20   21 2    
    43   20   22 1    
    44   22   23 1    
    45   22   24 1    
    46   22  145 1    
    47   23  146 1    
    48   23  147 1    
    49   23  148 1    
    50   24   25 am   BACKBONE|DICT|INTERRES
    51   24  149 1    
    52   25   26 2    
    53   25   27 1    
    54   27   28 1    
    55   27   29 1    
    56   27  150 1    
    57   28  151 1    
    58   28  152 1    
    59   28  153 1    
    60   29   30 am   BACKBONE|DICT|INTERRES
    61   29  154 1    
    62   30   31 2    
    63   30   32 1    
    64   32   33 1    
    65   32   34 1    
    66   32  155 1    
    67   33  156 1    
    68   33  157 1    
    69   33  158 1    
    70   34   35 am   BACKBONE|DICT|INTERRES
    71   34  159 1    
    72   35   36 2    
    73   35   37 1    
    74   37   38 1    
    75   37   39 1    
    76   37  160 1    
    77   38  161 1    
    78   38  162 1    
    79   38  163 1    
    80   39   40 am   BACKBONE|DICT|INTERRES
    81   39  164 1    
    82   40   41 2    
    83   40   42 1    
    84   42   43 1    
    85   42   44 1    
    86   42  165 1    
    87   43  166 1    
    88   43  167 1    
    89   43  168 1    
    90   44   45 am   BACKBONE|DICT|INTERRES
    91   44  169 1    
    92   45   46 2    
    93   45   47 1    
    94   47   48 1    
    95   47   49 1    
    96   47  170 1    
    97   48  171 1    
    98   48  172 1    
    99   48  173 1    
   100   49   50 am   BACKBONE|DICT|INTERRES
   101   49  174 1    
   102   50   51 2    
   103   50   52 1    
   104   52   53 1    
   105   52   54 1    
   106   52  175 1    
   107   53  176 1    
   108   53  177 1    
   109   53  178 1    
   110   54   55 am   BACKBONE|DICT|INTERRES
   111   54  179 1    
   112   55   56 2    
   113   55   57 1    
   114   57   58 1    
   115   57   59 1    
   116   57  180 1    
   117   58  181 1    
   118   58  182 1    
   119   58  183 1    
   120   59   60 am   BACKBONE|DICT|INTERRES
   121   59  184 1    
   122   60   61 2    
   123   60   62 1    
   124   62   63 1    
   125   62   64 1    
   126   62  185 1    
   127   63  186 1    
   128   63  187 1    
   129   63  188 1    
   130   64   65 am   BACKBONE|DICT|INTERRES
   131   64  189 1    
   132   65   66 2    
   133   67   68 2    
   134   67   69 am   BACKBONE|DICT|INTERRES
   135   69   70 1    
   136   69  190 1    
   137   70   71 1    
   138   70   72 1    
   139   70  191 1    
   140   71  192 1    
   141   71  193 1    
   142   71  194 1    
   143   72   73 2    
   144   72   74 am   BACKBONE|DICT|INTERRES
   145   74   75 1    
   146   74  195 1    
   147   75   76 1    
   148   75   77 1    
   149   75  196 1    
   150   76  197 1    
   151   76  198 1    
   152   76  199 1    
   153   77   78 2    
   154   77   79 am   BACKBONE|DICT|INTERRES
   155   79   80 1    
   156   79  200 1    
   157   80   81 1    
   158   80   82 1    
   159   80  201 1    
   160   81  202 1    
   161   81  203 1    
   162   81  204 1    
   163   82   83 2    
   164   82   84 am   BACKBONE|DICT|INTERRES
   165   84   85 1    
   166   84  205 1    
   167   85   86 1    
   168   85   87 1    
   169   85  206 1    
   170   86  207 1    
   171   86  208 1    
   172   86  209 1    
   173   87   88 2    
   174   87   89 am   BACKBONE|DICT|INTERRES
   175   89   90 1    
   176   89  210 1    
   177   90   91 1    
   178   90   92 1    
   179   90  211 1    
   180   91  212 1    
   181   91  213 1    
   182   91  214 1    
   183   92   93 2    
   184   92   94 am   BACKBONE|DICT|INTERRES
   185   94   95 1    
   186   94  215 1    
   187   95   96 1    
   188   95   97 1    
   189   95  216 1    
   190   96  217 1    
   191   96  218 1    
   192   96  219 1    
   193   97   98 2    
   194   97   99 am   BACKBONE|DICT|INTERRES
   195   99  100 1    
   196   99  220 1    
   197  100  101 1    
   198  100  102 1    
   199  100  221 1    
   200  101  222 1    
   201  101  223 1    
   202  101  224 1    
   203  102  103 2    
   204  102  104 am   BACKBONE|DICT|INTERRES
   205  104  105 1    
   206  104  225 1    
   207  105  106 1    
   208  105  107 1    
   209  105  226 1    
   210  106  227 1    
   211  106  228 1    
   212  106  229 1    
   213  107  108 2    
   214  107  109 am   BACKBONE|DICT|INTERRES
   215  109  110 1    
   216  109  230 1    
   217  110  111 1    
   218  110  112 1    
   219  110  231 1    
   220  111  232 1    
   221  111  233 1    
   222  111  234 1    
   223  112  113 2    
   224  112  114 am   BACKBONE|DICT|INTERRES
   225  114  115 1    
   226  114  235 1    
   227  115  116 1    
   228  115  117 1    
   229  115  236 1    
   230  116  237 1    
   231  116  238 1    
   232  116  239 1    
   233  117  118 2    
   234  117  119 am   BACKBONE|DICT|INTERRES
   235  119  120 1    
   236  119  240 1    
   237  120  121 1    
   238  120  124 1    
   239  120  241 1    
   240  121  122 am   BACKBONE|DICT|INTERRES
   241  121  123 2    
   242  122  242 1    
   243  122  243 1    
   244  124  125 1    
   245  124  244 1    
   246  124  245 1    
   247  125  126 1    
   248  126  246 1    
   249  126  247 1    
@<TRIPOS>SUBSTRUCTURE
     1 UNK         1 GROUP             0       ****    0 ROOT    
