@<TRIPOS>MOLECULE
3R540
247   249    1
SMALL
USER_CHARGES


@<TRIPOS>ATOM
      1 CA         -0.7990  -16.0546  -47.0262 C.3       0 UNK        -0.1800 
      2 C          -0.8847  -14.9333  -46.0021 C.2       0 UNK         0.5000 
      3 O          -0.2004  -14.9754  -44.9795 O.2       0 UNK        -0.5000 
      4 N          -1.7358  -13.9315  -46.2550 N.am      1 UNK        -0.5000 
      5 CA         -1.8897  -12.7555  -45.3904 C.3       1 UNK         0.1400 
      6 C6         -3.2415  -12.0342  -45.6111 C.3       23 UNK        -0.0398 
      7 S7         -3.5052  -11.4082  -47.3093 S.3       23 UNK        -0.2404 
      8 C8         -4.9982  -12.3137  -47.8209 C.3       23 UNK        -0.0205 
      9 C9         -4.6833  -13.7298  -48.2777 C.ar      23 UNK        -0.0193 
     10 C10        -4.1838  -13.9463  -49.5657 C.ar      23 UNK        -0.1150 
     11 C11        -3.9375  -15.2425  -50.0241 C.ar      23 UNK        -0.0193 
     12 C12        -4.1893  -16.3236  -49.1770 C.ar      23 UNK        -0.1150 
     13 C13        -4.6883  -16.1262  -47.8871 C.ar      23 UNK        -0.0193 
     14 C14        -4.9285  -14.8231  -47.4392 C.ar      23 UNK        -0.1150 
     15 C15        -5.0148  -17.3279  -47.0095 C.3       23 UNK        -0.0205 
     16 S16        -3.5839  -18.4331  -46.8017 S.3       23 UNK        -0.2404 
     17 C17        -4.3527  -19.8745  -45.9896 C.3       23 UNK        -0.0398 
     18 CA         -3.5501  -21.1694  -46.2595 C.3       11 UNK         0.1400 
     19 N          -2.1595  -21.0728  -45.8065 N.am      11 UNK        -0.5000 
     20 C          -1.1491  -21.7591  -46.3455 C.2       10 UNK         0.5000 
     21 O          -1.2838  -22.5551  -47.2717 O.2       10 UNK        -0.5000 
     22 CA          0.2441  -21.5222  -45.7542 C.3       10 UNK         0.1400 
     23 CB          0.7855  -20.1596  -46.2005 C.3       10 UNK        -0.1800 
     24 N           0.2899  -21.6294  -44.2986 N.am      10 UNK        -0.5000 
     25 C           0.0330  -22.7524  -43.6115 C.2       9 UNK         0.5000 
     26 O          -0.4176  -23.7788  -44.1242 O.2       9 UNK        -0.5000 
     27 CA          0.3231  -22.7201  -42.1035 C.3       9 UNK         0.1400 
     28 CB          1.8371  -22.7470  -41.8414 C.3       9 UNK        -0.1800 
     29 N          -0.2502  -21.5181  -41.5058 N.am      9 UNK        -0.5000 
     30 C          -1.2222  -21.5100  -40.5847 C.2       8 UNK         0.5000 
     31 O          -1.6340  -22.5198  -40.0131 O.2       8 UNK        -0.5000 
     32 CA         -1.8662  -20.1477  -40.2494 C.3       8 UNK         0.1400 
     33 CB         -1.2939  -19.5948  -38.9352 C.3       8 UNK        -0.1800 
     34 N          -1.7170  -19.1281  -41.2916 N.am      8 UNK        -0.5000 
     35 C          -2.1370  -19.2299  -42.5603 C.2       7 UNK         0.5000 
     36 O          -2.7234  -20.2111  -43.0183 O.2       7 UNK        -0.5000 
     37 CA         -1.7842  -18.0638  -43.5004 C.3       7 UNK         0.1400 
     38 CB         -2.9171  -17.0254  -43.4930 C.3       7 UNK        -0.1800 
     39 N          -0.5097  -17.3940  -43.2196 N.am      7 UNK        -0.5000 
     40 C           0.6904  -17.9699  -43.0588 C.2       6 UNK         0.5000 
     41 O           0.8804  -19.1894  -43.0269 O.2       6 UNK        -0.5000 
     42 CA          1.8731  -17.0087  -42.8436 C.3       6 UNK         0.1400 
     43 CB          2.2772  -16.9954  -41.3614 C.3       6 UNK        -0.1800 
     44 N           3.0466  -17.3371  -43.6550 N.am      6 UNK        -0.5000 
     45 C           3.0720  -17.3674  -44.9937 C.2       5 UNK         0.5000 
     46 O           2.0799  -17.2104  -45.7073 O.2       5 UNK        -0.5000 
     47 CA          4.4484  -17.6075  -45.6488 C.3       5 UNK         0.1400 
     48 CB          4.7367  -19.1115  -45.7811 C.3       5 UNK        -0.1800 
     49 N           4.5294  -16.9921  -46.9759 N.am      5 UNK        -0.5000 
     50 C           4.4396  -15.6761  -47.2088 C.2       4 UNK         0.5000 
     51 O           4.4629  -14.8197  -46.3179 O.2       4 UNK        -0.5000 
     52 CA          4.2785  -15.2485  -48.6775 C.3       4 UNK         0.1400 
     53 CB          3.0514  -15.9194  -49.3330 C.3       4 UNK        -0.1800 
     54 N           4.1347  -13.7971  -48.7134 N.am      4 UNK        -0.5000 
     55 C           4.2131  -13.0067  -49.7877 C.2       3 UNK         0.5000 
     56 O           4.4754  -13.4230  -50.9178 O.2       3 UNK        -0.5000 
     57 CA          3.9745  -11.4967  -49.5543 C.3       3 UNK         0.1400 
     58 CB          3.4464  -10.7794  -50.8148 C.3       3 UNK        -0.1800 
     59 N           3.1262  -11.1826  -48.3928 N.am      3 UNK        -0.5000 
     60 C           1.8484  -11.5420  -48.1981 C.2       2 UNK         0.5000 
     61 O           1.2023  -12.2640  -48.9627 O.2       2 UNK        -0.5000 
     62 CA          1.1729  -10.9718  -46.9417 C.3       2 UNK         0.1400 
     63 CB          0.7648   -9.5022  -47.1636 C.3       2 UNK        -0.1800 
     64 N          -0.0011  -11.7803  -46.6349 N.am      2 UNK        -0.5000 
     65 C          -0.6887  -11.7855  -45.4863 C.2       1 UNK         0.5000 
     66 O          -0.4056  -11.0771  -44.5187 O.2       1 UNK        -0.5000 
     67 C          -4.2369  -22.3990  -45.6396 C.2       11 UNK         0.5000 
     68 O          -5.1120  -22.9876  -46.2746 O.2       11 UNK        -0.5000 
     69 N          -3.8147  -22.7694  -44.4230 N.am      12 UNK        -0.5000 
     70 CA         -4.3279  -23.9081  -43.6696 C.3       12 UNK         0.1400 
     71 CB         -3.8019  -23.8352  -42.2291 C.3       12 UNK        -0.1800 
     72 C          -3.9863  -25.2694  -44.3022 C.2       12 UNK         0.5000 
     73 O          -4.8742  -26.1184  -44.3966 O.2       12 UNK        -0.5000 
     74 N          -2.7190  -25.4638  -44.6968 N.am      13 UNK        -0.5000 
     75 CA         -2.1967  -26.7647  -45.1233 C.3       13 UNK         0.1400 
     76 CB         -1.1508  -27.2373  -44.1000 C.3       13 UNK        -0.1800 
     77 C          -1.5874  -26.7571  -46.5339 C.2       13 UNK         0.5000 
     78 O          -1.7138  -27.7606  -47.2369 O.2       13 UNK        -0.5000 
     79 N          -0.9210  -25.6636  -46.9289 N.am      14 UNK        -0.5000 
     80 CA         -0.1040  -25.6114  -48.1491 C.3       14 UNK         0.1400 
     81 CB          1.1927  -24.8373  -47.8569 C.3       14 UNK        -0.1800 
     82 C          -0.8370  -25.0249  -49.3718 C.2       14 UNK         0.5000 
     83 O          -0.1816  -24.7483  -50.3765 O.2       14 UNK        -0.5000 
     84 N          -2.1589  -24.8185  -49.2767 N.am      15 UNK        -0.5000 
     85 CA         -3.0381  -24.2670  -50.3176 C.3       15 UNK         0.1400 
     86 CB         -3.1697  -25.2474  -51.5019 C.3       15 UNK        -0.1800 
     87 C          -2.6196  -22.8498  -50.7631 C.2       15 UNK         0.5000 
     88 O          -2.5026  -22.5779  -51.9609 O.2       15 UNK        -0.5000 
     89 N          -2.3951  -21.9789  -49.7717 N.am      16 UNK        -0.5000 
     90 CA         -1.9181  -20.5958  -49.8821 C.3       16 UNK         0.1400 
     91 CB         -2.9114  -19.7141  -50.6653 C.3       16 UNK        -0.1800 
     92 C          -0.4684  -20.5227  -50.3992 C.2       16 UNK         0.5000 
     93 O          -0.1322  -19.6296  -51.1754 O.2       16 UNK        -0.5000 
     94 N           0.3546  -21.4831  -49.9488 N.am      17 UNK        -0.5000 
     95 CA          1.7386  -21.7300  -50.3673 C.3       17 UNK         0.1400 
     96 CB          2.6680  -20.5733  -49.9396 C.3       17 UNK        -0.1800 
     97 C           1.8218  -22.0700  -51.8704 C.2       17 UNK         0.5000 
     98 O           2.5600  -21.4268  -52.6188 O.2       17 UNK        -0.5000 
     99 N           1.0379  -23.0833  -52.2673 N.am      18 UNK        -0.5000 
    100 CA         0.8724  -23.6163  -53.6211 C.3       18 UNK         0.1400 
    101 CB         2.1711  -24.2967  -54.1023 C.3       18 UNK        -0.1800 
    102 C          0.3256  -22.5696  -54.6137 C.2       18 UNK         0.5000 
    103 O          0.8555  -22.4253  -55.7173 O.2       18 UNK        -0.5000 
    104 N         -0.7363  -21.8657  -54.2018 N.am      19 UNK        -0.5000 
    105 CA        -1.4264  -20.8432  -54.9916 C.3       19 UNK         0.1400 
    106 CB        -1.1899  -19.4599  -54.3611 C.3       19 UNK        -0.1800 
    107 C         -2.9227  -21.1755  -55.1372 C.2       19 UNK         0.5000 
    108 O         -3.7404  -20.2651  -55.2777 O.2       19 UNK        -0.5000 
    109 N         -3.2583  -22.4748  -55.0862 N.am      20 UNK        -0.5000 
    110 CA        -4.5949  -23.0605  -55.2592 C.3       20 UNK         0.1400 
    111 CB        -5.0437  -22.9325  -56.7299 C.3       20 UNK        -0.1800 
    112 C         -5.6464  -22.5183  -54.2656 C.2       20 UNK         0.5000 
    113 O         -6.8174  -22.3794  -54.6216 O.2       20 UNK        -0.5000 
    114 N         -5.1942  -22.2125  -53.0407 N.am      21 UNK        -0.5000 
    115 CA        -5.9468  -21.5950  -51.9428 C.3       21 UNK         0.1400 
    116 CB        -7.1256  -22.4826  -51.4918 C.3       21 UNK        -0.1800 
    117 C         -6.3517  -20.1279  -52.2104 C.2       21 UNK         0.5000 
    118 O         -7.2659  -19.6234  -51.5564 O.2       21 UNK        -0.5000 
    119 N         -5.6286  -19.4532  -53.1163 N.am      22 UNK        -0.5000 
    120 CA        -5.7888  -18.0372  -53.4814 C.3       22 UNK         0.1400 
    121 C         -7.0821  -17.7390  -54.3018 C.2       22 UNK         0.5000 
    122 N         -7.4147  -16.4734  -54.5186 N.am      22 UNK        -0.7600 
    123 O         -7.7728  -18.6350  -54.7824 O.2       22 UNK        -0.5000 
    124 C124       -5.5921  -17.0946  -52.2562 C.3       23 UNK        -0.0398 
    125 S125       -4.7530  -15.5240  -52.6659 S.3       23 UNK        -0.2404 
    126 C126       -3.4095  -15.4739  -51.4337 C.3       23 UNK        -0.0205 
    127 H127        0.1682  -16.0300  -47.5259 H         1 UNK         0.0600 
    128 H128       -1.5799  -15.9758  -47.7825 H         1 UNK         0.0600 
    129 H129       -0.8970  -17.0207  -46.5319 H         1 UNK         0.0600 
    130 H130       -2.2992  -13.9400  -47.0944 H         1 UNK         0.3000 
    131 H131       -1.9018  -13.1143  -44.3585 H         1 UNK         0.0600 
    132 H132       -4.0526  -12.7120  -45.3437 H         1 UNK         0.0800 
    133 H133       -3.3347  -11.1924  -44.9226 H         1 UNK         0.0800 
    134 H134       -5.4667  -11.7710  -48.6433 H         1 UNK         0.0800 
    135 H135       -5.7303  -12.3171  -47.0118 H         1 UNK         0.0800 
    136 H136       -4.0010  -13.1040  -50.2184 H         1 UNK         0.1150 
    137 H137       -4.0057  -17.3300  -49.5176 H         1 UNK         0.1150 
    138 H138       -5.3282  -14.6608  -46.4481 H         1 UNK         0.1150 
    139 H139       -5.3610  -17.0091  -46.0252 H         1 UNK         0.0800 
    140 H140       -5.8367  -17.8771  -47.4708 H         1 UNK         0.0800 
    141 H141       -5.3722  -19.9847  -46.3634 H         1 UNK         0.0800 
    142 H142       -4.4380  -19.6741  -44.9214 H         1 UNK         0.0800 
    143 H143       -3.5566  -21.3241  -47.3393 H         1 UNK         0.0600 
    144 H144       -1.9928  -20.4986  -44.9921 H         1 UNK         0.3000 
    145 H145        0.9122  -22.2870  -46.1486 H         1 UNK         0.0600 
    146 H146        1.8077  -20.0183  -45.8543 H         1 UNK         0.0600 
    147 H147        0.7928  -20.0725  -47.2872 H         1 UNK         0.0600 
    148 H148        0.1866  -19.3354  -45.8133 H         1 UNK         0.0600 
    149 H149        0.6324  -20.8087  -43.8041 H         1 UNK         0.3000 
    150 H150       -0.1141  -23.6210  -41.6680 H         1 UNK         0.0600 
    151 H151        2.2983  -23.6218  -42.3014 H         1 UNK         0.0600 
    152 H152        2.0474  -22.7922  -40.7728 H         1 UNK         0.0600 
    153 H153        2.3342  -21.8621  -42.2413 H         1 UNK         0.0600 
    154 H154        0.0288  -20.6338  -41.9174 H         1 UNK         0.3000 
    155 H155       -2.9354  -20.3225  -40.1140 H         1 UNK         0.0600 
    156 H156       -0.2301  -19.3708  -39.0241 H         1 UNK         0.0600 
    157 H157       -1.4115  -20.3139  -38.1233 H         1 UNK         0.0600 
    158 H158       -1.8067  -18.6812  -38.6338 H         1 UNK         0.0600 
    159 H159       -1.2270  -18.2867  -41.0262 H         1 UNK         0.3000 
    160 H160       -1.7053  -18.4744  -44.5068 H         1 UNK         0.0600 
    161 H161       -2.9774  -16.5024  -42.5380 H         1 UNK         0.0600 
    162 H162       -3.8848  -17.4964  -43.6704 H         1 UNK         0.0600 
    163 H163       -2.7805  -16.2807  -44.2757 H         1 UNK         0.0600 
    164 H164       -0.5256  -16.3851  -43.3085 H         1 UNK         0.3000 
    165 H165        1.5606  -16.0001  -43.1215 H         1 UNK         0.0600 
    166 H166        3.0664  -16.2673  -41.1727 H         1 UNK         0.0600 
    167 H167        1.4314  -16.7267  -40.7271 H         1 UNK         0.0600 
    168 H168        2.6351  -17.9726  -41.0338 H         1 UNK         0.0600 
    169 H169        3.9004  -17.5153  -43.1474 H         1 UNK         0.3000 
    170 H170        5.2162  -17.1567  -45.0166 H         1 UNK         0.0600 
    171 H171        4.6431  -19.6177  -44.8194 H         1 UNK         0.0600 
    172 H172        4.0488  -19.5944  -46.4757 H         1 UNK         0.0600 
    173 H173        5.7505  -19.2863  -46.1417 H         1 UNK         0.0600 
    174 H174        4.4834  -17.6254  -47.7598 H         1 UNK         0.3000 
    175 H175        5.1860  -15.5305  -49.2146 H         1 UNK         0.0600 
    176 H176        2.1307  -15.6493  -48.8156 H         1 UNK         0.0600 
    177 H177        2.9424  -15.6246  -50.3764 H         1 UNK         0.0600 
    178 H178        3.1294  -17.0069  -49.3204 H         1 UNK         0.0600 
    179 H179        3.9735  -13.3843  -47.8027 H         1 UNK         0.3000 
    180 H180        4.9561  -11.0767  -49.3302 H         1 UNK         0.0600 
    181 H181        2.4918  -11.1911  -51.1436 H         1 UNK         0.0600 
    182 H182        4.1470  -10.8754  -51.6451 H         1 UNK         0.0600 
    183 H183        3.3074   -9.7137  -50.6332 H         1 UNK         0.0600 
    184 H184        3.5643  -10.5986  -47.6936 H         1 UNK         0.3000 
    185 H185        1.8755  -11.0397  -46.1087 H         1 UNK         0.0600 
    186 H186        0.0349   -9.4085  -47.9688 H         1 UNK         0.0600 
    187 H187        0.3273   -9.0673  -46.2651 H         1 UNK         0.0600 
    188 H188        1.6267   -8.8887  -47.4285 H         1 UNK         0.0600 
    189 H189       -0.2727  -12.4093  -47.3808 H         1 UNK         0.3000 
    190 H190       -3.1242  -22.1917  -43.9610 H         1 UNK         0.3000 
    191 H191       -5.4159  -23.8205  -43.6350 H         1 UNK         0.0600 
    192 H192       -2.7148  -23.9126  -42.1941 H         1 UNK         0.0600 
    193 H193       -4.2074  -24.6460  -41.6226 H         1 UNK         0.0600 
    194 H194       -4.0856  -22.8974  -41.7507 H         1 UNK         0.0600 
    195 H195       -2.0353  -24.7252  -44.5552 H         1 UNK         0.3000 
    196 H196       -2.9929  -27.5118  -45.1396 H         1 UNK         0.0600 
    197 H197       -0.7493  -28.2145  -44.3716 H         1 UNK         0.0600 
    198 H198       -1.5880  -27.3310  -43.1058 H         1 UNK         0.0600 
    199 H199       -0.3111  -26.5446  -44.0317 H         1 UNK         0.0600 
    200 H200       -0.8811  -24.8536  -46.3249 H         1 UNK         0.3000 
    201 H201        0.1933  -26.6244  -48.4278 H         1 UNK         0.0600 
    202 H202        1.6548  -25.1645  -46.9253 H         1 UNK         0.0600 
    203 H203        1.0166  -23.7665  -47.7919 H         1 UNK         0.0600 
    204 H204        1.9231  -24.9933  -48.6517 H         1 UNK         0.0600 
    205 H205       -2.5959  -25.0413  -48.3940 H         1 UNK         0.3000 
    206 H206       -4.0258  -24.1644  -49.8656 H         1 UNK         0.0600 
    207 H207       -3.9156  -24.8986  -52.2170 H         1 UNK         0.0600 
    208 H208       -3.4842  -26.2342  -51.1625 H         1 UNK         0.0600 
    209 H209       -2.2293  -25.3631  -52.0418 H         1 UNK         0.0600 
    210 H210       -2.3878  -22.3506  -48.8265 H         1 UNK         0.3000 
    211 H211       -1.8798  -20.1993  -48.8670 H         1 UNK         0.0600 
    212 H212       -2.5535  -18.6869  -50.7270 H         1 UNK         0.0600 
    213 H213       -3.8818  -19.6898  -50.1703 H         1 UNK         0.0600 
    214 H214       -3.0626  -20.0645  -51.6847 H         1 UNK         0.0600 
    215 H215       -0.0451  -22.1746  -49.3291 H         1 UNK         0.3000 
    216 H216        2.0684  -22.6231  -49.8353 H         1 UNK         0.0600 
    217 H217        3.7070  -20.8030  -50.1780 H         1 UNK         0.0600 
    218 H218        2.6150  -20.4000  -48.8653 H         1 UNK         0.0600 
    219 H219        2.4189  -19.6389  -50.4431 H         1 UNK         0.0600 
    220 H220        0.4946  -23.5691  -51.5547 H         1 UNK         0.3000 
    221 H221        0.1074  -24.3907  -53.5464 H         1 UNK         0.0600 
    222 H222        2.9803  -23.5786  -54.2386 H         1 UNK         0.0600 
    223 H223        2.5076  -25.0498  -53.3897 H         1 UNK         0.0600 
    224 H224        2.0172  -24.8007  -55.0570 H         1 UNK         0.0600 
    225 H225       -1.1419  -22.0665  -53.2912 H         1 UNK         0.3000 
    226 H226       -1.0291  -20.8153  -56.0078 H         1 UNK         0.0600 
    227 H227       -0.1256  -19.2619  -54.2324 H         1 UNK         0.0600 
    228 H228       -1.5947  -18.6659  -54.9897 H         1 UNK         0.0600 
    229 H229       -1.6637  -19.3769  -53.3846 H         1 UNK         0.0600 
    230 H230       -2.5114  -23.1351  -54.9251 H         1 UNK         0.3000 
    231 H231       -4.4937  -24.1236  -55.0368 H         1 UNK         0.0600 
    232 H232       -4.2943  -23.3410  -57.4078 H         1 UNK         0.0600 
    233 H233       -5.2173  -21.8927  -57.0091 H         1 UNK         0.0600 
    234 H234       -5.9707  -23.4789  -56.9074 H         1 UNK         0.0600 
    235 H235       -4.2028  -22.3486  -52.8616 H         1 UNK         0.3000 
    236 H236       -5.2542  -21.5496  -51.1029 H         1 UNK         0.0600 
    237 H237       -7.5576  -22.1133  -50.5611 H         1 UNK         0.0600 
    238 H238       -7.9251  -22.5055  -52.2323 H         1 UNK         0.0600 
    239 H239       -6.8018  -23.5078  -51.3126 H         1 UNK         0.0600 
    240 H240       -4.9492  -19.9593  -53.6738 H         1 UNK         0.3000 
    241 H241       -4.9692  -17.8620  -54.1791 H         1 UNK         0.0600 
    242 H242       -8.2389  -16.2639  -55.0602 H         1 UNK         0.3800 
    243 H243       -6.8515  -15.7205  -54.1512 H         1 UNK         0.3800 
    244 H244       -6.5401  -16.8806  -51.7595 H         1 UNK         0.0800 
    245 H245       -4.9872  -17.6073  -51.5115 H         1 UNK         0.0800 
    246 H246       -2.7206  -14.6708  -51.6994 H         1 UNK         0.0800 
    247 H247       -2.8288  -16.3960  -51.4831 H         1 UNK         0.0800 
@<TRIPOS>BOND
     1    1    2 1    
     2    1  127 1    
     3    1  128 1    
     4    1  129 1    
     5    2    3 2    
     6    2    4 am   BACKBONE|DICT|INTERRES
     7    4    5 1    
     8    4  130 1    
     9    5    6 1    
    10    5   65 1    
    11    5  131 1    
    12    6    7 1    
    13    6  132 1    
    14    6  133 1    
    15    7    8 1    
    16    8    9 1    
    17    8  134 1    
    18    8  135 1    
    19    9   10 ar   
    20    9   14 ar   
    21   10   11 ar   
    22   10  136 1    
    23   11   12 ar   
    24   11  126 1    
    25   12   13 ar   
    26   12  137 1    
    27   13   14 ar   
    28   13   15 1    
    29   14  138 1    
    30   15   16 1    
    31   15  139 1    
    32   15  140 1    
    33   16   17 1    
    34   17   18 1    
    35   17  141 1    
    36   17  142 1    
    37   18   19 1    
    38   18   67 1    
    39   18  143 1    
    40   19   20 am   BACKBONE|DICT|INTERRES
    41   19  144 1    
    42   20   21 2    
    43   20   22 1    
    44   22   23 1    
    45   22   24 1    
    46   22  145 1    
    47   23  146 1    
    48   23  147 1    
    49   23  148 1    
    50   24   25 am   BACKBONE|DICT|INTERRES
    51   24  149 1    
    52   25   26 2    
    53   25   27 1    
    54   27   28 1    
    55   27   29 1    
    56   27  150 1    
    57   28  151 1    
    58   28  152 1    
    59   28  153 1    
    60   29   30 am   BACKBONE|DICT|INTERRES
    61   29  154 1    
    62   30   31 2    
    63   30   32 1    
    64   32   33 1    
    65   32   34 1    
    66   32  155 1    
    67   33  156 1    
    68   33  157 1    
    69   33  158 1    
    70   34   35 am   BACKBONE|DICT|INTERRES
    71   34  159 1    
    72   35   36 2    
    73   35   37 1    
    74   37   38 1    
    75   37   39 1    
    76   37  160 1    
    77   38  161 1    
    78   38  162 1    
    79   38  163 1    
    80   39   40 am   BACKBONE|DICT|INTERRES
    81   39  164 1    
    82   40   41 2    
    83   40   42 1    
    84   42   43 1    
    85   42   44 1    
    86   42  165 1    
    87   43  166 1    
    88   43  167 1    
    89   43  168 1    
    90   44   45 am   BACKBONE|DICT|INTERRES
    91   44  169 1    
    92   45   46 2    
    93   45   47 1    
    94   47   48 1    
    95   47   49 1    
    96   47  170 1    
    97   48  171 1    
    98   48  172 1    
    99   48  173 1    
   100   49   50 am   BACKBONE|DICT|INTERRES
   101   49  174 1    
   102   50   51 2    
   103   50   52 1    
   104   52   53 1    
   105   52   54 1    
   106   52  175 1    
   107   53  176 1    
   108   53  177 1    
   109   53  178 1    
   110   54   55 am   BACKBONE|DICT|INTERRES
   111   54  179 1    
   112   55   56 2    
   113   55   57 1    
   114   57   58 1    
   115   57   59 1    
   116   57  180 1    
   117   58  181 1    
   118   58  182 1    
   119   58  183 1    
   120   59   60 am   BACKBONE|DICT|INTERRES
   121   59  184 1    
   122   60   61 2    
   123   60   62 1    
   124   62   63 1    
   125   62   64 1    
   126   62  185 1    
   127   63  186 1    
   128   63  187 1    
   129   63  188 1    
   130   64   65 am   BACKBONE|DICT|INTERRES
   131   64  189 1    
   132   65   66 2    
   133   67   68 2    
   134   67   69 am   BACKBONE|DICT|INTERRES
   135   69   70 1    
   136   69  190 1    
   137   70   71 1    
   138   70   72 1    
   139   70  191 1    
   140   71  192 1    
   141   71  193 1    
   142   71  194 1    
   143   72   73 2    
   144   72   74 am   BACKBONE|DICT|INTERRES
   145   74   75 1    
   146   74  195 1    
   147   75   76 1    
   148   75   77 1    
   149   75  196 1    
   150   76  197 1    
   151   76  198 1    
   152   76  199 1    
   153   77   78 2    
   154   77   79 am   BACKBONE|DICT|INTERRES
   155   79   80 1    
   156   79  200 1    
   157   80   81 1    
   158   80   82 1    
   159   80  201 1    
   160   81  202 1    
   161   81  203 1    
   162   81  204 1    
   163   82   83 2    
   164   82   84 am   BACKBONE|DICT|INTERRES
   165   84   85 1    
   166   84  205 1    
   167   85   86 1    
   168   85   87 1    
   169   85  206 1    
   170   86  207 1    
   171   86  208 1    
   172   86  209 1    
   173   87   88 2    
   174   87   89 am   BACKBONE|DICT|INTERRES
   175   89   90 1    
   176   89  210 1    
   177   90   91 1    
   178   90   92 1    
   179   90  211 1    
   180   91  212 1    
   181   91  213 1    
   182   91  214 1    
   183   92   93 2    
   184   92   94 am   BACKBONE|DICT|INTERRES
   185   94   95 1    
   186   94  215 1    
   187   95   96 1    
   188   95   97 1    
   189   95  216 1    
   190   96  217 1    
   191   96  218 1    
   192   96  219 1    
   193   97   98 2    
   194   97   99 am   BACKBONE|DICT|INTERRES
   195   99  100 1    
   196   99  220 1    
   197  100  101 1    
   198  100  102 1    
   199  100  221 1    
   200  101  222 1    
   201  101  223 1    
   202  101  224 1    
   203  102  103 2    
   204  102  104 am   BACKBONE|DICT|INTERRES
   205  104  105 1    
   206  104  225 1    
   207  105  106 1    
   208  105  107 1    
   209  105  226 1    
   210  106  227 1    
   211  106  228 1    
   212  106  229 1    
   213  107  108 2    
   214  107  109 am   BACKBONE|DICT|INTERRES
   215  109  110 1    
   216  109  230 1    
   217  110  111 1    
   218  110  112 1    
   219  110  231 1    
   220  111  232 1    
   221  111  233 1    
   222  111  234 1    
   223  112  113 2    
   224  112  114 am   BACKBONE|DICT|INTERRES
   225  114  115 1    
   226  114  235 1    
   227  115  116 1    
   228  115  117 1    
   229  115  236 1    
   230  116  237 1    
   231  116  238 1    
   232  116  239 1    
   233  117  118 2    
   234  117  119 am   BACKBONE|DICT|INTERRES
   235  119  120 1    
   236  119  240 1    
   237  120  121 1    
   238  120  124 1    
   239  120  241 1    
   240  121  122 am   BACKBONE|DICT|INTERRES
   241  121  123 2    
   242  122  242 1    
   243  122  243 1    
   244  124  125 1    
   245  124  244 1    
   246  124  245 1    
   247  125  126 1    
   248  126  246 1    
   249  126  247 1    
@<TRIPOS>SUBSTRUCTURE
     1 UNK         1 GROUP             0       ****    0 ROOT    
