@<TRIPOS>MOLECULE
3R540
247   249    1
SMALL
USER_CHARGES


@<TRIPOS>ATOM
      1 CA          3.8653  -10.6925  -49.2930 C.3       0 UNK        -0.1800 
      2 C           2.9446  -11.1994  -48.1933 C.2       0 UNK         0.5000 
      3 O           3.0366  -10.7365  -47.0565 O.2       0 UNK        -0.5000 
      4 N           2.0416  -12.1313  -48.5299 N.am      1 UNK        -0.5000 
      5 CA          1.1125  -12.8059  -47.6088 C.3       1 UNK         0.1400 
      6 C6          0.3225  -13.9418  -48.2976 C.3       23 UNK        -0.0398 
      7 S7          1.4008  -15.2148  -49.0295 S.3       23 UNK        -0.2404 
      8 C8          0.1381  -16.2740  -49.7913 C.3       23 UNK        -0.0205 
      9 C9          0.7629  -17.4303  -50.5512 C.ar      23 UNK        -0.0193 
     10 C10         0.9870  -17.3271  -51.9267 C.ar      23 UNK        -0.1150 
     11 C11         1.5082  -18.4064  -52.6430 C.ar      23 UNK        -0.0193 
     12 C12         1.8410  -19.5827  -51.9653 C.ar      23 UNK        -0.1150 
     13 C13         1.6408  -19.6911  -50.5860 C.ar      23 UNK        -0.0193 
     14 C14         1.0945  -18.6131  -49.8852 C.ar      23 UNK        -0.1150 
     15 C15         2.0244  -20.9724  -49.8625 C.3       23 UNK        -0.0205 
     16 S16         0.7959  -22.2844  -50.1365 S.3       23 UNK        -0.2404 
     17 C17        -0.4613  -21.8989  -48.8731 C.3       23 UNK        -0.0398 
     18 CA         -0.5449  -23.0261  -47.8058 C.3       11 UNK         0.1400 
     19 N          -0.0948  -22.5980  -46.4773 N.am      11 UNK        -0.5000 
     20 C           0.1258  -23.4377  -45.4546 C.2       10 UNK         0.5000 
     21 O           0.0021  -24.6596  -45.5355 O.2       10 UNK        -0.5000 
     22 CA          0.4981  -22.8136  -44.0995 C.3       10 UNK         0.1400 
     23 CB          1.9853  -22.4330  -44.0638 C.3       10 UNK        -0.1800 
     24 N          -0.3273  -21.6515  -43.7707 N.am      10 UNK        -0.5000 
     25 C          -1.6549  -21.6948  -43.5848 C.2       9 UNK         0.5000 
     26 O          -2.3154  -22.7322  -43.6223 O.2       9 UNK        -0.5000 
     27 CA         -2.3767  -20.3508  -43.3778 C.3       9 UNK         0.1400 
     28 CB         -2.2246  -19.8635  -41.9298 C.3       9 UNK        -0.1800 
     29 N          -1.9143  -19.3132  -44.3001 N.am      9 UNK        -0.5000 
     30 C          -2.0042  -19.3893  -45.6360 C.2       8 UNK         0.5000 
     31 O          -2.5163  -20.3316  -46.2383 O.2       8 UNK        -0.5000 
     32 CA         -1.3552  -18.2484  -46.4355 C.3       8 UNK         0.1400 
     33 CB         -2.2643  -17.0103  -46.4634 C.3       8 UNK        -0.1800 
     34 N          -0.0387  -17.8945  -45.9042 N.am      8 UNK        -0.5000 
     35 C           1.0236  -18.7135  -45.9164 C.2       7 UNK         0.5000 
     36 O           1.0185  -19.8342  -46.4256 O.2       7 UNK        -0.5000 
     37 CA          2.2858  -18.2133  -45.1964 C.3       7 UNK         0.1400 
     38 CB          3.0672  -17.2357  -46.0869 C.3       7 UNK        -0.1800 
     39 N           1.9665  -17.5798  -43.9157 N.am      7 UNK        -0.5000 
     40 C           1.5081  -18.2495  -42.8457 C.2       6 UNK         0.5000 
     41 O           1.3500  -19.4690  -42.8269 O.2       6 UNK        -0.5000 
     42 CA          1.1217  -17.4304  -41.5977 C.3       6 UNK         0.1400 
     43 CB          2.3237  -17.2975  -40.6514 C.3       6 UNK        -0.1800 
     44 N           0.6093  -16.0977  -41.9102 N.am      6 UNK        -0.5000 
     45 C          -0.4672  -15.8370  -42.6647 C.2       5 UNK         0.5000 
     46 O          -1.2147  -16.7094  -43.1082 O.2       5 UNK        -0.5000 
     47 CA         -0.7164  -14.3601  -43.0335 C.3       5 UNK         0.1400 
     48 CB         -1.8131  -13.7607  -42.1418 C.3       5 UNK        -0.1800 
     49 N           0.4763  -13.5038  -42.9690 N.am      5 UNK        -0.5000 
     50 C           1.6011  -13.6859  -43.6757 C.2       4 UNK         0.5000 
     51 O           1.7836  -14.6437  -44.4288 O.2       4 UNK        -0.5000 
     52 CA          2.6775  -12.6036  -43.5199 C.3       4 UNK         0.1400 
     53 CB          3.9607  -12.9098  -44.3181 C.3       4 UNK        -0.1800 
     54 N           2.1217  -11.3201  -43.9379 N.am      4 UNK        -0.5000 
     55 C           2.5380  -10.1200  -43.5132 C.2       3 UNK         0.5000 
     56 O           3.3946   -9.9756  -42.6394 O.2       3 UNK        -0.5000 
     57 CA          1.9118   -8.8721  -44.1712 C.3       3 UNK         0.1400 
     58 CB          2.9930   -7.8616  -44.5927 C.3       3 UNK        -0.1800 
     59 N           1.1267   -9.2236  -45.3548 N.am      3 UNK        -0.5000 
     60 C          -0.1911   -9.0329  -45.5057 C.2       2 UNK         0.5000 
     61 O          -0.9039   -8.4834  -44.6652 O.2       2 UNK        -0.5000 
     62 CA         -0.8324   -9.5579  -46.8096 C.3       2 UNK         0.1400 
     63 CB         -0.9966   -8.4160  -47.8240 C.3       2 UNK        -0.1800 
     64 N          -0.0785  -10.6457  -47.4396 N.am      2 UNK        -0.5000 
     65 C           0.1373  -11.8484  -46.8881 C.2       1 UNK         0.5000 
     66 O          -0.3632  -12.1947  -45.8196 O.2       1 UNK        -0.5000 
     67 C          -1.9452  -23.6693  -47.7653 C.2       11 UNK         0.5000 
     68 O          -2.1537  -24.6973  -48.4084 O.2       11 UNK        -0.5000 
     69 N          -2.8681  -23.0851  -46.9914 N.am      12 UNK        -0.5000 
     70 CA         -4.2105  -23.6222  -46.7729 C.3       12 UNK         0.1400 
     71 CB         -5.0556  -22.5955  -46.0032 C.3       12 UNK        -0.1800 
     72 C          -4.1971  -24.9751  -46.0370 C.2       12 UNK         0.5000 
     73 O          -4.9481  -25.8758  -46.4111 O.2       12 UNK        -0.5000 
     74 N          -3.3468  -25.0910  -45.0091 N.am      13 UNK        -0.5000 
     75 CA         -3.2276  -26.2764  -44.1661 C.3       13 UNK         0.1400 
     76 CB         -2.5446  -25.8953  -42.8424 C.3       13 UNK        -0.1800 
     77 C          -2.4829  -27.4365  -44.8486 C.2       13 UNK         0.5000 
     78 O          -3.0199  -28.5432  -44.9135 O.2       13 UNK        -0.5000 
     79 N          -1.2469  -27.1829  -45.2980 N.am      14 UNK        -0.5000 
     80 CA         -0.3167  -28.2238  -45.7349 C.3       14 UNK         0.1400 
     81 CB          1.1213  -27.8038  -45.3892 C.3       14 UNK        -0.1800 
     82 C          -0.4412  -28.5394  -47.2312 C.2       14 UNK         0.5000 
     83 O          -0.4968  -29.7139  -47.5984 O.2       14 UNK        -0.5000 
     84 N          -0.4623  -27.4953  -48.0698 N.am      15 UNK        -0.5000 
     85 CA         -0.4728  -27.6311  -49.5296 C.3       15 UNK         0.1400 
     86 CB          0.2407  -26.4208  -50.1565 C.3       15 UNK        -0.1800 
     87 C          -1.8890  -27.7933  -50.1119 C.2       15 UNK         0.5000 
     88 O          -2.0145  -28.1922  -51.2704 O.2       15 UNK        -0.5000 
     89 N          -2.9170  -27.4608  -49.3150 N.am      16 UNK        -0.5000 
     90 CA         -4.3325  -27.3508  -49.6900 C.3       16 UNK         0.1400 
     91 CB         -4.9201  -28.7289  -50.0595 C.3       16 UNK        -0.1800 
     92 C          -4.5674  -26.2732  -50.7727 C.2       16 UNK         0.5000 
     93 O          -5.4252  -26.4379  -51.6426 O.2       16 UNK        -0.5000 
     94 N          -3.7747  -25.1985  -50.6991 N.am      17 UNK        -0.5000 
     95 CA         -3.7729  -24.0601  -51.6083 C.3       17 UNK         0.1400 
     96 CB         -2.3198  -23.8183  -52.0658 C.3       17 UNK        -0.1800 
     97 C          -4.4218  -22.8487  -50.9097 C.2       17 UNK         0.5000 
     98 O          -5.4364  -23.0189  -50.2298 O.2       17 UNK        -0.5000 
     99 N          -3.8336  -21.6576  -51.0956 N.am      18 UNK        -0.5000 
    100 CA        -4.3016  -20.3433  -50.6445 C.3       18 UNK         0.1400 
    101 CB        -4.4881  -20.3030  -49.1136 C.3       18 UNK        -0.1800 
    102 C         -5.5527  -19.8590  -51.4094 C.2       18 UNK         0.5000 
    103 O         -6.0496  -20.5504  -52.3032 O.2       18 UNK        -0.5000 
    104 N         -6.0181  -18.6488  -51.0653 N.am      19 UNK        -0.5000 
    105 CA        -7.1455  -17.9324  -51.6717 C.3       19 UNK         0.1400 
    106 CB        -8.4826  -18.6267  -51.3258 C.3       19 UNK        -0.1800 
    107 C         -6.9245  -17.7075  -53.1822 C.2       19 UNK         0.5000 
    108 O         -6.1082  -16.8613  -53.5490 O.2       19 UNK        -0.5000 
    109 N         -7.6292  -18.4741  -54.0256 N.am      20 UNK        -0.5000 
    110 CA        -7.4759  -18.4764  -55.4812 C.3       20 UNK         0.1400 
    111 CB        -8.6349  -19.2664  -56.1074 C.3       20 UNK        -0.1800 
    112 C         -6.1205  -19.0451  -55.9458 C.2       20 UNK         0.5000 
    113 O         -5.6025  -18.6087  -56.9748 O.2       20 UNK        -0.5000 
    114 N         -5.5498  -19.9800  -55.1736 N.am      21 UNK        -0.5000 
    115 CA        -4.2201  -20.5455  -55.3903 C.3       21 UNK         0.1400 
    116 CB        -4.2122  -22.0091  -54.9176 C.3       21 UNK        -0.1800 
    117 C         -3.1747  -19.6709  -54.6748 C.2       21 UNK         0.5000 
    118 O         -2.6187  -20.0826  -53.6539 O.2       21 UNK        -0.5000 
    119 N         -2.9970  -18.4563  -55.2130 N.am      22 UNK        -0.5000 
    120 CA        -2.1174  -17.3327  -54.8238 C.3       22 UNK         0.1400 
    121 C         -2.1180  -16.8468  -53.3439 C.2       22 UNK         0.5000 
    122 N         -2.4813  -17.6624  -52.3700 N.am      22 UNK        -0.7600 
    123 O         -1.8065  -15.6878  -53.0829 O.2       22 UNK        -0.5000 
    124 C124       -0.6849  -17.4144  -55.4266 C.3       23 UNK        -0.0398 
    125 S125        0.2712  -18.9325  -55.0654 S.3       23 UNK        -0.2404 
    126 C126        1.7159  -18.3088  -54.1458 C.3       23 UNK        -0.0205 
    127 H127        3.6645  -11.1803  -50.2472 H         1 UNK         0.0600 
    128 H128        4.9051  -10.8813  -49.0262 H         1 UNK         0.0600 
    129 H129        3.7355   -9.6184  -49.4248 H         1 UNK         0.0600 
    130 H130        2.0230  -12.4731  -49.4806 H         1 UNK         0.3000 
    131 H131        1.7263  -13.2597  -46.8285 H         1 UNK         0.0600 
    132 H132       -0.3301  -14.4370  -47.5766 H         1 UNK         0.0800 
    133 H133       -0.3249  -13.5382  -49.0784 H         1 UNK         0.0800 
    134 H134       -0.5274  -16.6599  -49.0195 H         1 UNK         0.0800 
    135 H135       -0.4804  -15.6770  -50.4637 H         1 UNK         0.0800 
    136 H136        0.7331  -16.4129  -52.4440 H         1 UNK         0.1150 
    137 H137        2.2486  -20.4207  -52.5134 H         1 UNK         0.1150 
    138 H138        0.9289  -18.6917  -48.8217 H         1 UNK         0.1150 
    139 H139        2.9911  -21.3159  -50.2333 H         1 UNK         0.0800 
    140 H140        2.1551  -20.7979  -48.7932 H         1 UNK         0.0800 
    141 H141       -1.4058  -21.7513  -49.3999 H         1 UNK         0.0800 
    142 H142       -0.2484  -20.9332  -48.4163 H         1 UNK         0.0800 
    143 H143        0.1300  -23.8355  -48.0934 H         1 UNK         0.0600 
    144 H144        0.0667  -21.6049  -46.3421 H         1 UNK         0.3000 
    145 H145        0.3260  -23.5696  -43.3307 H         1 UNK         0.0600 
    146 H146        2.2783  -22.0855  -43.0731 H         1 UNK         0.0600 
    147 H147        2.6141  -23.2907  -44.3059 H         1 UNK         0.0600 
    148 H148        2.2182  -21.6426  -44.7775 H         1 UNK         0.0600 
    149 H149        0.1584  -20.7652  -43.6697 H         1 UNK         0.3000 
    150 H150       -3.4391  -20.5113  -43.5718 H         1 UNK         0.0600 
    151 H151       -2.6361  -20.5917  -41.2298 H         1 UNK         0.0600 
    152 H152       -2.7523  -18.9229  -41.7709 H         1 UNK         0.0600 
    153 H153       -1.1790  -19.7107  -41.6650 H         1 UNK         0.0600 
    154 H154       -1.5108  -18.4776  -43.8865 H         1 UNK         0.3000 
    155 H155       -1.2233  -18.5960  -47.4622 H         1 UNK         0.0600 
    156 H156       -2.4458  -16.6147  -45.4642 H         1 UNK         0.0600 
    157 H157       -3.2345  -17.2532  -46.8987 H         1 UNK         0.0600 
    158 H158       -1.8322  -16.2114  -47.0634 H         1 UNK         0.0600 
    159 H159        0.0405  -17.0099  -45.4244 H         1 UNK         0.3000 
    160 H160        2.9248  -19.0770  -45.0005 H         1 UNK         0.0600 
    161 H161        2.4763  -16.3541  -46.3366 H         1 UNK         0.0600 
    162 H162        3.3548  -17.7097  -47.0263 H         1 UNK         0.0600 
    163 H163        3.9806  -16.8980  -45.5974 H         1 UNK         0.0600 
    164 H164        2.0222  -16.5666  -43.8860 H         1 UNK         0.3000 
    165 H165        0.3331  -17.9731  -41.0741 H         1 UNK         0.0600 
    166 H166        2.0446  -16.7925  -39.7264 H         1 UNK         0.0600 
    167 H167        2.7159  -18.2783  -40.3788 H         1 UNK         0.0600 
    168 H168        3.1373  -16.7345  -41.1106 H         1 UNK         0.0600 
    169 H169        1.1606  -15.3155  -41.5908 H         1 UNK         0.3000 
    170 H170       -1.0713  -14.3461  -44.0661 H         1 UNK         0.0600 
    171 H171       -2.7244  -14.3589  -42.1867 H         1 UNK         0.0600 
    172 H172       -1.5015  -13.7138  -41.0976 H         1 UNK         0.0600 
    173 H173       -2.0733  -12.7516  -42.4622 H         1 UNK         0.0600 
    174 H174        0.4041  -12.6821  -42.3866 H         1 UNK         0.3000 
    175 H175        2.9324  -12.5628  -42.4589 H         1 UNK         0.0600 
    176 H176        3.7673  -12.9472  -45.3906 H         1 UNK         0.0600 
    177 H177        4.7256  -12.1530  -44.1448 H         1 UNK         0.0600 
    178 H178        4.3842  -13.8714  -44.0257 H         1 UNK         0.0600 
    179 H179        1.3687  -11.3664  -44.6131 H         1 UNK         0.3000 
    180 H180        1.2805   -8.4026  -43.4145 H         1 UNK         0.0600 
    181 H181        3.6843   -8.2954  -45.3166 H         1 UNK         0.0600 
    182 H182        3.5786   -7.5271  -43.7356 H         1 UNK         0.0600 
    183 H183        2.5477   -6.9751  -45.0446 H         1 UNK         0.0600 
    184 H184        1.6460   -9.6961  -46.0899 H         1 UNK         0.3000 
    185 H185       -1.8239   -9.9389  -46.5567 H         1 UNK         0.0600 
    186 H186       -1.5793   -7.5971  -47.3999 H         1 UNK         0.0600 
    187 H187       -0.0321   -8.0085  -48.1299 H         1 UNK         0.0600 
    188 H188       -1.5186   -8.7544  -48.7191 H         1 UNK         0.0600 
    189 H189        0.3784  -10.4336  -48.3146 H         1 UNK         0.3000 
    190 H190       -2.6447  -22.2070  -46.5293 H         1 UNK         0.3000 
    191 H191       -4.6718  -23.7791  -47.7495 H         1 UNK         0.0600 
    192 H192       -5.1092  -21.6467  -46.5355 H         1 UNK         0.0600 
    193 H193       -6.0773  -22.9529  -45.8706 H         1 UNK         0.0600 
    194 H194       -4.6456  -22.3961  -45.0131 H         1 UNK         0.0600 
    195 H195       -2.8000  -24.2805  -44.7333 H         1 UNK         0.3000 
    196 H196       -4.2342  -26.6263  -43.9268 H         1 UNK         0.0600 
    197 H197       -2.4354  -26.7643  -42.1924 H         1 UNK         0.0600 
    198 H198       -3.1304  -25.1542  -42.2983 H         1 UNK         0.0600 
    199 H199       -1.5502  -25.4777  -43.0052 H         1 UNK         0.0600 
    200 H200       -0.8803  -26.2334  -45.2592 H         1 UNK         0.3000 
    201 H201       -0.5243  -29.1439  -45.1838 H         1 UNK         0.0600 
    202 H202        1.2292  -27.6104  -44.3219 H         1 UNK         0.0600 
    203 H203        1.4232  -26.9028  -45.9240 H         1 UNK         0.0600 
    204 H204        1.8298  -28.5908  -45.6505 H         1 UNK         0.0600 
    205 H205       -0.4460  -26.5577  -47.6931 H         1 UNK         0.3000 
    206 H206        0.0937  -28.5222  -49.8088 H         1 UNK         0.0600 
    207 H207        1.2491  -26.3055  -49.7591 H         1 UNK         0.0600 
    208 H208        0.3306  -26.5408  -51.2368 H         1 UNK         0.0600 
    209 H209       -0.2964  -25.4901  -49.9821 H         1 UNK         0.0600 
    210 H210       -2.6826  -27.1022  -48.3995 H         1 UNK         0.3000 
    211 H211       -4.8576  -27.0017  -48.8012 H         1 UNK         0.0600 
    212 H212       -4.5007  -29.1154  -50.9886 H         1 UNK         0.0600 
    213 H213       -6.0009  -28.6684  -50.1909 H         1 UNK         0.0600 
    214 H214       -4.7300  -29.4609  -49.2746 H         1 UNK         0.0600 
    215 H215       -3.1437  -25.1256  -49.9039 H         1 UNK         0.3000 
    216 H216       -4.3747  -24.2788  -52.4923 H         1 UNK         0.0600 
    217 H217       -2.2514  -23.0191  -52.8043 H         1 UNK         0.0600 
    218 H218       -1.9055  -24.7136  -52.5300 H         1 UNK         0.0600 
    219 H219       -1.6747  -23.5583  -51.2272 H         1 UNK         0.0600 
    220 H220       -3.0429  -21.6214  -51.7253 H         1 UNK         0.3000 
    221 H221       -3.4947  -19.6553  -50.8897 H         1 UNK         0.0600 
    222 H222       -5.3969  -20.8180  -48.8022 H         1 UNK         0.0600 
    223 H223       -3.6472  -20.7711  -48.6043 H         1 UNK         0.0600 
    224 H224       -4.5532  -19.2787  -48.7464 H         1 UNK         0.0600 
    225 H225       -5.5246  -18.1350  -50.3499 H         1 UNK         0.3000 
    226 H226       -7.1660  -16.9411  -51.2165 H         1 UNK         0.0600 
    227 H227       -8.6348  -18.6546  -50.2468 H         1 UNK         0.0600 
    228 H228       -9.3276  -18.0860  -51.7540 H         1 UNK         0.0600 
    229 H229       -8.5274  -19.6544  -51.6873 H         1 UNK         0.0600 
    230 H230       -8.2551  -19.1631  -53.6345 H         1 UNK         0.3000 
    231 H231       -7.5381  -17.4436  -55.8307 H         1 UNK         0.0600 
    232 H232       -8.6372  -20.3064  -55.7784 H         1 UNK         0.0600 
    233 H233       -8.5640  -19.2665  -57.1960 H         1 UNK         0.0600 
    234 H234       -9.5983  -18.8284  -55.8457 H         1 UNK         0.0600 
    235 H235       -5.9927  -20.2237  -54.2926 H         1 UNK         0.3000 
    236 H236       -3.9807  -20.5463  -56.4559 H         1 UNK         0.0600 
    237 H237       -4.9163  -22.6102  -55.4928 H         1 UNK         0.0600 
    238 H238       -3.2251  -22.4552  -55.0435 H         1 UNK         0.0600 
    239 H239       -4.4853  -22.0949  -53.8674 H         1 UNK         0.0600 
    240 H240       -3.5878  -18.2494  -56.0085 H         1 UNK         0.3000 
    241 H241       -2.5885  -16.4946  -55.3395 H         1 UNK         0.0600 
    242 H242       -2.4714  -17.3453  -51.4168 H         1 UNK         0.3800 
    243 H243       -2.6121  -18.6419  -52.6106 H         1 UNK         0.3800 
    244 H244       -0.7660  -17.3570  -56.5126 H         1 UNK         0.0800 
    245 H245       -0.1047  -16.5342  -55.1458 H         1 UNK         0.0800 
    246 H246        1.9499  -17.2843  -54.4377 H         1 UNK         0.0800 
    247 H247        2.5862  -18.9029  -54.4286 H         1 UNK         0.0800 
@<TRIPOS>BOND
     1    1    2 1    
     2    1  127 1    
     3    1  128 1    
     4    1  129 1    
     5    2    3 2    
     6    2    4 am   BACKBONE|DICT|INTERRES
     7    4    5 1    
     8    4  130 1    
     9    5    6 1    
    10    5   65 1    
    11    5  131 1    
    12    6    7 1    
    13    6  132 1    
    14    6  133 1    
    15    7    8 1    
    16    8    9 1    
    17    8  134 1    
    18    8  135 1    
    19    9   10 ar   
    20    9   14 ar   
    21   10   11 ar   
    22   10  136 1    
    23   11   12 ar   
    24   11  126 1    
    25   12   13 ar   
    26   12  137 1    
    27   13   14 ar   
    28   13   15 1    
    29   14  138 1    
    30   15   16 1    
    31   15  139 1    
    32   15  140 1    
    33   16   17 1    
    34   17   18 1    
    35   17  141 1    
    36   17  142 1    
    37   18   19 1    
    38   18   67 1    
    39   18  143 1    
    40   19   20 am   BACKBONE|DICT|INTERRES
    41   19  144 1    
    42   20   21 2    
    43   20   22 1    
    44   22   23 1    
    45   22   24 1    
    46   22  145 1    
    47   23  146 1    
    48   23  147 1    
    49   23  148 1    
    50   24   25 am   BACKBONE|DICT|INTERRES
    51   24  149 1    
    52   25   26 2    
    53   25   27 1    
    54   27   28 1    
    55   27   29 1    
    56   27  150 1    
    57   28  151 1    
    58   28  152 1    
    59   28  153 1    
    60   29   30 am   BACKBONE|DICT|INTERRES
    61   29  154 1    
    62   30   31 2    
    63   30   32 1    
    64   32   33 1    
    65   32   34 1    
    66   32  155 1    
    67   33  156 1    
    68   33  157 1    
    69   33  158 1    
    70   34   35 am   BACKBONE|DICT|INTERRES
    71   34  159 1    
    72   35   36 2    
    73   35   37 1    
    74   37   38 1    
    75   37   39 1    
    76   37  160 1    
    77   38  161 1    
    78   38  162 1    
    79   38  163 1    
    80   39   40 am   BACKBONE|DICT|INTERRES
    81   39  164 1    
    82   40   41 2    
    83   40   42 1    
    84   42   43 1    
    85   42   44 1    
    86   42  165 1    
    87   43  166 1    
    88   43  167 1    
    89   43  168 1    
    90   44   45 am   BACKBONE|DICT|INTERRES
    91   44  169 1    
    92   45   46 2    
    93   45   47 1    
    94   47   48 1    
    95   47   49 1    
    96   47  170 1    
    97   48  171 1    
    98   48  172 1    
    99   48  173 1    
   100   49   50 am   BACKBONE|DICT|INTERRES
   101   49  174 1    
   102   50   51 2    
   103   50   52 1    
   104   52   53 1    
   105   52   54 1    
   106   52  175 1    
   107   53  176 1    
   108   53  177 1    
   109   53  178 1    
   110   54   55 am   BACKBONE|DICT|INTERRES
   111   54  179 1    
   112   55   56 2    
   113   55   57 1    
   114   57   58 1    
   115   57   59 1    
   116   57  180 1    
   117   58  181 1    
   118   58  182 1    
   119   58  183 1    
   120   59   60 am   BACKBONE|DICT|INTERRES
   121   59  184 1    
   122   60   61 2    
   123   60   62 1    
   124   62   63 1    
   125   62   64 1    
   126   62  185 1    
   127   63  186 1    
   128   63  187 1    
   129   63  188 1    
   130   64   65 am   BACKBONE|DICT|INTERRES
   131   64  189 1    
   132   65   66 2    
   133   67   68 2    
   134   67   69 am   BACKBONE|DICT|INTERRES
   135   69   70 1    
   136   69  190 1    
   137   70   71 1    
   138   70   72 1    
   139   70  191 1    
   140   71  192 1    
   141   71  193 1    
   142   71  194 1    
   143   72   73 2    
   144   72   74 am   BACKBONE|DICT|INTERRES
   145   74   75 1    
   146   74  195 1    
   147   75   76 1    
   148   75   77 1    
   149   75  196 1    
   150   76  197 1    
   151   76  198 1    
   152   76  199 1    
   153   77   78 2    
   154   77   79 am   BACKBONE|DICT|INTERRES
   155   79   80 1    
   156   79  200 1    
   157   80   81 1    
   158   80   82 1    
   159   80  201 1    
   160   81  202 1    
   161   81  203 1    
   162   81  204 1    
   163   82   83 2    
   164   82   84 am   BACKBONE|DICT|INTERRES
   165   84   85 1    
   166   84  205 1    
   167   85   86 1    
   168   85   87 1    
   169   85  206 1    
   170   86  207 1    
   171   86  208 1    
   172   86  209 1    
   173   87   88 2    
   174   87   89 am   BACKBONE|DICT|INTERRES
   175   89   90 1    
   176   89  210 1    
   177   90   91 1    
   178   90   92 1    
   179   90  211 1    
   180   91  212 1    
   181   91  213 1    
   182   91  214 1    
   183   92   93 2    
   184   92   94 am   BACKBONE|DICT|INTERRES
   185   94   95 1    
   186   94  215 1    
   187   95   96 1    
   188   95   97 1    
   189   95  216 1    
   190   96  217 1    
   191   96  218 1    
   192   96  219 1    
   193   97   98 2    
   194   97   99 am   BACKBONE|DICT|INTERRES
   195   99  100 1    
   196   99  220 1    
   197  100  101 1    
   198  100  102 1    
   199  100  221 1    
   200  101  222 1    
   201  101  223 1    
   202  101  224 1    
   203  102  103 2    
   204  102  104 am   BACKBONE|DICT|INTERRES
   205  104  105 1    
   206  104  225 1    
   207  105  106 1    
   208  105  107 1    
   209  105  226 1    
   210  106  227 1    
   211  106  228 1    
   212  106  229 1    
   213  107  108 2    
   214  107  109 am   BACKBONE|DICT|INTERRES
   215  109  110 1    
   216  109  230 1    
   217  110  111 1    
   218  110  112 1    
   219  110  231 1    
   220  111  232 1    
   221  111  233 1    
   222  111  234 1    
   223  112  113 2    
   224  112  114 am   BACKBONE|DICT|INTERRES
   225  114  115 1    
   226  114  235 1    
   227  115  116 1    
   228  115  117 1    
   229  115  236 1    
   230  116  237 1    
   231  116  238 1    
   232  116  239 1    
   233  117  118 2    
   234  117  119 am   BACKBONE|DICT|INTERRES
   235  119  120 1    
   236  119  240 1    
   237  120  121 1    
   238  120  124 1    
   239  120  241 1    
   240  121  122 am   BACKBONE|DICT|INTERRES
   241  121  123 2    
   242  122  242 1    
   243  122  243 1    
   244  124  125 1    
   245  124  244 1    
   246  124  245 1    
   247  125  126 1    
   248  126  246 1    
   249  126  247 1    
@<TRIPOS>SUBSTRUCTURE
     1 UNK         1 GROUP             0       ****    0 ROOT    
