@<TRIPOS>MOLECULE
3R540
247   249    1
SMALL
USER_CHARGES


@<TRIPOS>ATOM
      1 CA          6.3754  -13.9157  -47.1454 C.3       0 UNK        -0.1800 
      2 C           4.9396  -14.0884  -46.6736 C.2       0 UNK         0.5000 
      3 O           4.6915  -14.1626  -45.4702 O.2       0 UNK        -0.5000 
      4 N           3.9850  -14.1357  -47.6104 N.am      1 UNK        -0.5000 
      5 CA          2.5475  -14.3251  -47.3764 C.3       1 UNK         0.1400 
      6 C6          1.8476  -14.9528  -48.6104 C.3       23 UNK        -0.0398 
      7 S7          2.0129  -13.9817  -50.1563 S.3       23 UNK        -0.2404 
      8 C8          2.6594  -15.2105  -51.3379 C.3       23 UNK        -0.0205 
      9 C9          1.7343  -16.4105  -51.4859 C.ar      23 UNK        -0.0193 
     10 C10         0.4644  -16.2642  -52.0535 C.ar      23 UNK        -0.1150 
     11 C11        -0.4045  -17.3566  -52.1431 C.ar      23 UNK        -0.0193 
     12 C12         0.0143  -18.6049  -51.6750 C.ar      23 UNK        -0.1150 
     13 C13         1.2863  -18.7667  -51.1183 C.ar      23 UNK        -0.0193 
     14 C14         2.1436  -17.6675  -51.0338 C.ar      23 UNK        -0.1150 
     15 C15         1.7329  -20.1210  -50.5872 C.3       23 UNK        -0.0205 
     16 S16         1.8495  -20.1279  -48.7691 S.3       23 UNK        -0.2404 
     17 C17         0.1056  -19.9079  -48.2792 C.3       23 UNK        -0.0398 
     18 CA         -0.4438  -21.1482  -47.5408 C.3       11 UNK         0.1400 
     19 N           0.0858  -21.2772  -46.1806 N.am      11 UNK        -0.5000 
     20 C          -0.1099  -22.3406  -45.3881 C.2       10 UNK         0.5000 
     21 O          -0.7321  -23.3449  -45.7341 O.2       10 UNK        -0.5000 
     22 CA          0.4326  -22.2479  -43.9515 C.3       10 UNK         0.1400 
     23 CB          1.9531  -22.4625  -43.9234 C.3       10 UNK        -0.1800 
     24 N           0.0961  -20.9784  -43.3056 N.am      10 UNK        -0.5000 
     25 C          -1.1536  -20.5646  -43.0492 C.2       9 UNK         0.5000 
     26 O          -2.1589  -21.2316  -43.2945 O.2       9 UNK        -0.5000 
     27 CA         -1.3129  -19.1479  -42.4675 C.3       9 UNK         0.1400 
     28 CB         -1.0209  -19.1328  -40.9598 C.3       9 UNK        -0.1800 
     29 N          -0.4654  -18.1639  -43.1391 N.am      9 UNK        -0.5000 
     30 C          -0.5486  -17.8402  -44.4372 C.2       8 UNK         0.5000 
     31 O          -1.3729  -18.3150  -45.2170 O.2       8 UNK        -0.5000 
     32 CA          0.5108  -16.8590  -44.9633 C.3       8 UNK         0.1400 
     33 CB          0.1663  -15.4198  -44.5501 C.3       8 UNK        -0.1800 
     34 N           1.8520  -17.2091  -44.4926 N.am      8 UNK        -0.5000 
     35 C           2.4953  -18.3402  -44.8197 C.2       7 UNK         0.5000 
     36 O           2.0345  -19.1921  -45.5763 O.2       7 UNK        -0.5000 
     37 CA          3.8569  -18.5861  -44.1467 C.3       7 UNK         0.1400 
     38 CB          4.9721  -17.8334  -44.8866 C.3       7 UNK        -0.1800 
     39 N           3.8574  -18.1974  -42.7366 N.am      7 UNK        -0.5000 
     40 C           3.1308  -18.8002  -41.7841 C.2       6 UNK         0.5000 
     41 O           2.4302  -19.7922  -41.9822 O.2       6 UNK        -0.5000 
     42 CA          3.1446  -18.1442  -40.3904 C.3       6 UNK         0.1400 
     43 CB          4.3296  -18.6595  -39.5604 C.3       6 UNK        -0.1800 
     44 N           3.1880  -16.6792  -40.4487 N.am      6 UNK        -0.5000 
     45 C           2.2354  -15.9179  -41.0031 C.2       5 UNK         0.5000 
     46 O           1.2175  -16.3773  -41.5257 O.2       5 UNK        -0.5000 
     47 CA          2.5073  -14.4024  -41.0413 C.3       5 UNK         0.1400 
     48 CB          3.3739  -14.0502  -42.2608 C.3       5 UNK        -0.1800 
     49 N           1.2815  -13.6077  -41.1023 N.am      5 UNK        -0.5000 
     50 C           0.3482  -13.5416  -40.1431 C.2       4 UNK         0.5000 
     51 O           0.4390  -14.1254  -39.0618 O.2       4 UNK        -0.5000 
     52 CA         -0.8809  -12.6538  -40.4180 C.3       4 UNK         0.1400 
     53 CB         -0.8794  -11.4309  -39.4863 C.3       4 UNK        -0.1800 
     54 N          -0.9342  -12.1764  -41.8009 N.am      4 UNK        -0.5000 
     55 C          -1.6136  -12.7484  -42.7987 C.2       3 UNK         0.5000 
     56 O          -2.2770  -13.7773  -42.6706 O.2       3 UNK        -0.5000 
     57 CA         -1.5611  -12.0459  -44.1709 C.3       3 UNK         0.1400 
     58 CB         -2.3045  -10.6970  -44.1294 C.3       3 UNK        -0.1800 
     59 N          -0.2224  -11.8849  -44.7572 N.am      3 UNK        -0.5000 
     60 C           0.8386  -11.2006  -44.3085 C.2       2 UNK         0.5000 
     61 O           0.8776  -10.6455  -43.2090 O.2       2 UNK        -0.5000 
     62 CA          2.0555  -11.1117  -45.2596 C.3       2 UNK         0.1400 
     63 CB          3.2892  -10.4831  -44.5868 C.3       2 UNK        -0.1800 
     64 N           2.4553  -12.3934  -45.8472 N.am      2 UNK        -0.5000 
     65 C           1.8460  -13.0474  -46.8439 C.2       1 UNK         0.5000 
     66 O           0.7700  -12.6795  -47.3177 O.2       1 UNK        -0.5000 
     67 C          -1.9835  -21.1579  -47.5691 C.2       11 UNK         0.5000 
     68 O          -2.5533  -21.8109  -48.4420 O.2       11 UNK        -0.5000 
     69 N          -2.6310  -20.4719  -46.6171 N.am      12 UNK        -0.5000 
     70 CA         -4.0856  -20.4583  -46.4598 C.3       12 UNK         0.1400 
     71 CB         -4.4901  -19.4093  -45.4135 C.3       12 UNK        -0.1800 
     72 C          -4.6511  -21.8438  -46.1008 C.2       12 UNK         0.5000 
     73 O          -5.6294  -22.2715  -46.7135 O.2       12 UNK        -0.5000 
     74 N          -4.0006  -22.5384  -45.1560 N.am      13 UNK        -0.5000 
     75 CA         -4.3459  -23.8983  -44.7333 C.3       13 UNK         0.1400 
     76 CB         -3.5091  -24.2803  -43.5030 C.3       13 UNK        -0.1800 
     77 C          -4.1741  -24.9411  -45.8544 C.2       13 UNK         0.5000 
     78 O          -5.0118  -25.8333  -45.9900 O.2       13 UNK        -0.5000 
     79 N          -3.1114  -24.7903  -46.6556 N.am      14 UNK        -0.5000 
     80 CA         -2.8204  -25.6189  -47.8273 C.3       14 UNK         0.1400 
     81 CB         -1.3211  -25.5014  -48.1463 C.3       14 UNK        -0.1800 
     82 C          -3.6548  -25.2472  -49.0704 C.2       14 UNK         0.5000 
     83 O          -3.5729  -25.9541  -50.0761 O.2       14 UNK        -0.5000 
     84 N          -4.3880  -24.1254  -49.0138 N.am      15 UNK        -0.5000 
     85 CA         -5.1422  -23.4976  -50.1032 C.3       15 UNK         0.1400 
     86 CB         -6.3722  -24.3484  -50.4792 C.3       15 UNK        -0.1800 
     87 C          -4.2489  -23.1684  -51.3168 C.2       15 UNK         0.5000 
     88 O          -4.6335  -23.4326  -52.4568 O.2       15 UNK        -0.5000 
     89 N          -3.0627  -22.6080  -51.0419 N.am      16 UNK        -0.5000 
     90 CA         -1.9742  -22.3139  -51.9824 C.3       16 UNK         0.1400 
     91 CB         -2.3913  -21.2319  -53.0003 C.3       16 UNK        -0.1800 
     92 C          -1.3959  -23.5824  -52.6462 C.2       16 UNK         0.5000 
     93 O          -1.0047  -23.5449  -53.8122 O.2       16 UNK        -0.5000 
     94 N          -1.3619  -24.6818  -51.8775 N.am      17 UNK        -0.5000 
     95 CA         -1.0173  -26.0464  -52.2905 C.3       17 UNK         0.1400 
     96 CB          0.4509  -26.1455  -52.7560 C.3       17 UNK        -0.1800 
     97 C          -2.0341  -26.5884  -53.3148 C.2       17 UNK         0.5000 
     98 O          -1.6537  -27.0360  -54.3982 O.2       17 UNK        -0.5000 
     99 N          -3.3180  -26.5133  -52.9324 N.am      18 UNK        -0.5000 
    100 CA        -4.5045  -26.8913  -53.7057 C.3       18 UNK         0.1400 
    101 CB        -4.5624  -28.4209  -53.9001 C.3       18 UNK        -0.1800 
    102 C         -4.6327  -26.1024  -55.0270 C.2       18 UNK         0.5000 
    103 O         -4.8338  -26.6928  -56.0903 O.2       18 UNK        -0.5000 
    104 N         -4.5197  -24.7734  -54.9258 N.am      19 UNK        -0.5000 
    105 CA        -4.6393  -23.8189  -56.0279 C.3       19 UNK         0.1400 
    106 CB        -3.2442  -23.3071  -56.4266 C.3       19 UNK        -0.1800 
    107 C         -5.6116  -22.6873  -55.6470 C.2       19 UNK         0.5000 
    108 O         -5.3791  -21.5260  -55.9888 O.2       19 UNK        -0.5000 
    109 N         -6.6835  -23.0549  -54.9264 N.am      20 UNK        -0.5000 
    110 CA        -7.8267  -22.2241  -54.5263 C.3       20 UNK         0.1400 
    111 CB        -8.6972  -21.9045  -55.7593 C.3       20 UNK        -0.1800 
    112 C         -7.4450  -20.9562  -53.7321 C.2       20 UNK         0.5000 
    113 O         -8.1025  -19.9232  -53.8727 O.2       20 UNK        -0.5000 
    114 N         -6.3655  -21.0432  -52.9394 N.am      21 UNK        -0.5000 
    115 CA        -5.7719  -19.9561  -52.1474 C.3       21 UNK         0.1400 
    116 CB        -6.6960  -19.5738  -50.9729 C.3       21 UNK        -0.1800 
    117 C         -5.3431  -18.7419  -53.0042 C.2       21 UNK         0.5000 
    118 O         -5.4194  -17.6040  -52.5394 O.2       21 UNK        -0.5000 
    119 N         -4.9204  -19.0168  -54.2467 N.am      22 UNK        -0.5000 
    120 CA        -4.6137  -18.0471  -55.3125 C.3       22 UNK         0.1400 
    121 C         -5.8697  -17.3573  -55.9329 C.2       22 UNK         0.5000 
    122 N         -7.0944  -17.7677  -55.6226 N.am      22 UNK        -0.7600 
    123 O         -5.7356  -16.4439  -56.7431 O.2       22 UNK        -0.5000 
    124 C124       -3.5064  -17.0140  -54.9478 C.3       23 UNK        -0.0398 
    125 S125       -1.9192  -17.7584  -54.4311 S.3       23 UNK        -0.2404 
    126 C126       -1.8055  -17.1785  -52.7096 C.3       23 UNK        -0.0205 
    127 H127        6.4411  -13.8602  -48.2322 H         1 UNK         0.0600 
    128 H128        6.9824  -14.7565  -46.8097 H         1 UNK         0.0600 
    129 H129        6.7984  -13.0008  -46.7307 H         1 UNK         0.0600 
    130 H130        4.2429  -14.0202  -48.5804 H         1 UNK         0.3000 
    131 H131        2.4544  -15.0599  -46.5749 H         1 UNK         0.0600 
    132 H132        2.2600  -15.9497  -48.7671 H         1 UNK         0.0800 
    133 H133        0.7858  -15.1120  -48.4144 H         1 UNK         0.0800 
    134 H134        2.7844  -14.7343  -52.3113 H         1 UNK         0.0800 
    135 H135        3.6553  -15.5223  -51.0191 H         1 UNK         0.0800 
    136 H136        0.1458  -15.2916  -52.4017 H         1 UNK         0.1150 
    137 H137       -0.6559  -19.4479  -51.7342 H         1 UNK         0.1150 
    138 H138        3.1221  -17.7903  -50.5908 H         1 UNK         0.1150 
    139 H139        1.0579  -20.9137  -50.9117 H         1 UNK         0.0800 
    140 H140        2.7114  -20.3631  -51.0043 H         1 UNK         0.0800 
    141 H141       -0.4873  -19.6966  -49.1694 H         1 UNK         0.0800 
    142 H142        0.0276  -19.0187  -47.6517 H         1 UNK         0.0800 
    143 H143       -0.1258  -22.0356  -48.0927 H         1 UNK         0.0600 
    144 H144        0.6523  -20.5031  -45.8429 H         1 UNK         0.3000 
    145 H145       -0.0317  -23.0476  -43.3709 H         1 UNK         0.0600 
    146 H146        2.2220  -23.4121  -44.3875 H         1 UNK         0.0600 
    147 H147        2.4827  -21.6737  -44.4580 H         1 UNK         0.0600 
    148 H148        2.3287  -22.4825  -42.9002 H         1 UNK         0.0600 
    149 H149        0.8754  -20.3890  -43.0283 H         1 UNK         0.3000 
    150 H150       -2.3510  -18.8435  -42.6150 H         1 UNK         0.0600 
    151 H151       -1.1851  -18.1415  -40.5368 H         1 UNK         0.0600 
    152 H152        0.0082  -19.4204  -40.7447 H         1 UNK         0.0600 
    153 H153       -1.6738  -19.8270  -40.4295 H         1 UNK         0.0600 
    154 H154        0.2252  -17.6857  -42.5669 H         1 UNK         0.3000 
    155 H155        0.5179  -16.9119  -46.0541 H         1 UNK         0.0600 
    156 H156       -0.6974  -15.0562  -45.1076 H         1 UNK         0.0600 
    157 H157        0.9903  -14.7355  -44.7336 H         1 UNK         0.0600 
    158 H158       -0.0817  -15.3464  -43.4918 H         1 UNK         0.0600 
    159 H159        2.2661  -16.6004  -43.8037 H         1 UNK         0.3000 
    160 H160        4.0695  -19.6556  -44.2055 H         1 UNK         0.0600 
    161 H161        4.9846  -18.0944  -45.9458 H         1 UNK         0.0600 
    162 H162        5.9524  -18.0812  -44.4793 H         1 UNK         0.0600 
    163 H163        4.8433  -16.7536  -44.8158 H         1 UNK         0.0600 
    164 H164        4.4091  -17.3913  -42.4839 H         1 UNK         0.3000 
    165 H165        2.2214  -18.4307  -39.8822 H         1 UNK         0.0600 
    166 H166        4.3002  -18.2659  -38.5442 H         1 UNK         0.0600 
    167 H167        4.3096  -19.7477  -39.4865 H         1 UNK         0.0600 
    168 H168        5.2858  -18.3780  -40.0030 H         1 UNK         0.0600 
    169 H169        4.0012  -16.2360  -40.0457 H         1 UNK         0.3000 
    170 H170        3.0453  -14.1245  -40.1327 H         1 UNK         0.0600 
    171 H171        3.6374  -12.9929  -42.2614 H         1 UNK         0.0600 
    172 H172        4.3086  -14.6123  -42.2614 H         1 UNK         0.0600 
    173 H173        2.8621  -14.2669  -43.1988 H         1 UNK         0.0600 
    174 H174        1.1108  -13.0991  -41.9559 H         1 UNK         0.3000 
    175 H175       -1.7693  -13.2490  -40.1974 H         1 UNK         0.0600 
    176 H176       -0.0051  -10.8002  -39.6527 H         1 UNK         0.0600 
    177 H177       -1.7684  -10.8187  -39.6394 H         1 UNK         0.0600 
    178 H178       -0.8722  -11.7344  -38.4386 H         1 UNK         0.0600 
    179 H179       -0.3602  -11.3689  -42.0338 H         1 UNK         0.3000 
    180 H180       -2.1042  -12.6893  -44.8651 H         1 UNK         0.0600 
    181 H181       -2.3799  -10.2600  -45.1251 H         1 UNK         0.0600 
    182 H182       -1.8051   -9.9733  -43.4846 H         1 UNK         0.0600 
    183 H183       -3.3204  -10.8227  -43.7527 H         1 UNK         0.0600 
    184 H184       -0.1130  -12.2907  -45.6831 H         1 UNK         0.3000 
    185 H185        1.7579  -10.4486  -46.0744 H         1 UNK         0.0600 
    186 H186        3.6452  -11.0888  -43.7534 H         1 UNK         0.0600 
    187 H187        4.1109  -10.3731  -45.2949 H         1 UNK         0.0600 
    188 H188        3.0642   -9.4884  -44.1996 H         1 UNK         0.0600 
    189 H189        3.3135  -12.8047  -45.4911 H         1 UNK         0.3000 
    190 H190       -2.0976  -19.9020  -45.9652 H         1 UNK         0.3000 
    191 H191       -4.5201  -20.1621  -47.4171 H         1 UNK         0.0600 
    192 H192       -4.0567  -19.6240  -44.4367 H         1 UNK         0.0600 
    193 H193       -5.5735  -19.3753  -45.2925 H         1 UNK         0.0600 
    194 H194       -4.1648  -18.4122  -45.7105 H         1 UNK         0.0600 
    195 H195       -3.2218  -22.0981  -44.6728 H         1 UNK         0.3000 
    196 H196       -5.3979  -23.8980  -44.4410 H         1 UNK         0.0600 
    197 H197       -3.7569  -25.2845  -43.1569 H         1 UNK         0.0600 
    198 H198       -3.6926  -23.5959  -42.6745 H         1 UNK         0.0600 
    199 H199       -2.4408  -24.2609  -43.7209 H         1 UNK         0.0600 
    200 H200       -2.4299  -24.0709  -46.4298 H         1 UNK         0.3000 
    201 H201       -3.0386  -26.6610  -47.5858 H         1 UNK         0.0600 
    202 H202       -0.7132  -25.7877  -47.2878 H         1 UNK         0.0600 
    203 H203       -1.0478  -24.4821  -48.4224 H         1 UNK         0.0600 
    204 H204       -1.0394  -26.1560  -48.9714 H         1 UNK         0.0600 
    205 H205       -4.3648  -23.5991  -48.1498 H         1 UNK         0.3000 
    206 H206       -5.5021  -22.5425  -49.7184 H         1 UNK         0.0600 
    207 H207       -6.9967  -23.8321  -51.2093 H         1 UNK         0.0600 
    208 H208       -6.0866  -25.3074  -50.9120 H         1 UNK         0.0600 
    209 H209       -6.9928  -24.5471  -49.6055 H         1 UNK         0.0600 
    210 H210       -2.8640  -22.3949  -50.0633 H         1 UNK         0.3000 
    211 H211       -1.1631  -21.9009  -51.3822 H         1 UNK         0.0600 
    212 H212       -3.2214  -21.5536  -53.6275 H         1 UNK         0.0600 
    213 H213       -1.5651  -20.9726  -53.6634 H         1 UNK         0.0600 
    214 H214       -2.6880  -20.3142  -52.4963 H         1 UNK         0.0600 
    215 H215       -1.7513  -24.6040  -50.9496 H         1 UNK         0.3000 
    216 H216       -1.1168  -26.6724  -51.4028 H         1 UNK         0.0600 
    217 H217        0.7288  -27.1840  -52.9386 H         1 UNK         0.0600 
    218 H218        1.1310  -25.7556  -51.9987 H         1 UNK         0.0600 
    219 H219        0.6277  -25.5963  -53.6809 H         1 UNK         0.0600 
    220 H220       -3.5043  -26.1556  -51.9989 H         1 UNK         0.3000 
    221 H221       -5.3647  -26.6068  -53.0981 H         1 UNK         0.0600 
    222 H222       -3.7480  -28.7824  -54.5286 H         1 UNK         0.0600 
    223 H223       -4.5044  -28.9412  -52.9441 H         1 UNK         0.0600 
    224 H224       -5.4981  -28.7187  -54.3745 H         1 UNK         0.0600 
    225 H225       -4.4005  -24.3596  -54.0018 H         1 UNK         0.3000 
    226 H226       -5.0781  -24.3076  -56.8998 H         1 UNK         0.0600 
    227 H227       -2.5729  -24.1335  -56.6607 H         1 UNK         0.0600 
    228 H228       -3.2979  -22.6700  -57.3099 H         1 UNK         0.0600 
    229 H229       -2.7875  -22.7231  -55.6290 H         1 UNK         0.0600 
    230 H230       -6.7429  -24.0276  -54.6611 H         1 UNK         0.3000 
    231 H231       -8.4251  -22.8329  -53.8473 H         1 UNK         0.0600 
    232 H232       -8.1764  -21.2514  -56.4608 H         1 UNK         0.0600 
    233 H233       -8.9762  -22.8137  -56.2918 H         1 UNK         0.0600 
    234 H234       -9.6224  -21.4044  -55.4704 H         1 UNK         0.0600 
    235 H235       -5.8629  -21.9253  -52.9291 H         1 UNK         0.3000 
    236 H236       -4.8565  -20.3508  -51.7111 H         1 UNK         0.0600 
    237 H237       -7.6160  -19.1016  -51.3186 H         1 UNK         0.0600 
    238 H238       -6.9692  -20.4495  -50.3843 H         1 UNK         0.0600 
    239 H239       -6.2024  -18.8731  -50.2986 H         1 UNK         0.0600 
    240 H240       -4.9483  -19.9805  -54.5593 H         1 UNK         0.3000 
    241 H241       -4.2176  -18.6559  -56.1259 H         1 UNK         0.0600 
    242 H242       -7.8848  -17.3105  -56.0480 H         1 UNK         0.3800 
    243 H243       -7.2550  -18.5213  -54.9622 H         1 UNK         0.3800 
    244 H244       -3.2804  -16.3908  -55.8144 H         1 UNK         0.0800 
    245 H245       -3.8657  -16.3243  -54.1839 H         1 UNK         0.0800 
    246 H246       -2.5256  -17.7214  -52.0961 H         1 UNK         0.0800 
    247 H247       -2.0911  -16.1267  -52.6586 H         1 UNK         0.0800 
@<TRIPOS>BOND
     1    1    2 1    
     2    1  127 1    
     3    1  128 1    
     4    1  129 1    
     5    2    3 2    
     6    2    4 am   BACKBONE|DICT|INTERRES
     7    4    5 1    
     8    4  130 1    
     9    5    6 1    
    10    5   65 1    
    11    5  131 1    
    12    6    7 1    
    13    6  132 1    
    14    6  133 1    
    15    7    8 1    
    16    8    9 1    
    17    8  134 1    
    18    8  135 1    
    19    9   10 ar   
    20    9   14 ar   
    21   10   11 ar   
    22   10  136 1    
    23   11   12 ar   
    24   11  126 1    
    25   12   13 ar   
    26   12  137 1    
    27   13   14 ar   
    28   13   15 1    
    29   14  138 1    
    30   15   16 1    
    31   15  139 1    
    32   15  140 1    
    33   16   17 1    
    34   17   18 1    
    35   17  141 1    
    36   17  142 1    
    37   18   19 1    
    38   18   67 1    
    39   18  143 1    
    40   19   20 am   BACKBONE|DICT|INTERRES
    41   19  144 1    
    42   20   21 2    
    43   20   22 1    
    44   22   23 1    
    45   22   24 1    
    46   22  145 1    
    47   23  146 1    
    48   23  147 1    
    49   23  148 1    
    50   24   25 am   BACKBONE|DICT|INTERRES
    51   24  149 1    
    52   25   26 2    
    53   25   27 1    
    54   27   28 1    
    55   27   29 1    
    56   27  150 1    
    57   28  151 1    
    58   28  152 1    
    59   28  153 1    
    60   29   30 am   BACKBONE|DICT|INTERRES
    61   29  154 1    
    62   30   31 2    
    63   30   32 1    
    64   32   33 1    
    65   32   34 1    
    66   32  155 1    
    67   33  156 1    
    68   33  157 1    
    69   33  158 1    
    70   34   35 am   BACKBONE|DICT|INTERRES
    71   34  159 1    
    72   35   36 2    
    73   35   37 1    
    74   37   38 1    
    75   37   39 1    
    76   37  160 1    
    77   38  161 1    
    78   38  162 1    
    79   38  163 1    
    80   39   40 am   BACKBONE|DICT|INTERRES
    81   39  164 1    
    82   40   41 2    
    83   40   42 1    
    84   42   43 1    
    85   42   44 1    
    86   42  165 1    
    87   43  166 1    
    88   43  167 1    
    89   43  168 1    
    90   44   45 am   BACKBONE|DICT|INTERRES
    91   44  169 1    
    92   45   46 2    
    93   45   47 1    
    94   47   48 1    
    95   47   49 1    
    96   47  170 1    
    97   48  171 1    
    98   48  172 1    
    99   48  173 1    
   100   49   50 am   BACKBONE|DICT|INTERRES
   101   49  174 1    
   102   50   51 2    
   103   50   52 1    
   104   52   53 1    
   105   52   54 1    
   106   52  175 1    
   107   53  176 1    
   108   53  177 1    
   109   53  178 1    
   110   54   55 am   BACKBONE|DICT|INTERRES
   111   54  179 1    
   112   55   56 2    
   113   55   57 1    
   114   57   58 1    
   115   57   59 1    
   116   57  180 1    
   117   58  181 1    
   118   58  182 1    
   119   58  183 1    
   120   59   60 am   BACKBONE|DICT|INTERRES
   121   59  184 1    
   122   60   61 2    
   123   60   62 1    
   124   62   63 1    
   125   62   64 1    
   126   62  185 1    
   127   63  186 1    
   128   63  187 1    
   129   63  188 1    
   130   64   65 am   BACKBONE|DICT|INTERRES
   131   64  189 1    
   132   65   66 2    
   133   67   68 2    
   134   67   69 am   BACKBONE|DICT|INTERRES
   135   69   70 1    
   136   69  190 1    
   137   70   71 1    
   138   70   72 1    
   139   70  191 1    
   140   71  192 1    
   141   71  193 1    
   142   71  194 1    
   143   72   73 2    
   144   72   74 am   BACKBONE|DICT|INTERRES
   145   74   75 1    
   146   74  195 1    
   147   75   76 1    
   148   75   77 1    
   149   75  196 1    
   150   76  197 1    
   151   76  198 1    
   152   76  199 1    
   153   77   78 2    
   154   77   79 am   BACKBONE|DICT|INTERRES
   155   79   80 1    
   156   79  200 1    
   157   80   81 1    
   158   80   82 1    
   159   80  201 1    
   160   81  202 1    
   161   81  203 1    
   162   81  204 1    
   163   82   83 2    
   164   82   84 am   BACKBONE|DICT|INTERRES
   165   84   85 1    
   166   84  205 1    
   167   85   86 1    
   168   85   87 1    
   169   85  206 1    
   170   86  207 1    
   171   86  208 1    
   172   86  209 1    
   173   87   88 2    
   174   87   89 am   BACKBONE|DICT|INTERRES
   175   89   90 1    
   176   89  210 1    
   177   90   91 1    
   178   90   92 1    
   179   90  211 1    
   180   91  212 1    
   181   91  213 1    
   182   91  214 1    
   183   92   93 2    
   184   92   94 am   BACKBONE|DICT|INTERRES
   185   94   95 1    
   186   94  215 1    
   187   95   96 1    
   188   95   97 1    
   189   95  216 1    
   190   96  217 1    
   191   96  218 1    
   192   96  219 1    
   193   97   98 2    
   194   97   99 am   BACKBONE|DICT|INTERRES
   195   99  100 1    
   196   99  220 1    
   197  100  101 1    
   198  100  102 1    
   199  100  221 1    
   200  101  222 1    
   201  101  223 1    
   202  101  224 1    
   203  102  103 2    
   204  102  104 am   BACKBONE|DICT|INTERRES
   205  104  105 1    
   206  104  225 1    
   207  105  106 1    
   208  105  107 1    
   209  105  226 1    
   210  106  227 1    
   211  106  228 1    
   212  106  229 1    
   213  107  108 2    
   214  107  109 am   BACKBONE|DICT|INTERRES
   215  109  110 1    
   216  109  230 1    
   217  110  111 1    
   218  110  112 1    
   219  110  231 1    
   220  111  232 1    
   221  111  233 1    
   222  111  234 1    
   223  112  113 2    
   224  112  114 am   BACKBONE|DICT|INTERRES
   225  114  115 1    
   226  114  235 1    
   227  115  116 1    
   228  115  117 1    
   229  115  236 1    
   230  116  237 1    
   231  116  238 1    
   232  116  239 1    
   233  117  118 2    
   234  117  119 am   BACKBONE|DICT|INTERRES
   235  119  120 1    
   236  119  240 1    
   237  120  121 1    
   238  120  124 1    
   239  120  241 1    
   240  121  122 am   BACKBONE|DICT|INTERRES
   241  121  123 2    
   242  122  242 1    
   243  122  243 1    
   244  124  125 1    
   245  124  244 1    
   246  124  245 1    
   247  125  126 1    
   248  126  246 1    
   249  126  247 1    
@<TRIPOS>SUBSTRUCTURE
     1 UNK         1 GROUP             0       ****    0 ROOT    
