@<TRIPOS>MOLECULE
3R540
247   249    1
SMALL
USER_CHARGES


@<TRIPOS>ATOM
      1 CA          0.1933   -8.6864  -49.3113 C.3       0 UNK        -0.1800 
      2 C           0.6457   -9.8176  -50.2242 C.2       0 UNK         0.5000 
      3 O           1.3192   -9.5662  -51.2242 O.2       0 UNK        -0.5000 
      4 N           0.2715  -11.0584  -49.8891 N.am      1 UNK        -0.5000 
      5 CA          0.6766  -12.2753  -50.5982 C.3       1 UNK         0.1400 
      6 C6         -0.2062  -13.4803  -50.1819 C.3       23 UNK        -0.0398 
      7 S7         -0.1336  -14.8396  -51.3983 S.3       23 UNK        -0.2404 
      8 C8         -1.8887  -15.2734  -51.5892 C.3       23 UNK        -0.0205 
      9 C9         -2.3946  -16.0961  -50.4150 C.ar      23 UNK        -0.0193 
     10 C10        -3.2403  -15.5330  -49.4547 C.ar      23 UNK        -0.1150 
     11 C11        -3.7361  -16.3083  -48.3995 C.ar      23 UNK        -0.0193 
     12 C12        -3.3611  -17.6518  -48.3017 C.ar      23 UNK        -0.1150 
     13 C13        -2.5049  -18.2202  -49.2495 C.ar      23 UNK        -0.0193 
     14 C14        -2.0291  -17.4388  -50.3039 C.ar      23 UNK        -0.1150 
     15 C15        -2.1033  -19.6814  -49.1584 C.3       23 UNK        -0.0205 
     16 S16        -0.5952  -19.9063  -48.1678 S.3       23 UNK        -0.2404 
     17 C17        -1.2921  -20.2457  -46.5196 C.3       23 UNK        -0.0398 
     18 CA         -1.3327  -21.7630  -46.2246 C.3       11 UNK         0.1400 
     19 N          -1.3312  -22.0427  -44.7893 N.am      11 UNK        -0.5000 
     20 C          -1.2388  -23.2582  -44.2332 C.2       10 UNK         0.5000 
     21 O          -1.1141  -24.2985  -44.8795 O.2       10 UNK        -0.5000 
     22 CA         -1.3793  -23.3190  -42.7043 C.3       10 UNK         0.1400 
     23 CB         -0.0573  -22.9534  -42.0114 C.3       10 UNK        -0.1800 
     24 N          -2.4478  -22.4282  -42.2484 N.am      10 UNK        -0.5000 
     25 C          -3.7542  -22.7085  -42.3627 C.2       9 UNK         0.5000 
     26 O          -4.1842  -23.7880  -42.7686 O.2       9 UNK        -0.5000 
     27 CA         -4.7488  -21.5944  -41.9822 C.3       9 UNK         0.1400 
     28 CB         -5.1265  -21.6957  -40.4969 C.3       9 UNK        -0.1800 
     29 N          -4.2389  -20.2497  -42.2563 N.am      9 UNK        -0.5000 
     30 C          -4.0686  -19.7334  -43.4818 C.2       8 UNK         0.5000 
     31 O          -4.3460  -20.3318  -44.5221 O.2       8 UNK        -0.5000 
     32 CA         -3.4150  -18.3378  -43.5550 C.3       8 UNK         0.1400 
     33 CB         -4.4680  -17.2261  -43.4546 C.3       8 UNK        -0.1800 
     34 N          -2.3884  -18.1131  -42.5315 N.am      8 UNK        -0.5000 
     35 C          -1.2693  -18.8368  -42.4141 C.2       7 UNK         0.5000 
     36 O          -1.0263  -19.8274  -43.1051 O.2       7 UNK        -0.5000 
     37 CA         -0.2709  -18.4184  -41.3210 C.3       7 UNK         0.1400 
     38 CB         -0.5055  -19.2411  -40.0449 C.3       7 UNK        -0.1800 
     39 N           1.1054  -18.6210  -41.7748 N.am      7 UNK        -0.5000 
     40 C           1.6795  -17.9131  -42.7552 C.2       6 UNK         0.5000 
     41 O           1.1510  -16.9326  -43.2861 O.2       6 UNK        -0.5000 
     42 CA          3.0492  -18.4149  -43.2434 C.3       6 UNK         0.1400 
     43 CB          2.8640  -19.5630  -44.2504 C.3       6 UNK        -0.1800 
     44 N           3.7767  -17.3281  -43.8935 N.am      6 UNK        -0.5000 
     45 C           4.6091  -16.4836  -43.2677 C.2       5 UNK         0.5000 
     46 O           4.9710  -16.6239  -42.0986 O.2       5 UNK        -0.5000 
     47 CA          5.1150  -15.2656  -44.0717 C.3       5 UNK         0.1400 
     48 CB          6.4736  -15.5726  -44.7196 C.3       5 UNK        -0.1800 
     49 N           4.1761  -14.8468  -45.1127 N.am      5 UNK        -0.5000 
     50 C           2.9655  -14.3198  -44.8825 C.2       4 UNK         0.5000 
     51 O           2.5994  -13.9337  -43.7715 O.2       4 UNK        -0.5000 
     52 CA          1.9909  -14.2168  -46.0775 C.3       4 UNK         0.1400 
     53 CB          1.6215  -12.7501  -46.3499 C.3       4 UNK        -0.1800 
     54 N           2.4535  -14.8464  -47.3252 N.am      4 UNK        -0.5000 
     55 C           2.6515  -16.1646  -47.4982 C.2       3 UNK         0.5000 
     56 O           2.5445  -16.9798  -46.5828 O.2       3 UNK        -0.5000 
     57 CA          3.0583  -16.6740  -48.8962 C.3       3 UNK         0.1400 
     58 CB          2.0579  -17.7194  -49.4072 C.3       3 UNK        -0.1800 
     59 N           3.1774  -15.6146  -49.8964 N.am      3 UNK        -0.5000 
     60 C           4.2820  -14.8927  -50.1295 C.2       2 UNK         0.5000 
     61 O           5.3426  -15.0505  -49.5247 O.2       2 UNK        -0.5000 
     62 CA          4.1702  -13.7885  -51.2025 C.3       2 UNK         0.1400 
     63 CB          4.6267  -14.3210  -52.5692 C.3       2 UNK        -0.1800 
     64 N           2.8124  -13.2488  -51.3294 N.am      2 UNK        -0.5000 
     65 C           2.1716  -12.5826  -50.3601 C.2       1 UNK         0.5000 
     66 O           2.6981  -12.2858  -49.2861 O.2       1 UNK        -0.5000 
     67 C          -2.4969  -22.4614  -46.9595 C.2       11 UNK         0.5000 
     68 O          -2.2989  -22.9468  -48.0720 O.2       11 UNK        -0.5000 
     69 N          -3.6659  -22.5576  -46.3098 N.am      12 UNK        -0.5000 
     70 CA         -4.8351  -23.2848  -46.8075 C.3       12 UNK         0.1400 
     71 CB         -6.0206  -23.0671  -45.8557 C.3       12 UNK        -0.1800 
     72 C          -4.5866  -24.7924  -47.0211 C.2       12 UNK         0.5000 
     73 O          -5.2086  -25.3844  -47.9028 O.2       12 UNK        -0.5000 
     74 N          -3.6821  -25.3828  -46.2284 N.am      13 UNK        -0.5000 
     75 CA         -3.2445  -26.7688  -46.3768 C.3       13 UNK         0.1400 
     76 CB         -2.8665  -27.3353  -44.9989 C.3       13 UNK        -0.1800 
     77 C          -2.0665  -26.8857  -47.3603 C.2       13 UNK         0.5000 
     78 O          -2.0527  -27.8049  -48.1798 O.2       13 UNK        -0.5000 
     79 N          -1.0949  -25.9679  -47.2534 N.am      14 UNK        -0.5000 
     80 CA          0.1398  -25.9701  -48.0409 C.3       14 UNK         0.1400 
     81 CB          1.1534  -25.0137  -47.3935 C.3       14 UNK        -0.1800 
     82 C          -0.0605  -25.6087  -49.5247 C.2       14 UNK         0.5000 
     83 O           0.6290  -26.1727  -50.3752 O.2       14 UNK        -0.5000 
     84 N          -0.9794  -24.6709  -49.8001 N.am      15 UNK        -0.5000 
     85 CA         -1.2876  -24.0798  -51.1064 C.3       15 UNK         0.1400 
     86 CB         -1.9836  -25.1051  -52.0243 C.3       15 UNK        -0.1800 
     87 C          -0.0637  -23.3977  -51.7552 C.2       15 UNK         0.5000 
     88 O           0.2237  -23.6124  -52.9350 O.2       15 UNK        -0.5000 
     89 N           0.6497  -22.5970  -50.9533 N.am      16 UNK        -0.5000 
     90 CA          1.7638  -21.7640  -51.3976 C.3       16 UNK         0.1400 
     91 CB          2.6519  -21.4355  -50.1878 C.3       16 UNK        -0.1800 
     92 C           1.2333  -20.4758  -52.0487 C.2       16 UNK         0.5000 
     93 O           0.2810  -19.8902  -51.5357 O.2       16 UNK        -0.5000 
     94 N           1.8576  -20.0528  -53.1564 N.am      17 UNK        -0.5000 
     95 CA          1.5836  -18.8505  -53.9643 C.3       17 UNK         0.1400 
     96 CB          1.7979  -17.5638  -53.1439 C.3       17 UNK        -0.1800 
     97 C           0.2156  -18.8199  -54.6834 C.2       17 UNK         0.5000 
     98 O           0.1516  -18.3543  -55.8222 O.2       17 UNK        -0.5000 
     99 N          -0.8393  -19.3188  -54.0354 N.am      18 UNK        -0.5000 
    100 CA        -2.1943  -19.4527  -54.5541 C.3       18 UNK         0.1400 
    101 CB        -3.0545  -18.2945  -54.0244 C.3       18 UNK        -0.1800 
    102 C         -2.7711  -20.8071  -54.1193 C.2       18 UNK         0.5000 
    103 O         -2.2945  -21.4040  -53.1500 O.2       18 UNK        -0.5000 
    104 N         -3.8029  -21.2642  -54.8389 N.am      19 UNK        -0.5000 
    105 CA        -4.5150  -22.5220  -54.6094 C.3       19 UNK         0.1400 
    106 CB        -5.3398  -22.8577  -55.8646 C.3       19 UNK        -0.1800 
    107 C         -5.3818  -22.4663  -53.3350 C.2       19 UNK         0.5000 
    108 O         -6.6006  -22.3028  -53.4196 O.2       19 UNK        -0.5000 
    109 N         -4.7159  -22.5566  -52.1769 N.am      20 UNK        -0.5000 
    110 CA        -5.2219  -22.5036  -50.7996 C.3       20 UNK         0.1400 
    111 CB        -6.2884  -23.5839  -50.5360 C.3       20 UNK        -0.1800 
    112 C         -5.7140  -21.1092  -50.3720 C.2       20 UNK         0.5000 
    113 O         -5.3253  -20.6414  -49.3023 O.2       20 UNK        -0.5000 
    114 N         -6.5348  -20.4674  -51.2146 N.am      21 UNK        -0.5000 
    115 CA        -7.0865  -19.1187  -51.0658 C.3       21 UNK         0.1400 
    116 CB        -5.9964  -18.0767  -51.4072 C.3       21 UNK        -0.1800 
    117 C         -7.7556  -18.9108  -49.6881 C.2       21 UNK         0.5000 
    118 O         -8.6979  -19.6335  -49.3578 O.2       21 UNK        -0.5000 
    119 N         -7.2510  -17.9453  -48.9159 N.am      22 UNK        -0.5000 
    120 CA        -7.6360  -17.6484  -47.5303 C.3       22 UNK         0.1400 
    121 C         -6.9549  -18.5470  -46.4558 C.2       22 UNK         0.5000 
    122 N         -6.0270  -19.4341  -46.7910 N.am      22 UNK        -0.7600 
    123 O         -7.2905  -18.4418  -45.2799 O.2       22 UNK        -0.5000 
    124 C124       -7.5048  -16.1290  -47.1942 C.3       23 UNK        -0.0398 
    125 S125       -6.2467  -15.1826  -48.1319 S.3       23 UNK        -0.2404 
    126 C126       -4.6725  -15.6901  -47.3693 C.3       23 UNK        -0.0205 
    127 H127       -0.4131   -7.9730  -49.8694 H         1 UNK         0.0600 
    128 H128        1.0592   -8.1596  -48.9103 H         1 UNK         0.0600 
    129 H129       -0.3990   -9.0537  -48.4728 H         1 UNK         0.0600 
    130 H130       -0.2573  -11.1978  -49.0406 H         1 UNK         0.3000 
    131 H131        0.5299  -12.0891  -51.6646 H         1 UNK         0.0600 
    132 H132        0.0687  -13.8656  -49.1982 H         1 UNK         0.0800 
    133 H133       -1.2441  -13.1572  -50.0927 H         1 UNK         0.0800 
    134 H134       -2.0025  -15.8546  -52.5044 H         1 UNK         0.0800 
    135 H135       -2.4873  -14.3718  -51.7274 H         1 UNK         0.0800 
    136 H136       -3.5299  -14.4948  -49.5354 H         1 UNK         0.1150 
    137 H137       -3.7338  -18.2567  -47.4891 H         1 UNK         0.1150 
    138 H138       -1.3698  -17.8768  -51.0405 H         1 UNK         0.1150 
    139 H139       -2.9162  -20.2674  -48.7361 H         1 UNK         0.0800 
    140 H140       -1.9375  -20.0844  -50.1583 H         1 UNK         0.0800 
    141 H141       -2.2739  -19.7848  -46.4062 H         1 UNK         0.0800 
    142 H142       -0.6417  -19.7428  -45.8025 H         1 UNK         0.0800 
    143 H143       -0.4084  -22.2003  -46.6049 H         1 UNK         0.0600 
    144 H144       -1.3740  -21.2339  -44.1722 H         1 UNK         0.3000 
    145 H145       -1.6317  -24.3453  -42.4287 H         1 UNK         0.0600 
    146 H146       -0.1528  -23.0092  -40.9270 H         1 UNK         0.0600 
    147 H147        0.7353  -23.6432  -42.3036 H         1 UNK         0.0600 
    148 H148        0.2770  -21.9481  -42.2671 H         1 UNK         0.0600 
    149 H149       -2.1724  -21.4995  -41.9635 H         1 UNK         0.3000 
    150 H150       -5.6534  -21.7427  -42.5762 H         1 UNK         0.0600 
    151 H151       -5.5330  -22.6808  -40.2640 H         1 UNK         0.0600 
    152 H152       -5.8873  -20.9611  -40.2325 H         1 UNK         0.0600 
    153 H153       -4.2636  -21.5349  -39.8492 H         1 UNK         0.0600 
    154 H154       -3.9796  -19.6881  -41.4589 H         1 UNK         0.3000 
    155 H155       -2.9306  -18.2555  -44.5300 H         1 UNK         0.0600 
    156 H156       -5.0003  -17.2572  -42.5033 H         1 UNK         0.0600 
    157 H157       -4.0138  -16.2403  -43.5557 H         1 UNK         0.0600 
    158 H158       -5.2072  -17.3184  -44.2480 H         1 UNK         0.0600 
    159 H159       -2.5278  -17.3209  -41.9208 H         1 UNK         0.3000 
    160 H160       -0.4114  -17.3600  -41.0916 H         1 UNK         0.0600 
    161 H161       -0.3695  -20.3090  -40.2211 H         1 UNK         0.0600 
    162 H162       -1.5185  -19.0974  -39.6668 H         1 UNK         0.0600 
    163 H163        0.1806  -18.9426  -39.2521 H         1 UNK         0.0600 
    164 H164        1.5820  -19.4330  -41.4116 H         1 UNK         0.3000 
    165 H165        3.6177  -18.7875  -42.3888 H         1 UNK         0.0600 
    166 H166        3.8238  -19.9186  -44.6252 H         1 UNK         0.0600 
    167 H167        2.3591  -20.4126  -43.7887 H         1 UNK         0.0600 
    168 H168        2.2626  -19.2555  -45.1072 H         1 UNK         0.0600 
    169 H169        3.4606  -17.1003  -44.8317 H         1 UNK         0.3000 
    170 H170        5.2459  -14.4361  -43.3737 H         1 UNK         0.0600 
    171 H171        7.2073  -15.8653  -43.9674 H         1 UNK         0.0600 
    172 H172        6.4003  -16.3871  -45.4416 H         1 UNK         0.0600 
    173 H173        6.8707  -14.6991  -45.2372 H         1 UNK         0.0600 
    174 H174        4.3991  -15.1164  -46.0591 H         1 UNK         0.3000 
    175 H175        1.0801  -14.7378  -45.7748 H         1 UNK         0.0600 
    176 H176        0.8845  -12.6666  -47.1479 H         1 UNK         0.0600 
    177 H177        2.4963  -12.1636  -46.6320 H         1 UNK         0.0600 
    178 H178        1.1888  -12.2832  -45.4642 H         1 UNK         0.0600 
    179 H179        2.6152  -14.2221  -48.1047 H         1 UNK         0.3000 
    180 H180        4.0245  -17.1701  -48.7827 H         1 UNK         0.0600 
    181 H181        1.0648  -17.2956  -49.5632 H         1 UNK         0.0600 
    182 H182        1.9572  -18.5394  -48.6966 H         1 UNK         0.0600 
    183 H183        2.3917  -18.1565  -50.3467 H         1 UNK         0.0600 
    184 H184        2.3482  -15.4145  -50.4376 H         1 UNK         0.3000 
    185 H185        4.8347  -12.9728  -50.9100 H         1 UNK         0.0600 
    186 H186        5.6433  -14.7130  -52.5159 H         1 UNK         0.0600 
    187 H187        3.9824  -15.1267  -52.9236 H         1 UNK         0.0600 
    188 H188        4.6232  -13.5320  -53.3215 H         1 UNK         0.0600 
    189 H189        2.3162  -13.4733  -52.1803 H         1 UNK         0.3000 
    190 H190       -3.7750  -22.0666  -45.4294 H         1 UNK         0.3000 
    191 H191       -5.0950  -22.8542  -47.7740 H         1 UNK         0.0600 
    192 H192       -5.8204  -23.4728  -44.8644 H         1 UNK         0.0600 
    193 H193       -6.9183  -23.5570  -46.2348 H         1 UNK         0.0600 
    194 H194       -6.2549  -22.0096  -45.7432 H         1 UNK         0.0600 
    195 H195       -3.1904  -24.8218  -45.5452 H         1 UNK         0.3000 
    196 H196       -4.0677  -27.3719  -46.7659 H         1 UNK         0.0600 
    197 H197       -2.5666  -28.3810  -45.0776 H         1 UNK         0.0600 
    198 H198       -3.7106  -27.2898  -44.3105 H         1 UNK         0.0600 
    199 H199       -2.0377  -26.7907  -44.5462 H         1 UNK         0.0600 
    200 H200       -1.1614  -25.2746  -46.5136 H         1 UNK         0.3000 
    201 H201        0.5582  -26.9781  -48.0010 H         1 UNK         0.0600 
    202 H202        1.3400  -25.2789  -46.3527 H         1 UNK         0.0600 
    203 H203        0.8051  -23.9819  -47.4198 H         1 UNK         0.0600 
    204 H204        2.1104  -25.0482  -47.9157 H         1 UNK         0.0600 
    205 H205       -1.4727  -24.2391  -49.0201 H         1 UNK         0.3000 
    206 H206       -2.0020  -23.2790  -50.9124 H         1 UNK         0.0600 
    207 H207       -2.2929  -24.6419  -52.9615 H         1 UNK         0.0600 
    208 H208       -1.3267  -25.9388  -52.2730 H         1 UNK         0.0600 
    209 H209       -2.8784  -25.5105  -51.5517 H         1 UNK         0.0600 
    210 H210        0.3149  -22.4313  -50.0157 H         1 UNK         0.3000 
    211 H211        2.3610  -22.3180  -52.1249 H         1 UNK         0.0600 
    212 H212        2.0967  -20.9049  -49.4138 H         1 UNK         0.0600 
    213 H213        3.4929  -20.8050  -50.4791 H         1 UNK         0.0600 
    214 H214        3.0619  -22.3421  -49.7425 H         1 UNK         0.0600 
    215 H215        2.6095  -20.6267  -53.5117 H         1 UNK         0.3000 
    216 H216        2.3389  -18.8570  -54.7518 H         1 UNK         0.0600 
    217 H217        1.6900  -16.6782  -53.7711 H         1 UNK         0.0600 
    218 H218        2.7963  -17.5331  -52.7081 H         1 UNK         0.0600 
    219 H219        1.0726  -17.4753  -52.3352 H         1 UNK         0.0600 
    220 H220       -0.6897  -19.7027  -53.1037 H         1 UNK         0.3000 
    221 H221       -2.1810  -19.4256  -55.6457 H         1 UNK         0.0600 
    222 H222       -3.1043  -18.2982  -52.9349 H         1 UNK         0.0600 
    223 H223       -2.6528  -17.3320  -54.3403 H         1 UNK         0.0600 
    224 H224       -4.0756  -18.3578  -54.4018 H         1 UNK         0.0600 
    225 H225       -4.1518  -20.6959  -55.5972 H         1 UNK         0.3000 
    226 H226       -3.7793  -23.3180  -54.4764 H         1 UNK         0.0600 
    227 H227       -4.6978  -22.9776  -56.7374 H         1 UNK         0.0600 
    228 H228       -5.8858  -23.7929  -55.7339 H         1 UNK         0.0600 
    229 H229       -6.0701  -22.0795  -56.0900 H         1 UNK         0.0600 
    230 H230       -3.7052  -22.5195  -52.2588 H         1 UNK         0.3000 
    231 H231       -4.3644  -22.7353  -50.1655 H         1 UNK         0.0600 
    232 H232       -6.6151  -23.5638  -49.4963 H         1 UNK         0.0600 
    233 H233       -5.8937  -24.5807  -50.7325 H         1 UNK         0.0600 
    234 H234       -7.1786  -23.4467  -51.1493 H         1 UNK         0.0600 
    235 H235       -6.8048  -20.9709  -52.0549 H         1 UNK         0.3000 
    236 H236       -7.8806  -19.0232  -51.8074 H         1 UNK         0.0600 
    237 H237       -5.6280  -18.2245  -52.4216 H         1 UNK         0.0600 
    238 H238       -6.3849  -17.0587  -51.3570 H         1 UNK         0.0600 
    239 H239       -5.1394  -18.1431  -50.7359 H         1 UNK         0.0600 
    240 H240       -6.4671  -17.4095  -49.2610 H         1 UNK         0.3000 
    241 H241       -8.6961  -17.8909  -47.4352 H         1 UNK         0.0600 
    242 H242       -5.5753  -19.9561  -46.0499 H         1 UNK         0.3800 
    243 H243       -5.7974  -19.6367  -47.7604 H         1 UNK         0.3800 
    244 H244       -8.4589  -15.6522  -47.4220 H         1 UNK         0.0800 
    245 H245       -7.3584  -15.9495  -46.1275 H         1 UNK         0.0800 
    246 H246       -4.1925  -14.8145  -46.9304 H         1 UNK         0.0800 
    247 H247       -4.8551  -16.3825  -46.5471 H         1 UNK         0.0800 
@<TRIPOS>BOND
     1    1    2 1    
     2    1  127 1    
     3    1  128 1    
     4    1  129 1    
     5    2    3 2    
     6    2    4 am   BACKBONE|DICT|INTERRES
     7    4    5 1    
     8    4  130 1    
     9    5    6 1    
    10    5   65 1    
    11    5  131 1    
    12    6    7 1    
    13    6  132 1    
    14    6  133 1    
    15    7    8 1    
    16    8    9 1    
    17    8  134 1    
    18    8  135 1    
    19    9   10 ar   
    20    9   14 ar   
    21   10   11 ar   
    22   10  136 1    
    23   11   12 ar   
    24   11  126 1    
    25   12   13 ar   
    26   12  137 1    
    27   13   14 ar   
    28   13   15 1    
    29   14  138 1    
    30   15   16 1    
    31   15  139 1    
    32   15  140 1    
    33   16   17 1    
    34   17   18 1    
    35   17  141 1    
    36   17  142 1    
    37   18   19 1    
    38   18   67 1    
    39   18  143 1    
    40   19   20 am   BACKBONE|DICT|INTERRES
    41   19  144 1    
    42   20   21 2    
    43   20   22 1    
    44   22   23 1    
    45   22   24 1    
    46   22  145 1    
    47   23  146 1    
    48   23  147 1    
    49   23  148 1    
    50   24   25 am   BACKBONE|DICT|INTERRES
    51   24  149 1    
    52   25   26 2    
    53   25   27 1    
    54   27   28 1    
    55   27   29 1    
    56   27  150 1    
    57   28  151 1    
    58   28  152 1    
    59   28  153 1    
    60   29   30 am   BACKBONE|DICT|INTERRES
    61   29  154 1    
    62   30   31 2    
    63   30   32 1    
    64   32   33 1    
    65   32   34 1    
    66   32  155 1    
    67   33  156 1    
    68   33  157 1    
    69   33  158 1    
    70   34   35 am   BACKBONE|DICT|INTERRES
    71   34  159 1    
    72   35   36 2    
    73   35   37 1    
    74   37   38 1    
    75   37   39 1    
    76   37  160 1    
    77   38  161 1    
    78   38  162 1    
    79   38  163 1    
    80   39   40 am   BACKBONE|DICT|INTERRES
    81   39  164 1    
    82   40   41 2    
    83   40   42 1    
    84   42   43 1    
    85   42   44 1    
    86   42  165 1    
    87   43  166 1    
    88   43  167 1    
    89   43  168 1    
    90   44   45 am   BACKBONE|DICT|INTERRES
    91   44  169 1    
    92   45   46 2    
    93   45   47 1    
    94   47   48 1    
    95   47   49 1    
    96   47  170 1    
    97   48  171 1    
    98   48  172 1    
    99   48  173 1    
   100   49   50 am   BACKBONE|DICT|INTERRES
   101   49  174 1    
   102   50   51 2    
   103   50   52 1    
   104   52   53 1    
   105   52   54 1    
   106   52  175 1    
   107   53  176 1    
   108   53  177 1    
   109   53  178 1    
   110   54   55 am   BACKBONE|DICT|INTERRES
   111   54  179 1    
   112   55   56 2    
   113   55   57 1    
   114   57   58 1    
   115   57   59 1    
   116   57  180 1    
   117   58  181 1    
   118   58  182 1    
   119   58  183 1    
   120   59   60 am   BACKBONE|DICT|INTERRES
   121   59  184 1    
   122   60   61 2    
   123   60   62 1    
   124   62   63 1    
   125   62   64 1    
   126   62  185 1    
   127   63  186 1    
   128   63  187 1    
   129   63  188 1    
   130   64   65 am   BACKBONE|DICT|INTERRES
   131   64  189 1    
   132   65   66 2    
   133   67   68 2    
   134   67   69 am   BACKBONE|DICT|INTERRES
   135   69   70 1    
   136   69  190 1    
   137   70   71 1    
   138   70   72 1    
   139   70  191 1    
   140   71  192 1    
   141   71  193 1    
   142   71  194 1    
   143   72   73 2    
   144   72   74 am   BACKBONE|DICT|INTERRES
   145   74   75 1    
   146   74  195 1    
   147   75   76 1    
   148   75   77 1    
   149   75  196 1    
   150   76  197 1    
   151   76  198 1    
   152   76  199 1    
   153   77   78 2    
   154   77   79 am   BACKBONE|DICT|INTERRES
   155   79   80 1    
   156   79  200 1    
   157   80   81 1    
   158   80   82 1    
   159   80  201 1    
   160   81  202 1    
   161   81  203 1    
   162   81  204 1    
   163   82   83 2    
   164   82   84 am   BACKBONE|DICT|INTERRES
   165   84   85 1    
   166   84  205 1    
   167   85   86 1    
   168   85   87 1    
   169   85  206 1    
   170   86  207 1    
   171   86  208 1    
   172   86  209 1    
   173   87   88 2    
   174   87   89 am   BACKBONE|DICT|INTERRES
   175   89   90 1    
   176   89  210 1    
   177   90   91 1    
   178   90   92 1    
   179   90  211 1    
   180   91  212 1    
   181   91  213 1    
   182   91  214 1    
   183   92   93 2    
   184   92   94 am   BACKBONE|DICT|INTERRES
   185   94   95 1    
   186   94  215 1    
   187   95   96 1    
   188   95   97 1    
   189   95  216 1    
   190   96  217 1    
   191   96  218 1    
   192   96  219 1    
   193   97   98 2    
   194   97   99 am   BACKBONE|DICT|INTERRES
   195   99  100 1    
   196   99  220 1    
   197  100  101 1    
   198  100  102 1    
   199  100  221 1    
   200  101  222 1    
   201  101  223 1    
   202  101  224 1    
   203  102  103 2    
   204  102  104 am   BACKBONE|DICT|INTERRES
   205  104  105 1    
   206  104  225 1    
   207  105  106 1    
   208  105  107 1    
   209  105  226 1    
   210  106  227 1    
   211  106  228 1    
   212  106  229 1    
   213  107  108 2    
   214  107  109 am   BACKBONE|DICT|INTERRES
   215  109  110 1    
   216  109  230 1    
   217  110  111 1    
   218  110  112 1    
   219  110  231 1    
   220  111  232 1    
   221  111  233 1    
   222  111  234 1    
   223  112  113 2    
   224  112  114 am   BACKBONE|DICT|INTERRES
   225  114  115 1    
   226  114  235 1    
   227  115  116 1    
   228  115  117 1    
   229  115  236 1    
   230  116  237 1    
   231  116  238 1    
   232  116  239 1    
   233  117  118 2    
   234  117  119 am   BACKBONE|DICT|INTERRES
   235  119  120 1    
   236  119  240 1    
   237  120  121 1    
   238  120  124 1    
   239  120  241 1    
   240  121  122 am   BACKBONE|DICT|INTERRES
   241  121  123 2    
   242  122  242 1    
   243  122  243 1    
   244  124  125 1    
   245  124  244 1    
   246  124  245 1    
   247  125  126 1    
   248  126  246 1    
   249  126  247 1    
@<TRIPOS>SUBSTRUCTURE
     1 UNK         1 GROUP             0       ****    0 ROOT    
