@<TRIPOS>MOLECULE
3R540
247   249    1
SMALL
USER_CHARGES


@<TRIPOS>ATOM
      1 CA          4.7874  -12.9168  -45.2249 C.3       0 UNK        -0.1800 
      2 C           3.2807  -13.0596  -45.0760 C.2       0 UNK         0.5000 
      3 O           2.7722  -13.0295  -43.9553 O.2       0 UNK        -0.5000 
      4 N           2.5634  -13.2130  -46.1972 N.am      1 UNK        -0.5000 
      5 CA          1.1070  -13.4024  -46.2469 C.3       1 UNK         0.1400 
      6 C6          0.5912  -13.7523  -47.6661 C.3       23 UNK        -0.0398 
      7 S7          1.5003  -15.1131  -48.4754 S.3       23 UNK        -0.2404 
      8 C8          0.3688  -16.5206  -48.2556 C.3       23 UNK        -0.0205 
      9 C9          0.7258  -17.6452  -49.2150 C.ar      23 UNK        -0.0193 
     10 C10         0.0218  -17.7903  -50.4131 C.ar      23 UNK        -0.1150 
     11 C11         0.3717  -18.7868  -51.3279 C.ar      23 UNK        -0.0193 
     12 C12         1.4290  -19.6519  -51.0312 C.ar      23 UNK        -0.1150 
     13 C13         2.1488  -19.5118  -49.8404 C.ar      23 UNK        -0.0193 
     14 C14         1.7853  -18.5122  -48.9313 C.ar      23 UNK        -0.1150 
     15 C15         3.3649  -20.3910  -49.5801 C.3       23 UNK        -0.0205 
     16 S16         2.9243  -22.0395  -48.9489 S.3       23 UNK        -0.2404 
     17 C17         2.5388  -21.6590  -47.2074 C.3       23 UNK        -0.0398 
     18 CA          1.3728  -22.4925  -46.6293 C.3       11 UNK         0.1400 
     19 N           1.2635  -22.3124  -45.1799 N.am      11 UNK        -0.5000 
     20 C           0.4622  -23.0221  -44.3742 C.2       10 UNK         0.5000 
     21 O          -0.2455  -23.9505  -44.7598 O.2       10 UNK        -0.5000 
     22 CA          0.4031  -22.5929  -42.8979 C.3       10 UNK         0.1400 
     23 CB          1.6021  -23.1535  -42.1190 C.3       10 UNK        -0.1800 
     24 N           0.3403  -21.1393  -42.7384 N.am      10 UNK        -0.5000 
     25 C          -0.6668  -20.3722  -43.1822 C.2       9 UNK         0.5000 
     26 O          -1.6768  -20.8183  -43.7253 O.2       9 UNK        -0.5000 
     27 CA         -0.4945  -18.8487  -43.0481 C.3       9 UNK         0.1400 
     28 CB         -0.7990  -18.3819  -41.6169 C.3       9 UNK        -0.1800 
     29 N           0.8426  -18.4018  -43.4345 N.am      9 UNK        -0.5000 
     30 C           1.3726  -18.5375  -44.6573 C.2       8 UNK         0.5000 
     31 O           0.7716  -19.0191  -45.6160 O.2       8 UNK        -0.5000 
     32 CA          2.8416  -18.1170  -44.8215 C.3       8 UNK         0.1400 
     33 CB          2.9693  -16.5956  -44.9734 C.3       8 UNK        -0.1800 
     34 N           3.6639  -18.5736  -43.7028 N.am      8 UNK        -0.5000 
     35 C           3.9697  -19.8571  -43.4682 C.2       7 UNK         0.5000 
     36 O           3.6077  -20.7883  -44.1871 O.2       7 UNK        -0.5000 
     37 CA          4.7864  -20.1496  -42.1971 C.3       7 UNK         0.1400 
     38 CB          6.2854  -19.9363  -42.4548 C.3       7 UNK        -0.1800 
     39 N           4.3668  -19.3299  -41.0595 N.am      7 UNK        -0.5000 
     40 C           3.1783  -19.4409  -40.4504 C.2       6 UNK         0.5000 
     41 O           2.3171  -20.2586  -40.7726 O.2       6 UNK        -0.5000 
     42 CA          2.8845  -18.4355  -39.3227 C.3       6 UNK         0.1400 
     43 CB          3.5084  -18.9070  -38.0006 C.3       6 UNK        -0.1800 
     44 N           3.3314  -17.0694  -39.6146 N.am      6 UNK        -0.5000 
     45 C           2.9083  -16.3371  -40.6531 C.2       5 UNK         0.5000 
     46 O           2.1767  -16.7723  -41.5445 O.2       5 UNK        -0.5000 
     47 CA          3.4003  -14.8811  -40.7242 C.3       5 UNK         0.1400 
     48 CB          4.6237  -14.7725  -41.6468 C.3       5 UNK        -0.1800 
     49 N           2.3495  -13.9927  -41.2191 N.am      5 UNK        -0.5000 
     50 C           1.1995  -13.7375  -40.5775 C.2       4 UNK         0.5000 
     51 O           0.9393  -14.1587  -39.4481 O.2       4 UNK        -0.5000 
     52 CA          0.1857  -12.8519  -41.3302 C.3       4 UNK         0.1400 
     53 CB         -0.9966  -12.3867  -40.4546 C.3       4 UNK        -0.1800 
     54 N           0.8310  -11.7164  -41.9912 N.am      4 UNK        -0.5000 
     55 C           1.5224  -10.7159  -41.4232 C.2       3 UNK         0.5000 
     56 O           1.6416  -10.5616  -40.2072 O.2       3 UNK        -0.5000 
     57 CA          2.2203   -9.7240  -42.3760 C.3       3 UNK         0.1400 
     58 CB          3.7430   -9.9341  -42.3462 C.3       3 UNK        -0.1800 
     59 N           1.7567   -9.8478  -43.7592 N.am      3 UNK        -0.5000 
     60 C           0.6188   -9.3248  -44.2357 C.2       2 UNK         0.5000 
     61 O          -0.1324   -8.6051  -43.5771 O.2       2 UNK        -0.5000 
     62 CA          0.2490   -9.6843  -45.6873 C.3       2 UNK         0.1400 
     63 CB          0.7312   -8.5902  -46.6520 C.3       2 UNK        -0.1800 
     64 N           0.7985  -10.9743  -46.1146 N.am      2 UNK        -0.5000 
     65 C           0.3534  -12.1711  -45.7030 C.2       1 UNK         0.5000 
     66 O          -0.5741  -12.3212  -44.9078 O.2       1 UNK        -0.5000 
     67 C           0.0313  -22.2157  -47.3425 C.2       11 UNK         0.5000 
     68 O          -0.4153  -23.0474  -48.1326 O.2       11 UNK        -0.5000 
     69 N          -0.6164  -21.0913  -47.0073 N.am      12 UNK        -0.5000 
     70 CA         -1.9269  -20.7036  -47.5308 C.3       12 UNK         0.1400 
     71 CB         -2.2669  -19.2847  -47.0524 C.3       12 UNK        -0.1800 
     72 C          -3.0505  -21.6895  -47.1544 C.2       12 UNK         0.5000 
     73 O          -3.9399  -21.9271  -47.9707 O.2       12 UNK        -0.5000 
     74 N          -2.9842  -22.2536  -45.9401 N.am      13 UNK        -0.5000 
     75 CA         -3.9035  -23.2817  -45.4518 C.3       13 UNK         0.1400 
     76 CB         -3.7815  -23.3921  -43.9243 C.3       13 UNK        -0.1800 
     77 C          -3.6778  -24.6539  -46.1151 C.2       13 UNK         0.5000 
     78 O          -4.6494  -25.3689  -46.3635 O.2       13 UNK        -0.5000 
     79 N          -2.4108  -25.0051  -46.3775 N.am      14 UNK        -0.5000 
     80 CA         -2.0123  -26.2416  -47.0527 C.3       14 UNK         0.1400 
     81 CB         -0.5097  -26.4816  -46.8401 C.3       14 UNK        -0.1800 
     82 C          -2.3535  -26.2366  -48.5539 C.2       14 UNK         0.5000 
     83 O          -2.7178  -27.2814  -49.0964 O.2       14 UNK        -0.5000 
     84 N          -2.2326  -25.0667  -49.1947 N.am      15 UNK        -0.5000 
     85 CA         -2.6223  -24.8202  -50.5815 C.3       15 UNK         0.1400 
     86 CB         -2.1180  -23.4269  -50.9969 C.3       15 UNK        -0.1800 
     87 C          -4.1461  -24.9235  -50.7937 C.2       15 UNK         0.5000 
     88 O          -4.9252  -24.7519  -49.8540 O.2       15 UNK        -0.5000 
     89 N          -4.5471  -25.1573  -52.0501 N.am      16 UNK        -0.5000 
     90 CA         -5.9498  -25.2008  -52.4796 C.3       16 UNK         0.1400 
     91 CB         -6.0233  -25.8691  -53.8608 C.3       16 UNK        -0.1800 
     92 C          -6.6324  -23.8162  -52.5082 C.2       16 UNK         0.5000 
     93 O          -7.8594  -23.7526  -52.6004 O.2       16 UNK        -0.5000 
     94 N          -5.8310  -22.7420  -52.4324 N.am      17 UNK        -0.5000 
     95 CA         -6.2313  -21.3343  -52.4364 C.3       17 UNK         0.1400 
     96 CB         -6.9754  -20.9776  -51.1303 C.3       17 UNK        -0.1800 
     97 C          -6.9931  -20.9733  -53.7271 C.2       17 UNK         0.5000 
     98 O          -6.5461  -21.3619  -54.8089 O.2       17 UNK        -0.5000 
     99 N          -8.1169  -20.2539  -53.6083 N.am      18 UNK        -0.5000 
    100 CA        -8.9327  -19.7279  -54.7087 C.3       18 UNK         0.1400 
    101 CB       -10.1261  -18.9620  -54.1179 C.3       18 UNK        -0.1800 
    102 C         -9.4209  -20.7733  -55.7328 C.2       18 UNK         0.5000 
    103 O         -9.6729  -20.4100  -56.8818 O.2       18 UNK        -0.5000 
    104 N         -9.5047  -22.0477  -55.3250 N.am      19 UNK        -0.5000 
    105 CA        -9.8474  -23.1808  -56.1874 C.3       19 UNK         0.1400 
    106 CB       -10.0939  -24.4187  -55.3120 C.3       19 UNK        -0.1800 
    107 C         -8.7873  -23.4882  -57.2669 C.2       19 UNK         0.5000 
    108 O         -9.1312  -24.0938  -58.2829 O.2       19 UNK        -0.5000 
    109 N         -7.5341  -23.0706  -57.0401 N.am      20 UNK        -0.5000 
    110 CA        -6.4074  -23.2541  -57.9590 C.3       20 UNK         0.1400 
    111 CB        -5.5087  -24.3820  -57.4227 C.3       20 UNK        -0.1800 
    112 C         -5.6115  -21.9493  -58.1546 C.2       20 UNK         0.5000 
    113 O         -4.4620  -22.0046  -58.5954 O.2       20 UNK        -0.5000 
    114 N         -6.2034  -20.8039  -57.7774 N.am      21 UNK        -0.5000 
    115 CA        -5.6024  -19.4614  -57.7452 C.3       21 UNK         0.1400 
    116 CB        -5.4193  -18.9242  -59.1793 C.3       21 UNK        -0.1800 
    117 C         -4.3013  -19.3879  -56.9086 C.2       21 UNK         0.5000 
    118 O         -3.3998  -18.6109  -57.2275 O.2       21 UNK        -0.5000 
    119 N         -4.2269  -20.2226  -55.8630 N.am      22 UNK        -0.5000 
    120 CA        -3.0580  -20.4687  -55.0052 C.3       22 UNK         0.1400 
    121 C         -1.8617  -21.1728  -55.7240 C.2       22 UNK         0.5000 
    122 N         -2.0413  -21.7580  -56.9033 N.am      22 UNK        -0.7600 
    123 O         -0.7540  -21.2232  -55.1987 O.2       22 UNK        -0.5000 
    124 C124       -2.6560  -19.2037  -54.1955 C.3       23 UNK        -0.0398 
    125 S125       -2.0153  -19.5717  -52.5234 S.3       23 UNK        -0.2404 
    126 C126       -0.3431  -18.8695  -52.6674 C.3       23 UNK        -0.0205 
    127 H127        5.2931  -13.7173  -44.6853 H         1 UNK         0.0600 
    128 H128        5.1165  -11.9640  -44.8107 H         1 UNK         0.0600 
    129 H129        5.0973  -12.9610  -46.2691 H         1 UNK         0.0600 
    130 H130        3.0370  -13.2539  -47.0887 H         1 UNK         0.3000 
    131 H131        0.8700  -14.2427  -45.5905 H         1 UNK         0.0600 
    132 H132        0.6745  -12.8858  -48.3248 H         1 UNK         0.0800 
    133 H133       -0.4719  -13.9962  -47.6319 H         1 UNK         0.0800 
    134 H134       -0.6605  -16.2022  -48.4263 H         1 UNK         0.0800 
    135 H135        0.4175  -16.8730  -47.2252 H         1 UNK         0.0800 
    136 H136       -0.7845  -17.1099  -50.6493 H         1 UNK         0.1150 
    137 H137        1.7168  -20.4131  -51.7430 H         1 UNK         0.1150 
    138 H138        2.3456  -18.3816  -48.0172 H         1 UNK         0.1150 
    139 H139        3.9214  -20.5143  -50.5103 H         1 UNK         0.0800 
    140 H140        4.0508  -19.9045  -48.8846 H         1 UNK         0.0800 
    141 H141        2.3353  -20.5956  -47.0914 H         1 UNK         0.0800 
    142 H142        3.4464  -21.8525  -46.6345 H         1 UNK         0.0800 
    143 H143        1.6103  -23.5459  -46.7933 H         1 UNK         0.0600 
    144 H144        1.8487  -21.5913  -44.7710 H         1 UNK         0.3000 
    145 H145       -0.5072  -23.0143  -42.4668 H         1 UNK         0.0600 
    146 H146        1.5166  -22.9342  -41.0546 H         1 UNK         0.0600 
    147 H147        1.6640  -24.2374  -42.2234 H         1 UNK         0.0600 
    148 H148        2.5445  -22.7342  -42.4720 H         1 UNK         0.0600 
    149 H149        1.1163  -20.7018  -42.2502 H         1 UNK         0.3000 
    150 H150       -1.2102  -18.3726  -43.7213 H         1 UNK         0.0600 
    151 H151       -1.8040  -18.6785  -41.3146 H         1 UNK         0.0600 
    152 H152       -0.7403  -17.2962  -41.5361 H         1 UNK         0.0600 
    153 H153       -0.0992  -18.8073  -40.8972 H         1 UNK         0.0600 
    154 H154        1.3972  -17.9481  -42.7111 H         1 UNK         0.3000 
    155 H155        3.2246  -18.5801  -45.7330 H         1 UNK         0.0600 
    156 H156        2.5667  -16.0626  -44.1116 H         1 UNK         0.0600 
    157 H157        2.4258  -16.2505  -45.8519 H         1 UNK         0.0600 
    158 H158        4.0094  -16.2954  -45.0996 H         1 UNK         0.0600 
    159 H159        3.9428  -17.8771  -43.0284 H         1 UNK         0.3000 
    160 H160        4.6312  -21.1988  -41.9365 H         1 UNK         0.0600 
    161 H161        6.5107  -18.8967  -42.6958 H         1 UNK         0.0600 
    162 H162        6.6282  -20.5489  -43.2898 H         1 UNK         0.0600 
    163 H163        6.8785  -20.2155  -41.5837 H         1 UNK         0.0600 
    164 H164        5.0132  -18.6262  -40.7344 H         1 UNK         0.3000 
    165 H165        1.8009  -18.4026  -39.1918 H         1 UNK         0.0600 
    166 H166        3.2168  -18.2593  -37.1736 H         1 UNK         0.0600 
    167 H167        3.1790  -19.9167  -37.7517 H         1 UNK         0.0600 
    168 H168        4.5979  -18.9197  -38.0499 H         1 UNK         0.0600 
    169 H169        3.9420  -16.6432  -38.9325 H         1 UNK         0.3000 
    170 H170        3.6825  -14.5486  -39.7233 H         1 UNK         0.0600 
    171 H171        5.4473  -15.3864  -41.2806 H         1 UNK         0.0600 
    172 H172        4.3932  -15.1016  -42.6604 H         1 UNK         0.0600 
    173 H173        4.9835  -13.7449  -41.7051 H         1 UNK         0.0600 
    174 H174        2.4752  -13.6231  -42.1581 H         1 UNK         0.3000 
    175 H175       -0.2228  -13.4735  -42.1284 H         1 UNK         0.0600 
    176 H176       -1.5561  -13.2405  -40.0709 H         1 UNK         0.0600 
    177 H177       -0.6635  -11.8029  -39.5962 H         1 UNK         0.0600 
    178 H178       -1.6928  -11.7743  -41.0276 H         1 UNK         0.0600 
    179 H179        0.8302  -11.7583  -43.0013 H         1 UNK         0.3000 
    180 H180        2.0071   -8.7144  -42.0183 H         1 UNK         0.0600 
    181 H181        4.0177  -10.9426  -42.6566 H         1 UNK         0.0600 
    182 H182        4.1375   -9.7846  -41.3404 H         1 UNK         0.0600 
    183 H183        4.2532   -9.2286  -43.0022 H         1 UNK         0.0600 
    184 H184        2.3029  -10.4424  -44.3647 H         1 UNK         0.3000 
    185 H185       -0.8402   -9.7371  -45.7474 H         1 UNK         0.0600 
    186 H186        0.3185   -7.6184  -46.3777 H         1 UNK         0.0600 
    187 H187        1.8180   -8.4985  -46.6471 H         1 UNK         0.0600 
    188 H188        0.4155   -8.7986  -47.6744 H         1 UNK         0.0600 
    189 H189        1.5781  -10.9439  -46.7560 H         1 UNK         0.3000 
    190 H190       -0.1693  -20.4341  -46.3717 H         1 UNK         0.3000 
    191 H191       -1.8528  -20.6855  -48.6204 H         1 UNK         0.0600 
    192 H192       -1.5172  -18.5689  -47.3865 H         1 UNK         0.0600 
    193 H193       -3.2289  -18.9578  -47.4488 H         1 UNK         0.0600 
    194 H194       -2.3206  -19.2292  -45.9647 H         1 UNK         0.0600 
    195 H195       -2.2631  -21.9435  -45.2967 H         1 UNK         0.3000 
    196 H196       -4.9222  -22.9650  -45.6853 H         1 UNK         0.0600 
    197 H197       -4.4714  -24.1391  -43.5298 H         1 UNK         0.0600 
    198 H198       -4.0172  -22.4439  -43.4408 H         1 UNK         0.0600 
    199 H199       -2.7750  -23.6809  -43.6205 H         1 UNK         0.0600 
    200 H200       -1.6599  -24.3955  -46.0687 H         1 UNK         0.3000 
    201 H201       -2.5542  -27.0705  -46.5924 H         1 UNK         0.0600 
    202 H202       -0.2718  -26.5740  -45.7803 H         1 UNK         0.0600 
    203 H203        0.0896  -25.6668  -47.2476 H         1 UNK         0.0600 
    204 H204       -0.1876  -27.4028  -47.3271 H         1 UNK         0.0600 
    205 H205       -1.8698  -24.2704  -48.6797 H         1 UNK         0.3000 
    206 H206       -2.1340  -25.5708  -51.2063 H         1 UNK         0.0600 
    207 H207       -1.0368  -23.3474  -50.8807 H         1 UNK         0.0600 
    208 H208       -2.3446  -23.2156  -52.0425 H         1 UNK         0.0600 
    209 H209       -2.5745  -22.6394  -50.3958 H         1 UNK         0.0600 
    210 H210       -3.8532  -25.2945  -52.7712 H         1 UNK         0.3000 
    211 H211       -6.5079  -25.8193  -51.7736 H         1 UNK         0.0600 
    212 H212       -5.4382  -25.3223  -54.5985 H         1 UNK         0.0600 
    213 H213       -7.0506  -25.9166  -54.2240 H         1 UNK         0.0600 
    214 H214       -5.6461  -26.8912  -53.8245 H         1 UNK         0.0600 
    215 H215       -4.8386  -22.9135  -52.3839 H         1 UNK         0.3000 
    216 H216       -5.3086  -20.7527  -52.4592 H         1 UNK         0.0600 
    217 H217       -7.1516  -19.9041  -51.0533 H         1 UNK         0.0600 
    218 H218       -6.3849  -21.2641  -50.2593 H         1 UNK         0.0600 
    219 H219       -7.9386  -21.4835  -51.0537 H         1 UNK         0.0600 
    220 H220       -8.4213  -20.0073  -52.6777 H         1 UNK         0.3000 
    221 H221       -8.3103  -19.0168  -55.2555 H         1 UNK         0.0600 
    222 H222      -10.7658  -19.6143  -53.5220 H         1 UNK         0.0600 
    223 H223       -9.7941  -18.1422  -53.4807 H         1 UNK         0.0600 
    224 H224      -10.7431  -18.5279  -54.9060 H         1 UNK         0.0600 
    225 H225       -9.2499  -22.2662  -54.3712 H         1 UNK         0.3000 
    226 H226      -10.7785  -22.9386  -56.7040 H         1 UNK         0.0600 
    227 H227      -10.8788  -24.2352  -54.5781 H         1 UNK         0.0600 
    228 H228      -10.4082  -25.2697  -55.9177 H         1 UNK         0.0600 
    229 H229       -9.1933  -24.7150  -54.7740 H         1 UNK         0.0600 
    230 H230       -7.3264  -22.5794  -56.1750 H         1 UNK         0.3000 
    231 H231       -6.7677  -23.5409  -58.9487 H         1 UNK         0.0600 
    232 H232       -6.0822  -25.2870  -57.2211 H         1 UNK         0.0600 
    233 H233       -5.0088  -24.0832  -56.5011 H         1 UNK         0.0600 
    234 H234       -4.7341  -24.6439  -58.1444 H         1 UNK         0.0600 
    235 H235       -7.1506  -20.8652  -57.4317 H         1 UNK         0.3000 
    236 H236       -6.3221  -18.8168  -57.2389 H         1 UNK         0.0600 
    237 H237       -5.0995  -17.8816  -59.1707 H         1 UNK         0.0600 
    238 H238       -4.6695  -19.4925  -59.7305 H         1 UNK         0.0600 
    239 H239       -6.3534  -18.9702  -59.7392 H         1 UNK         0.0600 
    240 H240       -5.0447  -20.7912  -55.6556 H         1 UNK         0.3000 
    241 H241       -3.4151  -21.2123  -54.2923 H         1 UNK         0.0600 
    242 H242       -1.2597  -22.2150  -57.3447 H         1 UNK         0.3800 
    243 H243       -2.9370  -21.7357  -57.3803 H         1 UNK         0.3800 
    244 H244       -1.9500  -18.5940  -54.7616 H         1 UNK         0.0800 
    245 H245       -3.5286  -18.5667  -54.0446 H         1 UNK         0.0800 
    246 H246        0.2361  -19.4647  -53.3748 H         1 UNK         0.0800 
    247 H247       -0.4057  -17.8657  -53.0903 H         1 UNK         0.0800 
@<TRIPOS>BOND
     1    1    2 1    
     2    1  127 1    
     3    1  128 1    
     4    1  129 1    
     5    2    3 2    
     6    2    4 am   BACKBONE|DICT|INTERRES
     7    4    5 1    
     8    4  130 1    
     9    5    6 1    
    10    5   65 1    
    11    5  131 1    
    12    6    7 1    
    13    6  132 1    
    14    6  133 1    
    15    7    8 1    
    16    8    9 1    
    17    8  134 1    
    18    8  135 1    
    19    9   10 ar   
    20    9   14 ar   
    21   10   11 ar   
    22   10  136 1    
    23   11   12 ar   
    24   11  126 1    
    25   12   13 ar   
    26   12  137 1    
    27   13   14 ar   
    28   13   15 1    
    29   14  138 1    
    30   15   16 1    
    31   15  139 1    
    32   15  140 1    
    33   16   17 1    
    34   17   18 1    
    35   17  141 1    
    36   17  142 1    
    37   18   19 1    
    38   18   67 1    
    39   18  143 1    
    40   19   20 am   BACKBONE|DICT|INTERRES
    41   19  144 1    
    42   20   21 2    
    43   20   22 1    
    44   22   23 1    
    45   22   24 1    
    46   22  145 1    
    47   23  146 1    
    48   23  147 1    
    49   23  148 1    
    50   24   25 am   BACKBONE|DICT|INTERRES
    51   24  149 1    
    52   25   26 2    
    53   25   27 1    
    54   27   28 1    
    55   27   29 1    
    56   27  150 1    
    57   28  151 1    
    58   28  152 1    
    59   28  153 1    
    60   29   30 am   BACKBONE|DICT|INTERRES
    61   29  154 1    
    62   30   31 2    
    63   30   32 1    
    64   32   33 1    
    65   32   34 1    
    66   32  155 1    
    67   33  156 1    
    68   33  157 1    
    69   33  158 1    
    70   34   35 am   BACKBONE|DICT|INTERRES
    71   34  159 1    
    72   35   36 2    
    73   35   37 1    
    74   37   38 1    
    75   37   39 1    
    76   37  160 1    
    77   38  161 1    
    78   38  162 1    
    79   38  163 1    
    80   39   40 am   BACKBONE|DICT|INTERRES
    81   39  164 1    
    82   40   41 2    
    83   40   42 1    
    84   42   43 1    
    85   42   44 1    
    86   42  165 1    
    87   43  166 1    
    88   43  167 1    
    89   43  168 1    
    90   44   45 am   BACKBONE|DICT|INTERRES
    91   44  169 1    
    92   45   46 2    
    93   45   47 1    
    94   47   48 1    
    95   47   49 1    
    96   47  170 1    
    97   48  171 1    
    98   48  172 1    
    99   48  173 1    
   100   49   50 am   BACKBONE|DICT|INTERRES
   101   49  174 1    
   102   50   51 2    
   103   50   52 1    
   104   52   53 1    
   105   52   54 1    
   106   52  175 1    
   107   53  176 1    
   108   53  177 1    
   109   53  178 1    
   110   54   55 am   BACKBONE|DICT|INTERRES
   111   54  179 1    
   112   55   56 2    
   113   55   57 1    
   114   57   58 1    
   115   57   59 1    
   116   57  180 1    
   117   58  181 1    
   118   58  182 1    
   119   58  183 1    
   120   59   60 am   BACKBONE|DICT|INTERRES
   121   59  184 1    
   122   60   61 2    
   123   60   62 1    
   124   62   63 1    
   125   62   64 1    
   126   62  185 1    
   127   63  186 1    
   128   63  187 1    
   129   63  188 1    
   130   64   65 am   BACKBONE|DICT|INTERRES
   131   64  189 1    
   132   65   66 2    
   133   67   68 2    
   134   67   69 am   BACKBONE|DICT|INTERRES
   135   69   70 1    
   136   69  190 1    
   137   70   71 1    
   138   70   72 1    
   139   70  191 1    
   140   71  192 1    
   141   71  193 1    
   142   71  194 1    
   143   72   73 2    
   144   72   74 am   BACKBONE|DICT|INTERRES
   145   74   75 1    
   146   74  195 1    
   147   75   76 1    
   148   75   77 1    
   149   75  196 1    
   150   76  197 1    
   151   76  198 1    
   152   76  199 1    
   153   77   78 2    
   154   77   79 am   BACKBONE|DICT|INTERRES
   155   79   80 1    
   156   79  200 1    
   157   80   81 1    
   158   80   82 1    
   159   80  201 1    
   160   81  202 1    
   161   81  203 1    
   162   81  204 1    
   163   82   83 2    
   164   82   84 am   BACKBONE|DICT|INTERRES
   165   84   85 1    
   166   84  205 1    
   167   85   86 1    
   168   85   87 1    
   169   85  206 1    
   170   86  207 1    
   171   86  208 1    
   172   86  209 1    
   173   87   88 2    
   174   87   89 am   BACKBONE|DICT|INTERRES
   175   89   90 1    
   176   89  210 1    
   177   90   91 1    
   178   90   92 1    
   179   90  211 1    
   180   91  212 1    
   181   91  213 1    
   182   91  214 1    
   183   92   93 2    
   184   92   94 am   BACKBONE|DICT|INTERRES
   185   94   95 1    
   186   94  215 1    
   187   95   96 1    
   188   95   97 1    
   189   95  216 1    
   190   96  217 1    
   191   96  218 1    
   192   96  219 1    
   193   97   98 2    
   194   97   99 am   BACKBONE|DICT|INTERRES
   195   99  100 1    
   196   99  220 1    
   197  100  101 1    
   198  100  102 1    
   199  100  221 1    
   200  101  222 1    
   201  101  223 1    
   202  101  224 1    
   203  102  103 2    
   204  102  104 am   BACKBONE|DICT|INTERRES
   205  104  105 1    
   206  104  225 1    
   207  105  106 1    
   208  105  107 1    
   209  105  226 1    
   210  106  227 1    
   211  106  228 1    
   212  106  229 1    
   213  107  108 2    
   214  107  109 am   BACKBONE|DICT|INTERRES
   215  109  110 1    
   216  109  230 1    
   217  110  111 1    
   218  110  112 1    
   219  110  231 1    
   220  111  232 1    
   221  111  233 1    
   222  111  234 1    
   223  112  113 2    
   224  112  114 am   BACKBONE|DICT|INTERRES
   225  114  115 1    
   226  114  235 1    
   227  115  116 1    
   228  115  117 1    
   229  115  236 1    
   230  116  237 1    
   231  116  238 1    
   232  116  239 1    
   233  117  118 2    
   234  117  119 am   BACKBONE|DICT|INTERRES
   235  119  120 1    
   236  119  240 1    
   237  120  121 1    
   238  120  124 1    
   239  120  241 1    
   240  121  122 am   BACKBONE|DICT|INTERRES
   241  121  123 2    
   242  122  242 1    
   243  122  243 1    
   244  124  125 1    
   245  124  244 1    
   246  124  245 1    
   247  125  126 1    
   248  126  246 1    
   249  126  247 1    
@<TRIPOS>SUBSTRUCTURE
     1 UNK         1 GROUP             0       ****    0 ROOT    
