@<TRIPOS>MOLECULE
3R540
247   249    1
SMALL
USER_CHARGES


@<TRIPOS>ATOM
      1 CA          0.1200   -8.7076  -42.5623 C.3       0 UNK        -0.1800 
      2 C           0.5892   -9.9980  -43.2168 C.2       0 UNK         0.5000 
      3 O           1.7867  -10.1663  -43.4479 O.2       0 UNK        -0.5000 
      4 N          -0.3424  -10.9197  -43.4987 N.am      1 UNK        -0.5000 
      5 CA         -0.0889  -12.2056  -44.1652 C.3       1 UNK         0.1400 
      6 C6         -1.3847  -12.9996  -44.4562 C.3       23 UNK        -0.0398 
      7 S7         -2.6784  -12.0401  -45.3219 S.3       23 UNK        -0.2404 
      8 C8         -2.4850  -12.5653  -47.0638 C.3       23 UNK        -0.0205 
      9 C9         -2.7729  -14.0359  -47.3847 C.ar      23 UNK        -0.0193 
     10 C10        -2.5324  -14.4803  -48.6901 C.ar      23 UNK        -0.1150 
     11 C11        -2.6972  -15.8247  -49.0379 C.ar      23 UNK        -0.0193 
     12 C12        -3.1056  -16.7324  -48.0582 C.ar      23 UNK        -0.1150 
     13 C13        -3.3714  -16.3075  -46.7562 C.ar      23 UNK        -0.0193 
     14 C14        -3.2267  -14.9579  -46.4305 C.ar      23 UNK        -0.1150 
     15 C15        -3.7232  -17.3253  -45.6855 C.3       23 UNK        -0.0205 
     16 S16        -5.2228  -18.2710  -46.0785 S.3       23 UNK        -0.2404 
     17 C17        -4.9321  -19.7604  -45.0670 C.3       23 UNK        -0.0398 
     18 CA         -4.3563  -20.9226  -45.9103 C.3       11 UNK         0.1400 
     19 N          -3.0129  -20.6502  -46.4363 N.am      11 UNK        -0.5000 
     20 C          -2.4746  -21.2974  -47.4799 C.2       10 UNK         0.5000 
     21 O          -3.0759  -22.1488  -48.1321 O.2       10 UNK        -0.5000 
     22 CA         -1.0076  -20.9918  -47.8301 C.3       10 UNK         0.1400 
     23 CB         -0.9149  -19.9254  -48.9279 C.3       10 UNK        -0.1800 
     24 N          -0.2156  -20.5897  -46.6672 N.am      10 UNK        -0.5000 
     25 C           0.1158  -21.4292  -45.6741 C.2       9 UNK         0.5000 
     26 O          -0.2187  -22.6139  -45.6596 O.2       9 UNK        -0.5000 
     27 CA          0.9191  -20.8650  -44.4848 C.3       9 UNK         0.1400 
     28 CB          2.4147  -21.1654  -44.6610 C.3       9 UNK        -0.1800 
     29 N           0.7458  -19.4276  -44.2739 N.am      9 UNK        -0.5000 
     30 C          -0.4077  -18.8249  -43.9562 C.2       8 UNK         0.5000 
     31 O          -1.4677  -19.4282  -43.7792 O.2       8 UNK        -0.5000 
     32 CA         -0.3827  -17.2832  -43.8835 C.3       8 UNK         0.1400 
     33 CB         -0.1027  -16.8177  -42.4487 C.3       8 UNK        -0.1800 
     34 N           0.5648  -16.6337  -44.8002 N.am      8 UNK        -0.5000 
     35 C           0.6202  -16.8214  -46.1291 C.2       7 UNK         0.5000 
     36 O          -0.0816  -17.6339  -46.7287 O.2       7 UNK        -0.5000 
     37 CA          1.6335  -15.9861  -46.9272 C.3       7 UNK         0.1400 
     38 CB          0.9208  -14.8419  -47.6620 C.3       7 UNK        -0.1800 
     39 N           2.6787  -15.4117  -46.0848 N.am      7 UNK        -0.5000 
     40 C           3.8846  -15.9473  -45.8678 C.2       6 UNK         0.5000 
     41 O           4.2186  -17.0599  -46.2795 O.2       6 UNK        -0.5000 
     42 CA          4.8830  -15.0705  -45.0744 C.3       6 UNK         0.1400 
     43 CB          6.3477  -15.5141  -45.2624 C.3       6 UNK        -0.1800 
     44 N           4.7549  -13.6316  -45.3492 N.am      6 UNK        -0.5000 
     45 C           4.7926  -13.0200  -46.5462 C.2       5 UNK         0.5000 
     46 O           4.9695  -13.6005  -47.6177 O.2       5 UNK        -0.5000 
     47 CA          4.5905  -11.4920  -46.5494 C.3       5 UNK         0.1400 
     48 CB          3.0934  -11.1568  -46.6139 C.3       5 UNK        -0.1800 
     49 N           5.1778  -10.8341  -45.3823 N.am      5 UNK        -0.5000 
     50 C           6.4938  -10.7549  -45.1387 C.2       4 UNK         0.5000 
     51 O           7.3563  -11.1526  -45.9231 O.2       4 UNK        -0.5000 
     52 CA          6.9312  -10.1373  -43.7943 C.3       4 UNK         0.1400 
     53 CB          7.4121   -8.6924  -44.0006 C.3       4 UNK        -0.1800 
     54 N           5.9101  -10.1469  -42.7407 N.am      4 UNK        -0.5000 
     55 C           5.3260  -11.2346  -42.2191 C.2       3 UNK         0.5000 
     56 O           5.5323  -12.3765  -42.6361 O.2       3 UNK        -0.5000 
     57 CA          4.3516  -11.0151  -41.0433 C.3       3 UNK         0.1400 
     58 CB          3.9355   -9.5443  -40.8327 C.3       3 UNK        -0.1800 
     59 N           3.1518  -11.8254  -41.2352 N.am      3 UNK        -0.5000 
     60 C           2.9841  -13.0715  -40.7706 C.2       2 UNK         0.5000 
     61 O           3.8133  -13.6544  -40.0702 O.2       2 UNK        -0.5000 
     62 CA          1.6669  -13.7929  -41.1184 C.3       2 UNK         0.1400 
     63 CB          0.8540  -14.0825  -39.8456 C.3       2 UNK        -0.1800 
     64 N           0.8216  -13.0364  -42.0434 N.am      2 UNK        -0.5000 
     65 C           0.8878  -13.1058  -43.3790 C.2       1 UNK         0.5000 
     66 O           1.6657  -13.8377  -43.9896 O.2       1 UNK        -0.5000 
     67 C          -4.3770  -22.2427  -45.1167 C.2       11 UNK         0.5000 
     68 O          -5.3547  -22.9839  -45.2134 O.2       11 UNK        -0.5000 
     69 N          -3.2855  -22.5488  -44.3977 N.am      12 UNK        -0.5000 
     70 CA         -3.0892  -23.8251  -43.7021 C.3       12 UNK         0.1400 
     71 CB         -1.8773  -23.7230  -42.7634 C.3       12 UNK        -0.1800 
     72 C          -2.9372  -25.0062  -44.6817 C.2       12 UNK         0.5000 
     73 O          -3.4503  -26.0925  -44.4133 O.2       12 UNK        -0.5000 
     74 N          -2.2835  -24.7525  -45.8238 N.am      13 UNK        -0.5000 
     75 CA         -2.1682  -25.6733  -46.9574 C.3       13 UNK         0.1400 
     76 CB         -0.9678  -25.2437  -47.8162 C.3       13 UNK        -0.1800 
     77 C          -3.4428  -25.7495  -47.8263 C.2       13 UNK         0.5000 
     78 O          -3.4809  -26.5551  -48.7576 O.2       13 UNK        -0.5000 
     79 N          -4.4402  -24.8966  -47.5450 N.am      14 UNK        -0.5000 
     80 CA         -5.7130  -24.7394  -48.2571 C.3       14 UNK         0.1400 
     81 CB         -6.6110  -25.9734  -48.0313 C.3       14 UNK        -0.1800 
     82 C          -5.5244  -24.3984  -49.7501 C.2       14 UNK         0.5000 
     83 O          -6.2037  -24.9701  -50.6029 O.2       14 UNK        -0.5000 
     84 N          -4.5697  -23.5012  -50.0373 N.am      15 UNK        -0.5000 
     85 CA         -4.1130  -23.0847  -51.3677 C.3       15 UNK         0.1400 
     86 CB         -5.2002  -22.2582  -52.0800 C.3       15 UNK        -0.1800 
     87 C          -3.5980  -24.2763  -52.2039 C.2       15 UNK         0.5000 
     88 O          -3.9545  -24.4182  -53.3769 O.2       15 UNK        -0.5000 
     89 N          -2.7949  -25.1218  -51.5401 N.am      16 UNK        -0.5000 
     90 CA         -2.2443  -26.3986  -51.9993 C.3       16 UNK         0.1400 
     91 CB         -1.2540  -26.1940  -53.1619 C.3       16 UNK        -0.1800 
     92 C          -3.3548  -27.4202  -52.3110 C.2       16 UNK         0.5000 
     93 O          -3.4236  -27.9460  -53.4221 O.2       16 UNK        -0.5000 
     94 N          -4.2085  -27.6675  -51.3073 N.am      17 UNK        -0.5000 
     95 CA         -5.3436  -28.5960  -51.3180 C.3       17 UNK         0.1400 
     96 CB         -4.8480  -30.0560  -51.3803 C.3       17 UNK        -0.1800 
     97 C          -6.3829  -28.2595  -52.4083 C.2       17 UNK         0.5000 
     98 O          -6.7471  -29.1198  -53.2125 O.2       17 UNK        -0.5000 
     99 N          -6.8352  -26.9983  -52.4034 N.am      18 UNK        -0.5000 
    100 CA        -7.8440  -26.4040  -53.2848 C.3       18 UNK         0.1400 
    101 CB        -9.2142  -27.0921  -53.1085 C.3       18 UNK        -0.1800 
    102 C         -7.4070  -26.2943  -54.7608 C.2       18 UNK         0.5000 
    103 O         -8.2599  -26.2427  -55.6487 O.2       18 UNK        -0.5000 
    104 N         -6.0913  -26.2122  -55.0037 N.am      19 UNK        -0.5000 
    105 CA        -5.5086  -25.9603  -56.3255 C.3       19 UNK         0.1400 
    106 CB        -4.0697  -26.4956  -56.3487 C.3       19 UNK        -0.1800 
    107 C         -5.5318  -24.4675  -56.7153 C.2       19 UNK         0.5000 
    108 O         -5.2362  -24.1443  -57.8663 O.2       19 UNK        -0.5000 
    109 N         -5.8616  -23.5938  -55.7507 N.am      20 UNK        -0.5000 
    110 CA        -5.8734  -22.1282  -55.8256 C.3       20 UNK         0.1400 
    111 CB        -6.8416  -21.6197  -56.9145 C.3       20 UNK        -0.1800 
    112 C         -4.4588  -21.5207  -55.9403 C.2       20 UNK         0.5000 
    113 O         -4.3076  -20.3944  -56.4171 O.2       20 UNK        -0.5000 
    114 N         -3.4466  -22.2627  -55.4730 N.am      21 UNK        -0.5000 
    115 CA        -2.0529  -21.8400  -55.4192 C.3       21 UNK         0.1400 
    116 CB        -1.1541  -23.0655  -55.6496 C.3       21 UNK        -0.1800 
    117 C         -1.7931  -21.1695  -54.0617 C.2       21 UNK         0.5000 
    118 O         -1.3325  -21.8248  -53.1236 O.2       21 UNK        -0.5000 
    119 N         -2.1376  -19.8801  -53.9646 N.am      22 UNK        -0.5000 
    120 CA        -1.9502  -19.0395  -52.7707 C.3       22 UNK         0.1400 
    121 C         -0.4508  -18.6909  -52.5129 C.2       22 UNK         0.5000 
    122 N          0.3883  -19.6819  -52.2469 N.am      22 UNK        -0.7600 
    123 O         -0.0339  -17.5376  -52.5741 O.2       22 UNK        -0.5000 
    124 C124       -2.8955  -17.8019  -52.7855 C.3       23 UNK        -0.0398 
    125 S125       -3.6056  -17.4316  -51.1448 S.3       23 UNK        -0.2404 
    126 C126       -2.3558  -16.3011  -50.4457 C.3       23 UNK        -0.0205 
    127 H127       -0.9585   -8.7025  -42.4026 H         1 UNK         0.0600 
    128 H128        0.3758   -7.8551  -43.1913 H         1 UNK         0.0600 
    129 H129        0.6090   -8.5790  -41.5966 H         1 UNK         0.0600 
    130 H130       -1.3129  -10.7191  -43.3005 H         1 UNK         0.3000 
    131 H131        0.3791  -11.9797  -45.1245 H         1 UNK         0.0600 
    132 H132       -1.1444  -13.8919  -45.0356 H         1 UNK         0.0800 
    133 H133       -1.8269  -13.3599  -43.5252 H         1 UNK         0.0800 
    134 H134       -3.1463  -11.9482  -47.6734 H         1 UNK         0.0800 
    135 H135       -1.4679  -12.3273  -47.3792 H         1 UNK         0.0800 
    136 H136       -2.1818  -13.7777  -49.4334 H         1 UNK         0.1150 
    137 H137       -3.2081  -17.7795  -48.3024 H         1 UNK         0.1150 
    138 H138       -3.4317  -14.6470  -45.4176 H         1 UNK         0.1150 
    139 H139       -2.8795  -18.0075  -45.6007 H         1 UNK         0.0800 
    140 H140       -3.8461  -16.8524  -44.7100 H         1 UNK         0.0800 
    141 H141       -5.8940  -20.0441  -44.6357 H         1 UNK         0.0800 
    142 H142       -4.2807  -19.5248  -44.2233 H         1 UNK         0.0800 
    143 H143       -5.0248  -21.0648  -46.7630 H         1 UNK         0.0600 
    144 H144       -2.4440  -19.9906  -45.9246 H         1 UNK         0.3000 
    145 H145       -0.5717  -21.9093  -48.2301 H         1 UNK         0.0600 
    146 H146       -1.3179  -18.9691  -48.6014 H         1 UNK         0.0600 
    147 H147        0.1181  -19.7634  -49.2355 H         1 UNK         0.0600 
    148 H148       -1.4743  -20.2337  -49.8106 H         1 UNK         0.0600 
    149 H149        0.0392  -19.6081  -46.6080 H         1 UNK         0.3000 
    150 H150        0.5703  -21.3773  -43.5859 H         1 UNK         0.0600 
    151 H151        2.5856  -22.2341  -44.7980 H         1 UNK         0.0600 
    152 H152        2.9855  -20.8564  -43.7852 H         1 UNK         0.0600 
    153 H153        2.8279  -20.6521  -45.5304 H         1 UNK         0.0600 
    154 H154        1.5576  -18.8471  -44.4253 H         1 UNK         0.3000 
    155 H155       -1.3775  -16.9303  -44.1536 H         1 UNK         0.0600 
    156 H156       -0.7660  -17.3119  -41.7375 H         1 UNK         0.0600 
    157 H157       -0.2704  -15.7466  -42.3487 H         1 UNK         0.0600 
    158 H158        0.9229  -17.0331  -42.1471 H         1 UNK         0.0600 
    159 H159        1.1765  -15.9329  -44.4009 H         1 UNK         0.3000 
    160 H160        2.0834  -16.6406  -47.6767 H         1 UNK         0.0600 
    161 H161        1.6252  -14.2492  -48.2461 H         1 UNK         0.0600 
    162 H162        0.4107  -14.1711  -46.9703 H         1 UNK         0.0600 
    163 H163        0.1766  -15.2345  -48.3548 H         1 UNK         0.0600 
    164 H164        2.4568  -14.5407  -45.6130 H         1 UNK         0.3000 
    165 H165        4.6292  -15.2008  -44.0214 H         1 UNK         0.0600 
    166 H166        6.6582  -15.4459  -46.3055 H         1 UNK         0.0600 
    167 H167        7.0234  -14.8963  -44.6706 H         1 UNK         0.0600 
    168 H168        6.4904  -16.5470  -44.9429 H         1 UNK         0.0600 
    169 H169        4.6523  -13.0505  -44.5256 H         1 UNK         0.3000 
    170 H170        5.0707  -11.0920  -47.4449 H         1 UNK         0.0600 
    171 H171        2.5722  -11.5139  -45.7266 H         1 UNK         0.0600 
    172 H172        2.9298  -10.0817  -46.6889 H         1 UNK         0.0600 
    173 H173        2.6229  -11.6211  -47.4817 H         1 UNK         0.0600 
    174 H174        4.5371  -10.4757  -44.6885 H         1 UNK         0.3000 
    175 H175        7.7752  -10.7286  -43.4335 H         1 UNK         0.0600 
    176 H176        6.6005   -8.0428  -44.3308 H         1 UNK         0.0600 
    177 H177        7.8234   -8.2770  -43.0804 H         1 UNK         0.0600 
    178 H178        8.1984   -8.6445  -44.7553 H         1 UNK         0.0600 
    179 H179        5.6672   -9.2471  -42.3524 H         1 UNK         0.3000 
    180 H180        4.8721  -11.3378  -40.1394 H         1 UNK         0.0600 
    181 H181        3.4916   -9.1092  -41.7283 H         1 UNK         0.0600 
    182 H182        4.7890   -8.9277  -40.5485 H         1 UNK         0.0600 
    183 H183        3.2038   -9.4584  -40.0291 H         1 UNK         0.0600 
    184 H184        2.4592  -11.4431  -41.8672 H         1 UNK         0.3000 
    185 H185        1.9382  -14.7478  -41.5727 H         1 UNK         0.0600 
    186 H186       -0.0605  -14.6294  -40.0754 H         1 UNK         0.0600 
    187 H187        1.4255  -14.6921  -39.1445 H         1 UNK         0.0600 
    188 H188        0.5745  -13.1633  -39.3293 H         1 UNK         0.0600 
    189 H189        0.1594  -12.3969  -41.6278 H         1 UNK         0.3000 
    190 H190       -2.5168  -21.8939  -44.3734 H         1 UNK         0.3000 
    191 H191       -3.9739  -24.0138  -43.0901 H         1 UNK         0.0600 
    192 H192       -0.9494  -23.5607  -43.3110 H         1 UNK         0.0600 
    193 H193       -1.9955  -22.9045  -42.0531 H         1 UNK         0.0600 
    194 H194       -1.7573  -24.6401  -42.1853 H         1 UNK         0.0600 
    195 H195       -1.8159  -23.8572  -45.9203 H         1 UNK         0.3000 
    196 H196       -1.9736  -26.6770  -46.5744 H         1 UNK         0.0600 
    197 H197       -0.0546  -25.1946  -47.2225 H         1 UNK         0.0600 
    198 H198       -1.1272  -24.2638  -48.2661 H         1 UNK         0.0600 
    199 H199       -0.7896  -25.9521  -48.6262 H         1 UNK         0.0600 
    200 H200       -4.3065  -24.2647  -46.7674 H         1 UNK         0.3000 
    201 H201       -6.2130  -23.8792  -47.8102 H         1 UNK         0.0600 
    202 H202       -7.5988  -25.8254  -48.4693 H         1 UNK         0.0600 
    203 H203       -6.7541  -26.1643  -46.9677 H         1 UNK         0.0600 
    204 H204       -6.1859  -26.8722  -48.4780 H         1 UNK         0.0600 
    205 H205       -4.0594  -23.0819  -49.2594 H         1 UNK         0.3000 
    206 H206       -3.2568  -22.4290  -51.2029 H         1 UNK         0.0600 
    207 H207       -5.5788  -21.4661  -51.4340 H         1 UNK         0.0600 
    208 H208       -6.0457  -22.8742  -52.3880 H         1 UNK         0.0600 
    209 H209       -4.7922  -21.7773  -52.9671 H         1 UNK         0.0600 
    210 H210       -2.6284  -24.9166  -50.5659 H         1 UNK         0.3000 
    211 H211       -1.6788  -26.8052  -51.1595 H         1 UNK         0.0600 
    212 H212       -0.5059  -25.4394  -52.9186 H         1 UNK         0.0600 
    213 H213       -0.7245  -27.1204  -53.3865 H         1 UNK         0.0600 
    214 H214       -1.7614  -25.8847  -54.0732 H         1 UNK         0.0600 
    215 H215       -4.0483  -27.1859  -50.4245 H         1 UNK         0.3000 
    216 H216       -5.8526  -28.4663  -50.3622 H         1 UNK         0.0600 
    217 H217       -5.6798  -30.7545  -51.2823 H         1 UNK         0.0600 
    218 H218       -4.3464  -30.2757  -52.3233 H         1 UNK         0.0600 
    219 H219       -4.1492  -30.2689  -50.5714 H         1 UNK         0.0600 
    220 H220       -6.4656  -26.3551  -51.7030 H         1 UNK         0.3000 
    221 H221       -7.9565  -25.3753  -52.9394 H         1 UNK         0.0600 
    222 H222       -9.2132  -28.1077  -53.5047 H         1 UNK         0.0600 
    223 H223       -9.4982  -27.1411  -52.0572 H         1 UNK         0.0600 
    224 H224       -9.9988  -26.5412  -53.6284 H         1 UNK         0.0600 
    225 H225       -5.4438  -26.2613  -54.2274 H         1 UNK         0.3000 
    226 H226       -6.0828  -26.5051  -57.0776 H         1 UNK         0.0600 
    227 H227       -4.0393  -27.5580  -56.1067 H         1 UNK         0.0600 
    228 H228       -3.6200  -26.3740  -57.3348 H         1 UNK         0.0600 
    229 H229       -3.4388  -25.9688  -55.6340 H         1 UNK         0.0600 
    230 H230       -6.0256  -23.9828  -54.8329 H         1 UNK         0.3000 
    231 H231       -6.2681  -21.7861  -54.8687 H         1 UNK         0.0600 
    232 H232       -6.9859  -20.5417  -56.8339 H         1 UNK         0.0600 
    233 H233       -7.8227  -22.0849  -56.8191 H         1 UNK         0.0600 
    234 H234       -6.4693  -21.8210  -57.9190 H         1 UNK         0.0600 
    235 H235       -3.6622  -23.1443  -55.0196 H         1 UNK         0.3000 
    236 H236       -1.8420  -21.1189  -56.2119 H         1 UNK         0.0600 
    237 H237       -1.3484  -23.5204  -56.6210 H         1 UNK         0.0600 
    238 H238       -0.1001  -22.7868  -55.6222 H         1 UNK         0.0600 
    239 H239       -1.3123  -23.8262  -54.8873 H         1 UNK         0.0600 
    240 H240       -2.5228  -19.4230  -54.7796 H         1 UNK         0.3000 
    241 H241       -2.2575  -19.6587  -51.9265 H         1 UNK         0.0600 
    242 H242        1.3642  -19.4880  -52.0899 H         1 UNK         0.3800 
    243 H243        0.0528  -20.6382  -52.2820 H         1 UNK         0.3800 
    244 H244       -2.4208  -16.9140  -53.2060 H         1 UNK         0.0800 
    245 H245       -3.7508  -17.9971  -53.4341 H         1 UNK         0.0800 
    246 H246       -2.2319  -15.4519  -51.1194 H         1 UNK         0.0800 
    247 H247       -1.3931  -16.8098  -50.3988 H         1 UNK         0.0800 
@<TRIPOS>BOND
     1    1    2 1    
     2    1  127 1    
     3    1  128 1    
     4    1  129 1    
     5    2    3 2    
     6    2    4 am   BACKBONE|DICT|INTERRES
     7    4    5 1    
     8    4  130 1    
     9    5    6 1    
    10    5   65 1    
    11    5  131 1    
    12    6    7 1    
    13    6  132 1    
    14    6  133 1    
    15    7    8 1    
    16    8    9 1    
    17    8  134 1    
    18    8  135 1    
    19    9   10 ar   
    20    9   14 ar   
    21   10   11 ar   
    22   10  136 1    
    23   11   12 ar   
    24   11  126 1    
    25   12   13 ar   
    26   12  137 1    
    27   13   14 ar   
    28   13   15 1    
    29   14  138 1    
    30   15   16 1    
    31   15  139 1    
    32   15  140 1    
    33   16   17 1    
    34   17   18 1    
    35   17  141 1    
    36   17  142 1    
    37   18   19 1    
    38   18   67 1    
    39   18  143 1    
    40   19   20 am   BACKBONE|DICT|INTERRES
    41   19  144 1    
    42   20   21 2    
    43   20   22 1    
    44   22   23 1    
    45   22   24 1    
    46   22  145 1    
    47   23  146 1    
    48   23  147 1    
    49   23  148 1    
    50   24   25 am   BACKBONE|DICT|INTERRES
    51   24  149 1    
    52   25   26 2    
    53   25   27 1    
    54   27   28 1    
    55   27   29 1    
    56   27  150 1    
    57   28  151 1    
    58   28  152 1    
    59   28  153 1    
    60   29   30 am   BACKBONE|DICT|INTERRES
    61   29  154 1    
    62   30   31 2    
    63   30   32 1    
    64   32   33 1    
    65   32   34 1    
    66   32  155 1    
    67   33  156 1    
    68   33  157 1    
    69   33  158 1    
    70   34   35 am   BACKBONE|DICT|INTERRES
    71   34  159 1    
    72   35   36 2    
    73   35   37 1    
    74   37   38 1    
    75   37   39 1    
    76   37  160 1    
    77   38  161 1    
    78   38  162 1    
    79   38  163 1    
    80   39   40 am   BACKBONE|DICT|INTERRES
    81   39  164 1    
    82   40   41 2    
    83   40   42 1    
    84   42   43 1    
    85   42   44 1    
    86   42  165 1    
    87   43  166 1    
    88   43  167 1    
    89   43  168 1    
    90   44   45 am   BACKBONE|DICT|INTERRES
    91   44  169 1    
    92   45   46 2    
    93   45   47 1    
    94   47   48 1    
    95   47   49 1    
    96   47  170 1    
    97   48  171 1    
    98   48  172 1    
    99   48  173 1    
   100   49   50 am   BACKBONE|DICT|INTERRES
   101   49  174 1    
   102   50   51 2    
   103   50   52 1    
   104   52   53 1    
   105   52   54 1    
   106   52  175 1    
   107   53  176 1    
   108   53  177 1    
   109   53  178 1    
   110   54   55 am   BACKBONE|DICT|INTERRES
   111   54  179 1    
   112   55   56 2    
   113   55   57 1    
   114   57   58 1    
   115   57   59 1    
   116   57  180 1    
   117   58  181 1    
   118   58  182 1    
   119   58  183 1    
   120   59   60 am   BACKBONE|DICT|INTERRES
   121   59  184 1    
   122   60   61 2    
   123   60   62 1    
   124   62   63 1    
   125   62   64 1    
   126   62  185 1    
   127   63  186 1    
   128   63  187 1    
   129   63  188 1    
   130   64   65 am   BACKBONE|DICT|INTERRES
   131   64  189 1    
   132   65   66 2    
   133   67   68 2    
   134   67   69 am   BACKBONE|DICT|INTERRES
   135   69   70 1    
   136   69  190 1    
   137   70   71 1    
   138   70   72 1    
   139   70  191 1    
   140   71  192 1    
   141   71  193 1    
   142   71  194 1    
   143   72   73 2    
   144   72   74 am   BACKBONE|DICT|INTERRES
   145   74   75 1    
   146   74  195 1    
   147   75   76 1    
   148   75   77 1    
   149   75  196 1    
   150   76  197 1    
   151   76  198 1    
   152   76  199 1    
   153   77   78 2    
   154   77   79 am   BACKBONE|DICT|INTERRES
   155   79   80 1    
   156   79  200 1    
   157   80   81 1    
   158   80   82 1    
   159   80  201 1    
   160   81  202 1    
   161   81  203 1    
   162   81  204 1    
   163   82   83 2    
   164   82   84 am   BACKBONE|DICT|INTERRES
   165   84   85 1    
   166   84  205 1    
   167   85   86 1    
   168   85   87 1    
   169   85  206 1    
   170   86  207 1    
   171   86  208 1    
   172   86  209 1    
   173   87   88 2    
   174   87   89 am   BACKBONE|DICT|INTERRES
   175   89   90 1    
   176   89  210 1    
   177   90   91 1    
   178   90   92 1    
   179   90  211 1    
   180   91  212 1    
   181   91  213 1    
   182   91  214 1    
   183   92   93 2    
   184   92   94 am   BACKBONE|DICT|INTERRES
   185   94   95 1    
   186   94  215 1    
   187   95   96 1    
   188   95   97 1    
   189   95  216 1    
   190   96  217 1    
   191   96  218 1    
   192   96  219 1    
   193   97   98 2    
   194   97   99 am   BACKBONE|DICT|INTERRES
   195   99  100 1    
   196   99  220 1    
   197  100  101 1    
   198  100  102 1    
   199  100  221 1    
   200  101  222 1    
   201  101  223 1    
   202  101  224 1    
   203  102  103 2    
   204  102  104 am   BACKBONE|DICT|INTERRES
   205  104  105 1    
   206  104  225 1    
   207  105  106 1    
   208  105  107 1    
   209  105  226 1    
   210  106  227 1    
   211  106  228 1    
   212  106  229 1    
   213  107  108 2    
   214  107  109 am   BACKBONE|DICT|INTERRES
   215  109  110 1    
   216  109  230 1    
   217  110  111 1    
   218  110  112 1    
   219  110  231 1    
   220  111  232 1    
   221  111  233 1    
   222  111  234 1    
   223  112  113 2    
   224  112  114 am   BACKBONE|DICT|INTERRES
   225  114  115 1    
   226  114  235 1    
   227  115  116 1    
   228  115  117 1    
   229  115  236 1    
   230  116  237 1    
   231  116  238 1    
   232  116  239 1    
   233  117  118 2    
   234  117  119 am   BACKBONE|DICT|INTERRES
   235  119  120 1    
   236  119  240 1    
   237  120  121 1    
   238  120  124 1    
   239  120  241 1    
   240  121  122 am   BACKBONE|DICT|INTERRES
   241  121  123 2    
   242  122  242 1    
   243  122  243 1    
   244  124  125 1    
   245  124  244 1    
   246  124  245 1    
   247  125  126 1    
   248  126  246 1    
   249  126  247 1    
@<TRIPOS>SUBSTRUCTURE
     1 UNK         1 GROUP             0       ****    0 ROOT    
