@<TRIPOS>MOLECULE
3R540
247   249    1
SMALL
USER_CHARGES


@<TRIPOS>ATOM
      1 CA          5.7286  -12.8597  -46.7367 C.3       0 UNK        -0.1800 
      2 C           4.5739  -13.8272  -46.9504 C.2       0 UNK         0.5000 
      3 O           4.5941  -14.9319  -46.4112 O.2       0 UNK        -0.5000 
      4 N           3.5672  -13.4135  -47.7304 N.am      1 UNK        -0.5000 
      5 CA          2.3866  -14.2173  -48.0801 C.3       1 UNK         0.1400 
      6 C6          1.5842  -13.5925  -49.2491 C.3       23 UNK        -0.0398 
      7 S7          2.6168  -13.3295  -50.7342 S.3       23 UNK        -0.2404 
      8 C8          1.6576  -14.1602  -52.0458 C.3       23 UNK        -0.0205 
      9 C9          1.4468  -15.6533  -51.8157 C.ar      23 UNK        -0.0193 
     10 C10         0.1865  -16.2151  -52.0441 C.ar      23 UNK        -0.1150 
     11 C11        -0.0288  -17.5833  -51.8583 C.ar      23 UNK        -0.0193 
     12 C12         1.0252  -18.3915  -51.4266 C.ar      23 UNK        -0.1150 
     13 C13         2.2880  -17.8427  -51.1844 C.ar      23 UNK        -0.0193 
     14 C14         2.4982  -16.4783  -51.4007 C.ar      23 UNK        -0.1150 
     15 C15         3.4103  -18.7174  -50.6430 C.3       23 UNK        -0.0205 
     16 S16         3.8132  -18.3660  -48.8925 S.3       23 UNK        -0.2404 
     17 C17         2.1759  -18.0830  -48.1361 C.3       23 UNK        -0.0398 
     18 CA          1.3397  -19.3824  -47.9879 C.3       11 UNK         0.1400 
     19 N           1.5540  -20.0235  -46.6935 N.am      11 UNK        -0.5000 
     20 C           1.7572  -21.3326  -46.5049 C.2       10 UNK         0.5000 
     21 O           1.7151  -22.1745  -47.4028 O.2       10 UNK        -0.5000 
     22 CA          2.0903  -21.7786  -45.0695 C.3       10 UNK         0.1400 
     23 CB          3.5414  -21.4231  -44.7079 C.3       10 UNK        -0.1800 
     24 N           1.1864  -21.1946  -44.0814 N.am      10 UNK        -0.5000 
     25 C          -0.0591  -21.6297  -43.8512 C.2       9 UNK         0.5000 
     26 O          -0.5568  -22.6045  -44.4153 O.2       9 UNK        -0.5000 
     27 CA         -0.8939  -20.8496  -42.8164 C.3       9 UNK         0.1400 
     28 CB         -0.6746  -21.4183  -41.4065 C.3       9 UNK        -0.1800 
     29 N          -0.6155  -19.4128  -42.8093 N.am      9 UNK        -0.5000 
     30 C          -0.8641  -18.5868  -43.8354 C.2       8 UNK         0.5000 
     31 O          -1.3962  -18.9405  -44.8850 O.2       8 UNK        -0.5000 
     32 CA         -0.3963  -17.1301  -43.6852 C.3       8 UNK         0.1400 
     33 CB         -1.4033  -16.3164  -42.8590 C.3       8 UNK        -0.1800 
     34 N           0.9329  -17.0264  -43.0838 N.am      8 UNK        -0.5000 
     35 C           2.0540  -17.5362  -43.6130 C.2       7 UNK         0.5000 
     36 O           2.0935  -18.1341  -44.6853 O.2       7 UNK        -0.5000 
     37 CA          3.3325  -17.4206  -42.7684 C.3       7 UNK         0.1400 
     38 CB          3.9475  -16.0177  -42.8808 C.3       7 UNK        -0.1800 
     39 N           3.0767  -17.7449  -41.3655 N.am      7 UNK        -0.5000 
     40 C           2.7874  -18.9757  -40.9186 C.2       6 UNK         0.5000 
     41 O           2.7547  -19.9741  -41.6377 O.2       6 UNK        -0.5000 
     42 CA          2.4436  -19.1040  -39.4231 C.3       6 UNK         0.1400 
     43 CB          3.7219  -19.2560  -38.5854 C.3       6 UNK        -0.1800 
     44 N           1.6694  -17.9661  -38.9238 N.am      6 UNK        -0.5000 
     45 C           0.4077  -17.6933  -39.2855 C.2       5 UNK         0.5000 
     46 O          -0.2479  -18.3911  -40.0587 O.2       5 UNK        -0.5000 
     47 CA         -0.1998  -16.3888  -38.7334 C.3       5 UNK         0.1400 
     48 CB         -0.7681  -16.6094  -37.3237 C.3       5 UNK        -0.1800 
     49 N           0.7508  -15.2707  -38.7096 N.am      5 UNK        -0.5000 
     50 C           1.3482  -14.7708  -39.7982 C.2       4 UNK         0.5000 
     51 O           1.1659  -15.2139  -40.9365 O.2       4 UNK        -0.5000 
     52 CA          2.3415  -13.6189  -39.5892 C.3       4 UNK         0.1400 
     53 CB          3.6322  -14.1129  -38.9112 C.3       4 UNK        -0.1800 
     54 N           2.6520  -13.0843  -40.9067 N.am      4 UNK        -0.5000 
     55 C           3.1091  -11.8686  -41.2121 C.2       3 UNK         0.5000 
     56 O           3.3945  -11.0133  -40.3731 O.2       3 UNK        -0.5000 
     57 CA          3.2743  -11.5553  -42.7153 C.3       3 UNK         0.1400 
     58 CB          4.7576  -11.5987  -43.1136 C.3       3 UNK        -0.1800 
     59 N           2.5250  -12.4582  -43.6001 N.am      3 UNK        -0.5000 
     60 C           1.1902  -12.4666  -43.7330 C.2       2 UNK         0.5000 
     61 O           0.4444  -11.6993  -43.1234 O.2       2 UNK        -0.5000 
     62 CA          0.6131  -13.4846  -44.7323 C.3       2 UNK         0.1400 
     63 CB         -0.8786  -13.2509  -45.0474 C.3       2 UNK        -0.1800 
     64 N           1.4049  -13.4721  -45.9596 N.am      2 UNK        -0.5000 
     65 C           1.4628  -14.4565  -46.8659 C.2       1 UNK         0.5000 
     66 O           0.8343  -15.5117  -46.7772 O.2       1 UNK        -0.5000 
     67 C          -0.1655  -19.1676  -48.2367 C.2       11 UNK         0.5000 
     68 O          -0.7873  -20.0325  -48.8547 O.2       11 UNK        -0.5000 
     69 N          -0.7135  -18.0140  -47.8163 N.am      12 UNK        -0.5000 
     70 CA         -2.0380  -17.5005  -48.1970 C.3       12 UNK         0.1400 
     71 CB         -2.3261  -16.2034  -47.4276 C.3       12 UNK        -0.1800 
     72 C          -3.2193  -18.4785  -48.0491 C.2       12 UNK         0.5000 
     73 O          -4.1182  -18.4679  -48.8913 O.2       12 UNK        -0.5000 
     74 N          -3.1798  -19.3328  -47.0189 N.am      13 UNK        -0.5000 
     75 CA         -4.1658  -20.3791  -46.7423 C.3       13 UNK         0.1400 
     76 CB         -3.8189  -21.0632  -45.4134 C.3       13 UNK        -0.1800 
     77 C          -4.3263  -21.4279  -47.8614 C.2       13 UNK         0.5000 
     78 O          -5.3704  -22.0771  -47.9139 O.2       13 UNK        -0.5000 
     79 N          -3.3381  -21.5547  -48.7624 N.am      14 UNK        -0.5000 
     80 CA         -3.4092  -22.4050  -49.9551 C.3       14 UNK         0.1400 
     81 CB         -2.0529  -22.4047  -50.6764 C.3       14 UNK        -0.1800 
     82 C          -4.5295  -22.0014  -50.9344 C.2       14 UNK         0.5000 
     83 O          -5.0091  -22.8526  -51.6809 O.2       14 UNK        -0.5000 
     84 N          -4.9574  -20.7300  -50.8946 N.am      15 UNK        -0.5000 
     85 CA         -6.0565  -20.2020  -51.7027 C.3       15 UNK         0.1400 
     86 CB         -6.1148  -18.6766  -51.5363 C.3       15 UNK        -0.1800 
     87 C          -7.4265  -20.8296  -51.3785 C.2       15 UNK         0.5000 
     88 O          -8.3024  -20.8229  -52.2443 O.2       15 UNK        -0.5000 
     89 N          -7.5930  -21.3737  -50.1622 N.am      16 UNK        -0.5000 
     90 CA         -8.7960  -22.0738  -49.7120 C.3       16 UNK         0.1400 
     91 CB         -8.6841  -22.3727  -48.2084 C.3       16 UNK        -0.1800 
     92 C          -9.0222  -23.3570  -50.5329 C.2       16 UNK         0.5000 
     93 O          -8.3292  -24.3533  -50.3207 O.2       16 UNK        -0.5000 
     94 N          -9.9546  -23.2720  -51.4918 N.am      17 UNK        -0.5000 
     95 CA        -10.3023  -24.2852  -52.4949 C.3       17 UNK         0.1400 
     96 CB        -10.8599  -25.5596  -51.8253 C.3       17 UNK        -0.1800 
     97 C          -9.1718  -24.5887  -53.5058 C.2       17 UNK         0.5000 
     98 O          -9.2329  -25.6227  -54.1726 O.2       17 UNK        -0.5000 
     99 N          -8.1901  -23.6769  -53.6229 N.am      18 UNK        -0.5000 
    100 CA        -7.0133  -23.7276  -54.5008 C.3       18 UNK         0.1400 
    101 CB        -7.4345  -23.4850  -55.9640 C.3       18 UNK        -0.1800 
    102 C         -6.2047  -25.0310  -54.3268 C.2       18 UNK         0.5000 
    103 O         -6.2147  -25.8975  -55.2056 O.2       18 UNK        -0.5000 
    104 N         -5.5468  -25.1652  -53.1697 N.am      19 UNK        -0.5000 
    105 CA        -4.7849  -26.3383  -52.7400 C.3       19 UNK         0.1400 
    106 CB        -4.6041  -26.2742  -51.2130 C.3       19 UNK        -0.1800 
    107 C         -3.4429  -26.4641  -53.4919 C.2       19 UNK         0.5000 
    108 O         -2.3782  -26.2618  -52.9059 O.2       19 UNK        -0.5000 
    109 N         -3.5367  -26.7671  -54.7943 N.am      20 UNK        -0.5000 
    110 CA        -2.4602  -26.9225  -55.7835 C.3       20 UNK         0.1400 
    111 CB        -1.4768  -28.0378  -55.3710 C.3       20 UNK        -0.1800 
    112 C         -1.7338  -25.6094  -56.1507 C.2       20 UNK         0.5000 
    113 O         -0.7629  -25.6462  -56.9088 O.2       20 UNK        -0.5000 
    114 N         -2.2259  -24.4746  -55.6455 N.am      21 UNK        -0.5000 
    115 CA        -1.7321  -23.1249  -55.8779 C.3       21 UNK         0.1400 
    116 CB        -0.4244  -22.8937  -55.0954 C.3       21 UNK        -0.1800 
    117 C         -2.8135  -22.1383  -55.4187 C.2       21 UNK         0.5000 
    118 O         -3.6765  -22.5085  -54.6189 O.2       21 UNK        -0.5000 
    119 N         -2.7244  -20.8977  -55.9120 N.am      22 UNK        -0.5000 
    120 CA        -3.5162  -19.7339  -55.4671 C.3       22 UNK         0.1400 
    121 C         -5.0487  -19.8206  -55.7461 C.2       22 UNK         0.5000 
    122 N         -5.5006  -20.6612  -56.6682 N.am      22 UNK        -0.7600 
    123 O         -5.8381  -19.0915  -55.1526 O.2       22 UNK        -0.5000 
    124 C124       -3.1848  -19.3196  -54.0041 C.3       23 UNK        -0.0398 
    125 S125       -1.4146  -18.9333  -53.7985 S.3       23 UNK        -0.2404 
    126 C126       -1.3931  -18.1916  -52.1407 C.3       23 UNK        -0.0205 
    127 H127        6.5941  -13.1776  -47.3174 H         1 UNK         0.0600 
    128 H128        6.0146  -12.8393  -45.6857 H         1 UNK         0.0600 
    129 H129        5.4669  -11.8454  -47.0375 H         1 UNK         0.0600 
    130 H130        3.6237  -12.5072  -48.1731 H         1 UNK         0.3000 
    131 H131        2.7464  -15.1943  -48.4078 H         1 UNK         0.0600 
    132 H132        0.7348  -14.2283  -49.5057 H         1 UNK         0.0800 
    133 H133        1.1631  -12.6289  -48.9569 H         1 UNK         0.0800 
    134 H134        2.1786  -14.0283  -52.9947 H         1 UNK         0.0800 
    135 H135        0.6999  -13.6472  -52.1475 H         1 UNK         0.0800 
    136 H136       -0.6279  -15.5893  -52.3814 H         1 UNK         0.1150 
    137 H137        0.8546  -19.4480  -51.2719 H         1 UNK         0.1150 
    138 H138        3.4761  -16.0556  -51.2171 H         1 UNK         0.1150 
    139 H139        3.1509  -19.7728  -50.7391 H         1 UNK         0.0800 
    140 H140        4.3061  -18.5714  -51.2481 H         1 UNK         0.0800 
    141 H141        1.6634  -17.3234  -48.7257 H         1 UNK         0.0800 
    142 H142        2.3410  -17.6145  -47.1668 H         1 UNK         0.0800 
    143 H143        1.6565  -20.0660  -48.7778 H         1 UNK         0.0600 
    144 H144        1.6254  -19.3962  -45.8942 H         1 UNK         0.3000 
    145 H145        1.9965  -22.8660  -45.0272 H         1 UNK         0.0600 
    146 H146        3.8033  -21.7992  -43.7187 H         1 UNK         0.0600 
    147 H147        4.2400  -21.8638  -45.4201 H         1 UNK         0.0600 
    148 H148        3.7082  -20.3457  -44.7086 H         1 UNK         0.0600 
    149 H149        1.5345  -20.4059  -43.5514 H         1 UNK         0.3000 
    150 H150       -1.9461  -20.9833  -43.0725 H         1 UNK         0.0600 
    151 H151       -0.8937  -22.4864  -41.3769 H         1 UNK         0.0600 
    152 H152       -1.3264  -20.9329  -40.6799 H         1 UNK         0.0600 
    153 H153        0.3552  -21.2843  -41.0746 H         1 UNK         0.0600 
    154 H154       -0.2297  -19.0281  -41.9527 H         1 UNK         0.3000 
    155 H155       -0.3426  -16.6953  -44.6845 H         1 UNK         0.0600 
    156 H156       -1.5287  -16.7282  -41.8575 H         1 UNK         0.0600 
    157 H157       -2.3833  -16.3106  -43.3376 H         1 UNK         0.0600 
    158 H158       -1.0862  -15.2798  -42.7514 H         1 UNK         0.0600 
    159 H159        0.9934  -16.5248  -42.2009 H         1 UNK         0.3000 
    160 H160        4.0582  -18.1385  -43.1568 H         1 UNK         0.0600 
    161 H161        4.8495  -15.9292  -42.2752 H         1 UNK         0.0600 
    162 H162        3.2526  -15.2425  -42.5657 H         1 UNK         0.0600 
    163 H163        4.2269  -15.8030  -43.9122 H         1 UNK         0.0600 
    164 H164        3.0353  -16.9733  -40.7179 H         1 UNK         0.3000 
    165 H165        1.8428  -20.0072  -39.2964 H         1 UNK         0.0600 
    166 H166        3.4865  -19.4229  -37.5341 H         1 UNK         0.0600 
    167 H167        4.3111  -20.1089  -38.9248 H         1 UNK         0.0600 
    168 H168        4.3563  -18.3712  -38.6516 H         1 UNK         0.0600 
    169 H169        2.1346  -17.3396  -38.2839 H         1 UNK         0.3000 
    170 H170       -1.0247  -16.1083  -39.3917 H         1 UNK         0.0600 
    171 H171       -1.4909  -17.4264  -37.3179 H         1 UNK         0.0600 
    172 H172        0.0150  -16.8585  -36.6066 H         1 UNK         0.0600 
    173 H173       -1.2836  -15.7193  -36.9627 H         1 UNK         0.0600 
    174 H174        0.9486  -14.8637  -37.8066 H         1 UNK         0.3000 
    175 H175        1.8636  -12.8477  -38.9820 H         1 UNK         0.0600 
    176 H176        3.4280  -14.5231  -37.9217 H         1 UNK         0.0600 
    177 H177        4.3451  -13.2987  -38.7800 H         1 UNK         0.0600 
    178 H178        4.1217  -14.8915  -39.4977 H         1 UNK         0.0600 
    179 H179        2.3696  -13.7000  -41.6578 H         1 UNK         0.3000 
    180 H180        2.9089  -10.5386  -42.8746 H         1 UNK         0.0600 
    181 H181        5.1691  -12.6051  -43.0261 H         1 UNK         0.0600 
    182 H182        5.3544  -10.9433  -42.4778 H         1 UNK         0.0600 
    183 H183        4.8972  -11.2630  -44.1409 H         1 UNK         0.0600 
    184 H184        3.0697  -13.1236  -44.1292 H         1 UNK         0.3000 
    185 H185        0.7197  -14.4630  -44.2630 H         1 UNK         0.0600 
    186 H186       -1.4788  -13.2413  -44.1370 H         1 UNK         0.0600 
    187 H187       -1.0345  -12.2989  -45.5558 H         1 UNK         0.0600 
    188 H188       -1.2788  -14.0395  -45.6827 H         1 UNK         0.0600 
    189 H189        1.9576  -12.6405  -46.1169 H         1 UNK         0.3000 
    190 H190       -0.1349  -17.3634  -47.2964 H         1 UNK         0.3000 
    191 H191       -1.9770  -17.2487  -49.2572 H         1 UNK         0.0600 
    192 H192       -2.2519  -16.3520  -46.3499 H         1 UNK         0.0600 
    193 H193       -3.3291  -15.8309  -47.6406 H         1 UNK         0.0600 
    194 H194       -1.6289  -15.4164  -47.7124 H         1 UNK         0.0600 
    195 H195       -2.4100  -19.2510  -46.3557 H         1 UNK         0.3000 
    196 H196       -5.1339  -19.8879  -46.6271 H         1 UNK         0.0600 
    197 H197       -4.5446  -21.8393  -45.1670 H         1 UNK         0.0600 
    198 H198       -3.8180  -20.3476  -44.5913 H         1 UNK         0.0600 
    199 H199       -2.8359  -21.5321  -45.4559 H         1 UNK         0.0600 
    200 H200       -2.5043  -20.9807  -48.6650 H         1 UNK         0.3000 
    201 H201       -3.6179  -23.4220  -49.6187 H         1 UNK         0.0600 
    202 H202       -1.2512  -22.7305  -50.0136 H         1 UNK         0.0600 
    203 H203       -1.7970  -21.4130  -51.0506 H         1 UNK         0.0600 
    204 H204       -2.0664  -23.0827  -51.5315 H         1 UNK         0.0600 
    205 H205       -4.5381  -20.0907  -50.2282 H         1 UNK         0.3000 
    206 H206       -5.8375  -20.4286  -52.7474 H         1 UNK         0.0600 
    207 H207       -5.1557  -18.2130  -51.7652 H         1 UNK         0.0600 
    208 H208       -6.8556  -18.2408  -52.2078 H         1 UNK         0.0600 
    209 H209       -6.3860  -18.3946  -50.5182 H         1 UNK         0.0600 
    210 H210       -6.8014  -21.4005  -49.5317 H         1 UNK         0.3000 
    211 H211       -9.6479  -21.4055  -49.8542 H         1 UNK         0.0600 
    212 H212       -7.8576  -23.0496  -47.9899 H         1 UNK         0.0600 
    213 H213       -9.5961  -22.8419  -47.8376 H         1 UNK         0.0600 
    214 H214       -8.5295  -21.4596  -47.6333 H         1 UNK         0.0600 
    215 H215      -10.4211  -22.3825  -51.6095 H         1 UNK         0.3000 
    216 H216      -11.1110  -23.8503  -53.0838 H         1 UNK         0.0600 
    217 H217      -11.2854  -26.2372  -52.5663 H         1 UNK         0.0600 
    218 H218      -11.6526  -25.3193  -51.1168 H         1 UNK         0.0600 
    219 H219      -10.0855  -26.1097  -51.2902 H         1 UNK         0.0600 
    220 H220       -8.2521  -22.8559  -53.0327 H         1 UNK         0.3000 
    221 H221       -6.3632  -22.9031  -54.2034 H         1 UNK         0.0600 
    222 H222       -6.5632  -23.4695  -56.6198 H         1 UNK         0.0600 
    223 H223       -7.9421  -22.5267  -56.0720 H         1 UNK         0.0600 
    224 H224       -8.1058  -24.2624  -56.3301 H         1 UNK         0.0600 
    225 H225       -5.5091  -24.3607  -52.5443 H         1 UNK         0.3000 
    226 H226       -5.3724  -27.2309  -52.9645 H         1 UNK         0.0600 
    227 H227       -4.0897  -27.1617  -50.8426 H         1 UNK         0.0600 
    228 H228       -4.0169  -25.4057  -50.9148 H         1 UNK         0.0600 
    229 H229       -5.5666  -26.2172  -50.7034 H         1 UNK         0.0600 
    230 H230       -4.4795  -26.8087  -55.1734 H         1 UNK         0.3000 
    231 H231       -2.9537  -27.2495  -56.6999 H         1 UNK         0.0600 
    232 H232       -2.0046  -28.9597  -55.1271 H         1 UNK         0.0600 
    233 H233       -0.8778  -27.7532  -54.5054 H         1 UNK         0.0600 
    234 H234       -0.7842  -28.2673  -56.1818 H         1 UNK         0.0600 
    235 H235       -3.0368  -24.5111  -55.0398 H         1 UNK         0.3000 
    236 H236       -1.5584  -22.9859  -56.9471 H         1 UNK         0.0600 
    237 H237        0.3667  -23.5651  -55.4296 H         1 UNK         0.0600 
    238 H238       -0.0598  -21.8746  -55.2300 H         1 UNK         0.0600 
    239 H239       -0.5673  -23.0514  -54.0251 H         1 UNK         0.0600 
    240 H240       -1.9909  -20.6903  -56.5745 H         1 UNK         0.3000 
    241 H241       -3.1897  -18.9111  -56.1044 H         1 UNK         0.0600 
    242 H242       -6.4876  -20.6930  -56.8652 H         1 UNK         0.3800 
    243 H243       -4.8639  -21.2518  -57.1783 H         1 UNK         0.3800 
    244 H244       -3.4582  -20.1093  -53.3039 H         1 UNK         0.0800 
    245 H245       -3.7543  -18.4338  -53.7195 H         1 UNK         0.0800 
    246 H246       -2.1704  -17.4295  -52.0663 H         1 UNK         0.0800 
    247 H247       -1.6291  -18.9516  -51.3941 H         1 UNK         0.0800 
@<TRIPOS>BOND
     1    1    2 1    
     2    1  127 1    
     3    1  128 1    
     4    1  129 1    
     5    2    3 2    
     6    2    4 am   BACKBONE|DICT|INTERRES
     7    4    5 1    
     8    4  130 1    
     9    5    6 1    
    10    5   65 1    
    11    5  131 1    
    12    6    7 1    
    13    6  132 1    
    14    6  133 1    
    15    7    8 1    
    16    8    9 1    
    17    8  134 1    
    18    8  135 1    
    19    9   10 ar   
    20    9   14 ar   
    21   10   11 ar   
    22   10  136 1    
    23   11   12 ar   
    24   11  126 1    
    25   12   13 ar   
    26   12  137 1    
    27   13   14 ar   
    28   13   15 1    
    29   14  138 1    
    30   15   16 1    
    31   15  139 1    
    32   15  140 1    
    33   16   17 1    
    34   17   18 1    
    35   17  141 1    
    36   17  142 1    
    37   18   19 1    
    38   18   67 1    
    39   18  143 1    
    40   19   20 am   BACKBONE|DICT|INTERRES
    41   19  144 1    
    42   20   21 2    
    43   20   22 1    
    44   22   23 1    
    45   22   24 1    
    46   22  145 1    
    47   23  146 1    
    48   23  147 1    
    49   23  148 1    
    50   24   25 am   BACKBONE|DICT|INTERRES
    51   24  149 1    
    52   25   26 2    
    53   25   27 1    
    54   27   28 1    
    55   27   29 1    
    56   27  150 1    
    57   28  151 1    
    58   28  152 1    
    59   28  153 1    
    60   29   30 am   BACKBONE|DICT|INTERRES
    61   29  154 1    
    62   30   31 2    
    63   30   32 1    
    64   32   33 1    
    65   32   34 1    
    66   32  155 1    
    67   33  156 1    
    68   33  157 1    
    69   33  158 1    
    70   34   35 am   BACKBONE|DICT|INTERRES
    71   34  159 1    
    72   35   36 2    
    73   35   37 1    
    74   37   38 1    
    75   37   39 1    
    76   37  160 1    
    77   38  161 1    
    78   38  162 1    
    79   38  163 1    
    80   39   40 am   BACKBONE|DICT|INTERRES
    81   39  164 1    
    82   40   41 2    
    83   40   42 1    
    84   42   43 1    
    85   42   44 1    
    86   42  165 1    
    87   43  166 1    
    88   43  167 1    
    89   43  168 1    
    90   44   45 am   BACKBONE|DICT|INTERRES
    91   44  169 1    
    92   45   46 2    
    93   45   47 1    
    94   47   48 1    
    95   47   49 1    
    96   47  170 1    
    97   48  171 1    
    98   48  172 1    
    99   48  173 1    
   100   49   50 am   BACKBONE|DICT|INTERRES
   101   49  174 1    
   102   50   51 2    
   103   50   52 1    
   104   52   53 1    
   105   52   54 1    
   106   52  175 1    
   107   53  176 1    
   108   53  177 1    
   109   53  178 1    
   110   54   55 am   BACKBONE|DICT|INTERRES
   111   54  179 1    
   112   55   56 2    
   113   55   57 1    
   114   57   58 1    
   115   57   59 1    
   116   57  180 1    
   117   58  181 1    
   118   58  182 1    
   119   58  183 1    
   120   59   60 am   BACKBONE|DICT|INTERRES
   121   59  184 1    
   122   60   61 2    
   123   60   62 1    
   124   62   63 1    
   125   62   64 1    
   126   62  185 1    
   127   63  186 1    
   128   63  187 1    
   129   63  188 1    
   130   64   65 am   BACKBONE|DICT|INTERRES
   131   64  189 1    
   132   65   66 2    
   133   67   68 2    
   134   67   69 am   BACKBONE|DICT|INTERRES
   135   69   70 1    
   136   69  190 1    
   137   70   71 1    
   138   70   72 1    
   139   70  191 1    
   140   71  192 1    
   141   71  193 1    
   142   71  194 1    
   143   72   73 2    
   144   72   74 am   BACKBONE|DICT|INTERRES
   145   74   75 1    
   146   74  195 1    
   147   75   76 1    
   148   75   77 1    
   149   75  196 1    
   150   76  197 1    
   151   76  198 1    
   152   76  199 1    
   153   77   78 2    
   154   77   79 am   BACKBONE|DICT|INTERRES
   155   79   80 1    
   156   79  200 1    
   157   80   81 1    
   158   80   82 1    
   159   80  201 1    
   160   81  202 1    
   161   81  203 1    
   162   81  204 1    
   163   82   83 2    
   164   82   84 am   BACKBONE|DICT|INTERRES
   165   84   85 1    
   166   84  205 1    
   167   85   86 1    
   168   85   87 1    
   169   85  206 1    
   170   86  207 1    
   171   86  208 1    
   172   86  209 1    
   173   87   88 2    
   174   87   89 am   BACKBONE|DICT|INTERRES
   175   89   90 1    
   176   89  210 1    
   177   90   91 1    
   178   90   92 1    
   179   90  211 1    
   180   91  212 1    
   181   91  213 1    
   182   91  214 1    
   183   92   93 2    
   184   92   94 am   BACKBONE|DICT|INTERRES
   185   94   95 1    
   186   94  215 1    
   187   95   96 1    
   188   95   97 1    
   189   95  216 1    
   190   96  217 1    
   191   96  218 1    
   192   96  219 1    
   193   97   98 2    
   194   97   99 am   BACKBONE|DICT|INTERRES
   195   99  100 1    
   196   99  220 1    
   197  100  101 1    
   198  100  102 1    
   199  100  221 1    
   200  101  222 1    
   201  101  223 1    
   202  101  224 1    
   203  102  103 2    
   204  102  104 am   BACKBONE|DICT|INTERRES
   205  104  105 1    
   206  104  225 1    
   207  105  106 1    
   208  105  107 1    
   209  105  226 1    
   210  106  227 1    
   211  106  228 1    
   212  106  229 1    
   213  107  108 2    
   214  107  109 am   BACKBONE|DICT|INTERRES
   215  109  110 1    
   216  109  230 1    
   217  110  111 1    
   218  110  112 1    
   219  110  231 1    
   220  111  232 1    
   221  111  233 1    
   222  111  234 1    
   223  112  113 2    
   224  112  114 am   BACKBONE|DICT|INTERRES
   225  114  115 1    
   226  114  235 1    
   227  115  116 1    
   228  115  117 1    
   229  115  236 1    
   230  116  237 1    
   231  116  238 1    
   232  116  239 1    
   233  117  118 2    
   234  117  119 am   BACKBONE|DICT|INTERRES
   235  119  120 1    
   236  119  240 1    
   237  120  121 1    
   238  120  124 1    
   239  120  241 1    
   240  121  122 am   BACKBONE|DICT|INTERRES
   241  121  123 2    
   242  122  242 1    
   243  122  243 1    
   244  124  125 1    
   245  124  244 1    
   246  124  245 1    
   247  125  126 1    
   248  126  246 1    
   249  126  247 1    
@<TRIPOS>SUBSTRUCTURE
     1 UNK         1 GROUP             0       ****    0 ROOT    
