@<TRIPOS>MOLECULE
3R540
247   249    1
SMALL
USER_CHARGES


@<TRIPOS>ATOM
      1 CA         -7.8941  -21.3789  -44.3789 C.3       0 UNK        -0.1800 
      2 C          -7.3048  -20.1127  -44.9832 C.2       0 UNK         0.5000 
      3 O          -8.0364  -19.3279  -45.5870 O.2       0 UNK        -0.5000 
      4 N          -5.9877  -19.9214  -44.8391 N.am      1 UNK        -0.5000 
      5 CA         -5.2368  -18.7618  -45.3324 C.3       1 UNK         0.1400 
      6 C6         -3.7080  -18.9926  -45.2807 C.3       23 UNK        -0.0398 
      7 S7         -3.1471  -20.2952  -46.4228 S.3       23 UNK        -0.2404 
      8 C8         -2.2926  -19.3125  -47.7029 C.3       23 UNK        -0.0205 
      9 C9         -1.7145  -20.1468  -48.8448 C.ar      23 UNK        -0.0193 
     10 C10        -1.6745  -19.6125  -50.1371 C.ar      23 UNK        -0.1150 
     11 C11        -1.1166  -20.3368  -51.1987 C.ar      23 UNK        -0.0193 
     12 C12        -0.6043  -21.6142  -50.9534 C.ar      23 UNK        -0.1150 
     13 C13        -0.6472  -22.1711  -49.6723 C.ar      23 UNK        -0.0193 
     14 C14        -1.2001  -21.4300  -48.6260 C.ar      23 UNK        -0.1150 
     15 C15        -0.1421  -23.5895  -49.4355 C.3       23 UNK        -0.0205 
     16 S16         1.3490  -23.6484  -48.3849 S.3       23 UNK        -0.2404 
     17 C17         0.6160  -23.8757  -46.7269 C.3       23 UNK        -0.0398 
     18 CA          1.5987  -24.4834  -45.6979 C.3       11 UNK         0.1400 
     19 N           2.7327  -23.5848  -45.4591 N.am      11 UNK        -0.5000 
     20 C           3.9385  -23.9544  -45.0116 C.2       10 UNK         0.5000 
     21 O           4.2238  -25.1057  -44.6817 O.2       10 UNK        -0.5000 
     22 CA          4.9985  -22.8445  -44.9082 C.3       10 UNK         0.1400 
     23 CB          5.6112  -22.5469  -46.2861 C.3       10 UNK        -0.1800 
     24 N           4.4349  -21.6134  -44.3545 N.am      10 UNK        -0.5000 
     25 C           4.3363  -21.3493  -43.0447 C.2       9 UNK         0.5000 
     26 O           4.7444  -22.1069  -42.1639 O.2       9 UNK        -0.5000 
     27 CA          3.6618  -20.0217  -42.6417 C.3       9 UNK         0.1400 
     28 CB          4.7076  -18.9021  -42.5301 C.3       9 UNK        -0.1800 
     29 N           2.6036  -19.5923  -43.5561 N.am      9 UNK        -0.5000 
     30 C           1.4743  -20.2717  -43.7958 C.2       8 UNK         0.5000 
     31 O           1.1824  -21.3316  -43.2473 O.2       8 UNK        -0.5000 
     32 CA          0.5312  -19.6982  -44.8666 C.3       8 UNK         0.1400 
     33 CB         -0.3603  -18.6165  -44.2420 C.3       8 UNK        -0.1800 
     34 N           1.2397  -19.1527  -46.0263 N.am      8 UNK        -0.5000 
     35 C           2.1226  -19.8250  -46.7809 C.2       7 UNK         0.5000 
     36 O           2.4537  -20.9905  -46.5713 O.2       7 UNK        -0.5000 
     37 CA          2.8050  -19.0432  -47.9106 C.3       7 UNK         0.1400 
     38 CB          1.9012  -18.9506  -49.1451 C.3       7 UNK        -0.1800 
     39 N           3.1693  -17.7011  -47.4640 N.am      7 UNK        -0.5000 
     40 C           4.2680  -17.4197  -46.7503 C.2       6 UNK         0.5000 
     41 O           5.1347  -18.2486  -46.4713 O.2       6 UNK        -0.5000 
     42 CA          4.4122  -15.9727  -46.2401 C.3       6 UNK         0.1400 
     43 CB          5.1316  -15.1023  -47.2814 C.3       6 UNK        -0.1800 
     44 N           3.1300  -15.3531  -45.8981 N.am      6 UNK        -0.5000 
     45 C           2.3406  -15.7512  -44.8909 C.2       5 UNK         0.5000 
     46 O           2.6262  -16.6696  -44.1224 O.2       5 UNK        -0.5000 
     47 CA          0.9874  -15.0279  -44.7404 C.3       5 UNK         0.1400 
     48 CB          1.1384  -13.7955  -43.8366 C.3       5 UNK        -0.1800 
     49 N           0.3579  -14.6243  -46.0027 N.am      5 UNK        -0.5000 
     50 C           0.0712  -15.4305  -47.0356 C.2       4 UNK         0.5000 
     51 O           0.3891  -16.6196  -47.0830 O.2       4 UNK        -0.5000 
     52 CA         -0.7126  -14.7779  -48.1919 C.3       4 UNK         0.1400 
     53 CB         -1.0178  -15.7547  -49.3490 C.3       4 UNK        -0.1800 
     54 N          -1.9310  -14.1128  -47.7087 N.am      4 UNK        -0.5000 
     55 C          -2.9896  -14.7019  -47.1329 C.2       3 UNK         0.5000 
     56 O          -3.1072  -15.9223  -46.9885 O.2       3 UNK        -0.5000 
     57 CA         -4.1108  -13.7716  -46.6354 C.3       3 UNK         0.1400 
     58 CB         -4.6962  -12.8947  -47.7586 C.3       3 UNK        -0.1800 
     59 N          -5.1649  -14.6028  -46.0703 N.am      3 UNK        -0.5000 
     60 C          -6.0058  -14.2887  -45.0805 C.2       2 UNK         0.5000 
     61 O          -6.0379  -13.1850  -44.5350 O.2       2 UNK        -0.5000 
     62 CA         -6.9795  -15.3970  -44.6240 C.3       2 UNK         0.1400 
     63 CB         -8.4033  -15.0983  -45.1187 C.3       2 UNK        -0.1800 
     64 N          -6.5869  -16.7269  -45.1015 N.am      2 UNK        -0.5000 
     65 C          -5.6181  -17.4783  -44.5635 C.2       1 UNK         0.5000 
     66 O          -5.0289  -17.1868  -43.5210 O.2       1 UNK        -0.5000 
     67 C           0.8436  -24.8750  -44.4047 C.2       11 UNK         0.5000 
     68 O          -0.0547  -25.7148  -44.4717 O.2       11 UNK        -0.5000 
     69 N           1.1818  -24.2494  -43.2664 N.am      12 UNK        -0.5000 
     70 CA          0.5244  -24.3622  -41.9561 C.3       12 UNK         0.1400 
     71 CB          0.6857  -25.7812  -41.3723 C.3       12 UNK        -0.1800 
     72 C          -0.9432  -23.8796  -41.9942 C.2       12 UNK         0.5000 
     73 O          -1.8169  -24.4750  -41.3623 O.2       12 UNK        -0.5000 
     74 N          -1.1714  -22.8115  -42.7717 N.am      13 UNK        -0.5000 
     75 CA         -2.4347  -22.1227  -43.0617 C.3       13 UNK         0.1400 
     76 CB         -2.9926  -21.4543  -41.7900 C.3       13 UNK        -0.1800 
     77 C          -3.5062  -22.9646  -43.7911 C.2       13 UNK         0.5000 
     78 O          -4.6233  -22.4767  -43.9729 O.2       13 UNK        -0.5000 
     79 N          -3.1589  -24.1868  -44.2097 N.am      14 UNK        -0.5000 
     80 CA         -4.0092  -25.1001  -44.9678 C.3       14 UNK         0.1400 
     81 CB         -3.7161  -26.5317  -44.4895 C.3       14 UNK        -0.1800 
     82 C          -3.7366  -24.9697  -46.4763 C.2       14 UNK         0.5000 
     83 O          -2.7364  -24.3686  -46.8703 O.2       14 UNK        -0.5000 
     84 N          -4.6247  -25.5628  -47.2904 N.am      15 UNK        -0.5000 
     85 CA         -4.5522  -25.6481  -48.7586 C.3       15 UNK         0.1400 
     86 CB         -3.4095  -26.5944  -49.1842 C.3       15 UNK        -0.1800 
     87 C          -4.4772  -24.2667  -49.4469 C.2       15 UNK         0.5000 
     88 O          -3.7330  -24.0883  -50.4128 O.2       15 UNK        -0.5000 
     89 N          -5.2378  -23.3108  -48.8997 N.am      16 UNK        -0.5000 
     90 CA         -5.2235  -21.9008  -49.2712 C.3       16 UNK         0.1400 
     91 CB         -6.0980  -21.1280  -48.2745 C.3       16 UNK        -0.1800 
     92 C          -5.7093  -21.6405  -50.7065 C.2       16 UNK         0.5000 
     93 O          -6.7019  -22.2296  -51.1414 O.2       16 UNK        -0.5000 
     94 N          -5.0326  -20.7076  -51.3796 N.am      17 UNK        -0.5000 
     95 CA         -5.3891  -20.1680  -52.6890 C.3       17 UNK         0.1400 
     96 CB         -4.9415  -21.1262  -53.8110 C.3       17 UNK        -0.1800 
     97 C          -4.7921  -18.7559  -52.8075 C.2       17 UNK         0.5000 
     98 O          -4.1769  -18.4237  -53.8189 O.2       17 UNK        -0.5000 
     99 N          -4.9602  -17.9580  -51.7417 N.am      18 UNK        -0.5000 
    100 CA        -4.3041  -16.6672  -51.4916 C.3       18 UNK         0.1400 
    101 CB        -4.6959  -16.1921  -50.0845 C.3       18 UNK        -0.1800 
    102 C         -4.5479  -15.5520  -52.5318 C.2       18 UNK         0.5000 
    103 O         -3.8695  -14.5259  -52.4802 O.2       18 UNK        -0.5000 
    104 N         -5.4967  -15.7588  -53.4538 N.am      19 UNK        -0.5000 
    105 CA        -5.7167  -14.9099  -54.6253 C.3       19 UNK         0.1400 
    106 CB        -7.0849  -15.2526  -55.2349 C.3       19 UNK        -0.1800 
    107 C         -4.6028  -15.0443  -55.6869 C.2       19 UNK         0.5000 
    108 O         -4.4216  -14.1240  -56.4859 O.2       19 UNK        -0.5000 
    109 N         -3.8875  -16.1782  -55.6902 N.am      20 UNK        -0.5000 
    110 CA        -2.7435  -16.4434  -56.5601 C.3       20 UNK         0.1400 
    111 CB        -2.5281  -17.9649  -56.6348 C.3       20 UNK        -0.1800 
    112 C         -1.4646  -15.7458  -56.0582 C.2       20 UNK         0.5000 
    113 O         -1.4013  -15.2851  -54.9156 O.2       20 UNK        -0.5000 
    114 N         -0.4390  -15.7197  -56.9171 N.am      21 UNK        -0.5000 
    115 CA         0.9142  -15.2731  -56.5884 C.3       21 UNK         0.1400 
    116 CB         1.6178  -14.8267  -57.8828 C.3       21 UNK        -0.1800 
    117 C          1.6738  -16.3986  -55.8571 C.2       21 UNK         0.5000 
    118 O          2.5074  -17.0769  -56.4604 O.2       21 UNK        -0.5000 
    119 N          1.3246  -16.6107  -54.5827 N.am      22 UNK        -0.5000 
    120 CA         1.8315  -17.7024  -53.7309 C.3       22 UNK         0.1400 
    121 C          3.3400  -17.6115  -53.3514 C.2       22 UNK         0.5000 
    122 N          4.0039  -16.4746  -53.5210 N.am      22 UNK        -0.7600 
    123 O          3.9181  -18.5938  -52.8953 O.2       22 UNK        -0.5000 
    124 C124        0.9772  -17.8915  -52.4503 C.3       23 UNK        -0.0398 
    125 S125       -0.8140  -18.0017  -52.7650 S.3       23 UNK        -0.2404 
    126 C126       -1.1047  -19.7955  -52.6279 C.3       23 UNK        -0.0205 
    127 H127       -7.2096  -21.8449  -43.6703 H         1 UNK         0.0600 
    128 H128       -8.1175  -22.0997  -45.1653 H         1 UNK         0.0600 
    129 H129       -8.8193  -21.1494  -43.8504 H         1 UNK         0.0600 
    130 H130       -5.4389  -20.6462  -44.3872 H         1 UNK         0.3000 
    131 H131       -5.5059  -18.6096  -46.3799 H         1 UNK         0.0600 
    132 H132       -3.1759  -18.0710  -45.5181 H         1 UNK         0.0800 
    133 H133       -3.4016  -19.2645  -44.2701 H         1 UNK         0.0800 
    134 H134       -2.9968  -18.5780  -48.0957 H         1 UNK         0.0800 
    135 H135       -1.4791  -18.7487  -47.2460 H         1 UNK         0.0800 
    136 H136       -2.0764  -18.6262  -50.3152 H         1 UNK         0.1150 
    137 H137       -0.1897  -22.1887  -51.7697 H         1 UNK         0.1150 
    138 H138       -1.2407  -21.8651  -47.6400 H         1 UNK         0.1150 
    139 H139       -0.9442  -24.1868  -49.0009 H         1 UNK         0.0800 
    140 H140        0.0971  -24.0654  -50.3874 H         1 UNK         0.0800 
    141 H141        0.2372  -22.9187  -46.3672 H         1 UNK         0.0800 
    142 H142       -0.2443  -24.5338  -46.8408 H         1 UNK         0.0800 
    143 H143        1.9865  -25.4139  -46.1178 H         1 UNK         0.0600 
    144 H144        2.6055  -22.6229  -45.7690 H         1 UNK         0.3000 
    145 H145        5.7995  -23.2020  -44.2575 H         1 UNK         0.0600 
    146 H146        6.3907  -21.7883  -46.2143 H         1 UNK         0.0600 
    147 H147        4.8636  -22.1907  -46.9957 H         1 UNK         0.0600 
    148 H148        6.0658  -23.4424  -46.7115 H         1 UNK         0.0600 
    149 H149        4.0223  -20.9674  -45.0151 H         1 UNK         0.3000 
    150 H150        3.2104  -20.1684  -41.6584 H         1 UNK         0.0600 
    151 H151        5.5107  -19.1810  -41.8466 H         1 UNK         0.0600 
    152 H152        4.2614  -17.9831  -42.1494 H         1 UNK         0.0600 
    153 H153        5.1595  -18.6781  -43.4974 H         1 UNK         0.0600 
    154 H154        2.7298  -18.6916  -44.0071 H         1 UNK         0.3000 
    155 H155       -0.1057  -20.5058  -45.2329 H         1 UNK         0.0600 
    156 H156       -1.0792  -19.0592  -43.5527 H         1 UNK         0.0600 
    157 H157       -0.9170  -18.0646  -44.9975 H         1 UNK         0.0600 
    158 H158        0.2245  -17.8980  -43.6697 H         1 UNK         0.0600 
    159 H159        1.0057  -18.2012  -46.2978 H         1 UNK         0.3000 
    160 H160        3.7089  -19.5846  -48.1984 H         1 UNK         0.0600 
    161 H161        0.9607  -18.4421  -48.9321 H         1 UNK         0.0600 
    162 H162        1.6563  -19.9440  -49.5234 H         1 UNK         0.0600 
    163 H163        2.4062  -18.4084  -49.9433 H         1 UNK         0.0600 
    164 H164        2.4654  -16.9840  -47.5812 H         1 UNK         0.3000 
    165 H165        5.0246  -16.0012  -45.3362 H         1 UNK         0.0600 
    166 H166        5.3096  -14.0966  -46.9002 H         1 UNK         0.0600 
    167 H167        6.1025  -15.5268  -47.5407 H         1 UNK         0.0600 
    168 H168        4.5544  -15.0162  -48.2029 H         1 UNK         0.0600 
    169 H169        2.8179  -14.5917  -46.4824 H         1 UNK         0.3000 
    170 H170        0.2989  -15.7158  -44.2501 H         1 UNK         0.0600 
    171 H171        1.7781  -13.0383  -44.2917 H         1 UNK         0.0600 
    172 H172        0.1713  -13.3377  -43.6275 H         1 UNK         0.0600 
    173 H173        1.5814  -14.0661  -42.8771 H         1 UNK         0.0600 
    174 H174        0.0548  -13.6630  -46.0556 H         1 UNK         0.3000 
    175 H175       -0.0689  -13.9941  -48.5935 H         1 UNK         0.0600 
    176 H176       -0.0972  -16.1641  -49.7654 H         1 UNK         0.0600 
    177 H177       -1.6249  -16.5987  -49.0240 H         1 UNK         0.0600 
    178 H178       -1.5458  -15.2543  -50.1605 H         1 UNK         0.0600 
    179 H179       -1.9325  -13.1056  -47.7882 H         1 UNK         0.3000 
    180 H180       -3.6901  -13.1354  -45.8542 H         1 UNK         0.0600 
    181 H181       -3.9361  -12.2553  -48.2077 H         1 UNK         0.0600 
    182 H182       -5.4780  -12.2390  -47.3749 H         1 UNK         0.0600 
    183 H183       -5.1338  -13.4981  -48.5539 H         1 UNK         0.0600 
    184 H184       -5.1457  -15.5570  -46.4051 H         1 UNK         0.3000 
    185 H185       -6.9897  -15.4003  -43.5320 H         1 UNK         0.0600 
    186 H186       -8.7495  -14.1304  -44.7536 H         1 UNK         0.0600 
    187 H187       -8.4547  -15.0759  -46.2080 H         1 UNK         0.0600 
    188 H188       -9.1094  -15.8496  -44.7642 H         1 UNK         0.0600 
    189 H189       -7.0849  -17.0833  -45.9063 H         1 UNK         0.3000 
    190 H190        1.8820  -23.5221  -43.3339 H         1 UNK         0.3000 
    191 H191        1.0510  -23.6733  -41.2942 H         1 UNK         0.0600 
    192 H192        0.3280  -25.8214  -40.3429 H         1 UNK         0.0600 
    193 H193        1.7320  -26.0868  -41.3638 H         1 UNK         0.0600 
    194 H194        0.1238  -26.5227  -41.9407 H         1 UNK         0.0600 
    195 H195       -0.3436  -22.3785  -43.1745 H         1 UNK         0.3000 
    196 H196       -2.1694  -21.3272  -43.7570 H         1 UNK         0.0600 
    197 H197       -3.3201  -22.1922  -41.0573 H         1 UNK         0.0600 
    198 H198       -2.2422  -20.8205  -41.3174 H         1 UNK         0.0600 
    199 H199       -3.8496  -20.8205  -42.0211 H         1 UNK         0.0600 
    200 H200       -2.2051  -24.4898  -44.0698 H         1 UNK         0.3000 
    201 H201       -5.0613  -24.8740  -44.7820 H         1 UNK         0.0600 
    202 H202       -4.3595  -27.2569  -44.9887 H         1 UNK         0.0600 
    203 H203       -3.8881  -26.6307  -43.4174 H         1 UNK         0.0600 
    204 H204       -2.6821  -26.8176  -44.6885 H         1 UNK         0.0600 
    205 H205       -5.4187  -26.0269  -46.8717 H         1 UNK         0.3000 
    206 H206       -5.4897  -26.0978  -49.0887 H         1 UNK         0.0600 
    207 H207       -3.5097  -27.5707  -48.7101 H         1 UNK         0.0600 
    208 H208       -3.4154  -26.7566  -50.2626 H         1 UNK         0.0600 
    209 H209       -2.4313  -26.1928  -48.9189 H         1 UNK         0.0600 
    210 H210       -5.8250  -23.5611  -48.1191 H         1 UNK         0.3000 
    211 H211       -4.1938  -21.5528  -49.1734 H         1 UNK         0.0600 
    212 H212       -7.1511  -21.3982  -48.3632 H         1 UNK         0.0600 
    213 H213       -6.0178  -20.0521  -48.4334 H         1 UNK         0.0600 
    214 H214       -5.7897  -21.3314  -47.2503 H         1 UNK         0.0600 
    215 H215       -4.2173  -20.2906  -50.9512 H         1 UNK         0.3000 
    216 H216       -6.4734  -20.0532  -52.7457 H         1 UNK         0.0600 
    217 H217       -5.4460  -22.0890  -53.7316 H         1 UNK         0.0600 
    218 H218       -3.8683  -21.3120  -53.7801 H         1 UNK         0.0600 
    219 H219       -5.1789  -20.7188  -54.7944 H         1 UNK         0.0600 
    220 H220       -5.5309  -18.3057  -50.9853 H         1 UNK         0.3000 
    221 H221       -3.2291  -16.8503  -51.4930 H         1 UNK         0.0600 
    222 H222       -4.4227  -16.9255  -49.3260 H         1 UNK         0.0600 
    223 H223       -4.1790  -15.2659  -49.8342 H         1 UNK         0.0600 
    224 H224       -5.7671  -16.0044  -50.0052 H         1 UNK         0.0600 
    225 H225       -6.0023  -16.6313  -53.4235 H         1 UNK         0.3000 
    226 H226       -5.7387  -13.8681  -54.2987 H         1 UNK         0.0600 
    227 H227       -7.8881  -15.0998  -54.5138 H         1 UNK         0.0600 
    228 H228       -7.2982  -14.6186  -56.0966 H         1 UNK         0.0600 
    229 H229       -7.1268  -16.2892  -55.5717 H         1 UNK         0.0600 
    230 H230       -4.0628  -16.8746  -54.9710 H         1 UNK         0.3000 
    231 H231       -2.9701  -16.0732  -57.5621 H         1 UNK         0.0600 
    232 H232       -1.7549  -18.2206  -57.3598 H         1 UNK         0.0600 
    233 H233       -3.4397  -18.4798  -56.9387 H         1 UNK         0.0600 
    234 H234       -2.2193  -18.3738  -55.6716 H         1 UNK         0.0600 
    235 H235       -0.5549  -16.1442  -57.8260 H         1 UNK         0.3000 
    236 H236        0.8644  -14.4091  -55.9221 H         1 UNK         0.0600 
    237 H237        2.6361  -14.4941  -57.6778 H         1 UNK         0.0600 
    238 H238        1.6761  -15.6343  -58.6137 H         1 UNK         0.0600 
    239 H239        1.0920  -13.9927  -58.3479 H         1 UNK         0.0600 
    240 H240        0.5661  -16.0612  -54.1969 H         1 UNK         0.3000 
    241 H241        1.7314  -18.6179  -54.3171 H         1 UNK         0.0600 
    242 H242        3.5426  -15.6625  -53.8980 H         1 UNK         0.3800 
    243 H243        4.9807  -16.4290  -53.2769 H         1 UNK         0.3800 
    244 H244        1.2889  -18.7947  -51.9251 H         1 UNK         0.0800 
    245 H245        1.1400  -17.0620  -51.7606 H         1 UNK         0.0800 
    246 H246       -2.0663  -20.0199  -53.0850 H         1 UNK         0.0800 
    247 H247       -0.3563  -20.3137  -53.2294 H         1 UNK         0.0800 
@<TRIPOS>BOND
     1    1    2 1    
     2    1  127 1    
     3    1  128 1    
     4    1  129 1    
     5    2    3 2    
     6    2    4 am   BACKBONE|DICT|INTERRES
     7    4    5 1    
     8    4  130 1    
     9    5    6 1    
    10    5   65 1    
    11    5  131 1    
    12    6    7 1    
    13    6  132 1    
    14    6  133 1    
    15    7    8 1    
    16    8    9 1    
    17    8  134 1    
    18    8  135 1    
    19    9   10 ar   
    20    9   14 ar   
    21   10   11 ar   
    22   10  136 1    
    23   11   12 ar   
    24   11  126 1    
    25   12   13 ar   
    26   12  137 1    
    27   13   14 ar   
    28   13   15 1    
    29   14  138 1    
    30   15   16 1    
    31   15  139 1    
    32   15  140 1    
    33   16   17 1    
    34   17   18 1    
    35   17  141 1    
    36   17  142 1    
    37   18   19 1    
    38   18   67 1    
    39   18  143 1    
    40   19   20 am   BACKBONE|DICT|INTERRES
    41   19  144 1    
    42   20   21 2    
    43   20   22 1    
    44   22   23 1    
    45   22   24 1    
    46   22  145 1    
    47   23  146 1    
    48   23  147 1    
    49   23  148 1    
    50   24   25 am   BACKBONE|DICT|INTERRES
    51   24  149 1    
    52   25   26 2    
    53   25   27 1    
    54   27   28 1    
    55   27   29 1    
    56   27  150 1    
    57   28  151 1    
    58   28  152 1    
    59   28  153 1    
    60   29   30 am   BACKBONE|DICT|INTERRES
    61   29  154 1    
    62   30   31 2    
    63   30   32 1    
    64   32   33 1    
    65   32   34 1    
    66   32  155 1    
    67   33  156 1    
    68   33  157 1    
    69   33  158 1    
    70   34   35 am   BACKBONE|DICT|INTERRES
    71   34  159 1    
    72   35   36 2    
    73   35   37 1    
    74   37   38 1    
    75   37   39 1    
    76   37  160 1    
    77   38  161 1    
    78   38  162 1    
    79   38  163 1    
    80   39   40 am   BACKBONE|DICT|INTERRES
    81   39  164 1    
    82   40   41 2    
    83   40   42 1    
    84   42   43 1    
    85   42   44 1    
    86   42  165 1    
    87   43  166 1    
    88   43  167 1    
    89   43  168 1    
    90   44   45 am   BACKBONE|DICT|INTERRES
    91   44  169 1    
    92   45   46 2    
    93   45   47 1    
    94   47   48 1    
    95   47   49 1    
    96   47  170 1    
    97   48  171 1    
    98   48  172 1    
    99   48  173 1    
   100   49   50 am   BACKBONE|DICT|INTERRES
   101   49  174 1    
   102   50   51 2    
   103   50   52 1    
   104   52   53 1    
   105   52   54 1    
   106   52  175 1    
   107   53  176 1    
   108   53  177 1    
   109   53  178 1    
   110   54   55 am   BACKBONE|DICT|INTERRES
   111   54  179 1    
   112   55   56 2    
   113   55   57 1    
   114   57   58 1    
   115   57   59 1    
   116   57  180 1    
   117   58  181 1    
   118   58  182 1    
   119   58  183 1    
   120   59   60 am   BACKBONE|DICT|INTERRES
   121   59  184 1    
   122   60   61 2    
   123   60   62 1    
   124   62   63 1    
   125   62   64 1    
   126   62  185 1    
   127   63  186 1    
   128   63  187 1    
   129   63  188 1    
   130   64   65 am   BACKBONE|DICT|INTERRES
   131   64  189 1    
   132   65   66 2    
   133   67   68 2    
   134   67   69 am   BACKBONE|DICT|INTERRES
   135   69   70 1    
   136   69  190 1    
   137   70   71 1    
   138   70   72 1    
   139   70  191 1    
   140   71  192 1    
   141   71  193 1    
   142   71  194 1    
   143   72   73 2    
   144   72   74 am   BACKBONE|DICT|INTERRES
   145   74   75 1    
   146   74  195 1    
   147   75   76 1    
   148   75   77 1    
   149   75  196 1    
   150   76  197 1    
   151   76  198 1    
   152   76  199 1    
   153   77   78 2    
   154   77   79 am   BACKBONE|DICT|INTERRES
   155   79   80 1    
   156   79  200 1    
   157   80   81 1    
   158   80   82 1    
   159   80  201 1    
   160   81  202 1    
   161   81  203 1    
   162   81  204 1    
   163   82   83 2    
   164   82   84 am   BACKBONE|DICT|INTERRES
   165   84   85 1    
   166   84  205 1    
   167   85   86 1    
   168   85   87 1    
   169   85  206 1    
   170   86  207 1    
   171   86  208 1    
   172   86  209 1    
   173   87   88 2    
   174   87   89 am   BACKBONE|DICT|INTERRES
   175   89   90 1    
   176   89  210 1    
   177   90   91 1    
   178   90   92 1    
   179   90  211 1    
   180   91  212 1    
   181   91  213 1    
   182   91  214 1    
   183   92   93 2    
   184   92   94 am   BACKBONE|DICT|INTERRES
   185   94   95 1    
   186   94  215 1    
   187   95   96 1    
   188   95   97 1    
   189   95  216 1    
   190   96  217 1    
   191   96  218 1    
   192   96  219 1    
   193   97   98 2    
   194   97   99 am   BACKBONE|DICT|INTERRES
   195   99  100 1    
   196   99  220 1    
   197  100  101 1    
   198  100  102 1    
   199  100  221 1    
   200  101  222 1    
   201  101  223 1    
   202  101  224 1    
   203  102  103 2    
   204  102  104 am   BACKBONE|DICT|INTERRES
   205  104  105 1    
   206  104  225 1    
   207  105  106 1    
   208  105  107 1    
   209  105  226 1    
   210  106  227 1    
   211  106  228 1    
   212  106  229 1    
   213  107  108 2    
   214  107  109 am   BACKBONE|DICT|INTERRES
   215  109  110 1    
   216  109  230 1    
   217  110  111 1    
   218  110  112 1    
   219  110  231 1    
   220  111  232 1    
   221  111  233 1    
   222  111  234 1    
   223  112  113 2    
   224  112  114 am   BACKBONE|DICT|INTERRES
   225  114  115 1    
   226  114  235 1    
   227  115  116 1    
   228  115  117 1    
   229  115  236 1    
   230  116  237 1    
   231  116  238 1    
   232  116  239 1    
   233  117  118 2    
   234  117  119 am   BACKBONE|DICT|INTERRES
   235  119  120 1    
   236  119  240 1    
   237  120  121 1    
   238  120  124 1    
   239  120  241 1    
   240  121  122 am   BACKBONE|DICT|INTERRES
   241  121  123 2    
   242  122  242 1    
   243  122  243 1    
   244  124  125 1    
   245  124  244 1    
   246  124  245 1    
   247  125  126 1    
   248  126  246 1    
   249  126  247 1    
@<TRIPOS>SUBSTRUCTURE
     1 UNK         1 GROUP             0       ****    0 ROOT    
