@<TRIPOS>MOLECULE
3R540
247   249    1
SMALL
USER_CHARGES


@<TRIPOS>ATOM
      1 CA          7.6249  -15.7212  -45.7505 C.3       0 UNK        -0.1800 
      2 C           6.4206  -14.7991  -45.8768 C.2       0 UNK         0.5000 
      3 O           6.1700  -13.9926  -44.9811 O.2       0 UNK        -0.5000 
      4 N           5.6727  -14.9177  -46.9809 N.am      1 UNK        -0.5000 
      5 CA          4.5102  -14.0881  -47.2970 C.3       1 UNK         0.1400 
      6 C6          3.5429  -14.8140  -48.2667 C.3       23 UNK        -0.0398 
      7 S7          1.8919  -14.0362  -48.2770 S.3       23 UNK        -0.2404 
      8 C8          0.9033  -15.2334  -47.3315 C.3       23 UNK        -0.0205 
      9 C9          0.2292  -16.2471  -48.2426 C.ar      23 UNK        -0.0193 
     10 C10        -1.0479  -15.9867  -48.7446 C.ar      23 UNK        -0.1150 
     11 C11        -1.6997  -16.9195  -49.5553 C.ar      23 UNK        -0.0193 
     12 C12        -1.0554  -18.1202  -49.8673 C.ar      23 UNK        -0.1150 
     13 C13         0.2326  -18.3912  -49.3921 C.ar      23 UNK        -0.0193 
     14 C14         0.8687  -17.4441  -48.5777 C.ar      23 UNK        -0.1150 
     15 C15         0.9113  -19.6960  -49.8177 C.3       23 UNK        -0.0205 
     16 S16         2.1982  -20.3328  -48.6842 S.3       23 UNK        -0.2404 
     17 C17         1.2325  -20.6303  -47.1668 C.3       23 UNK        -0.0398 
     18 CA          0.8618  -22.1126  -46.9274 C.3       11 UNK         0.1400 
     19 N           0.3548  -22.3040  -45.5697 N.am      11 UNK        -0.5000 
     20 C          -0.0071  -23.4680  -45.0153 C.2       10 UNK         0.5000 
     21 O           0.1233  -24.5634  -45.5605 O.2       10 UNK        -0.5000 
     22 CA         -0.6878  -23.3743  -43.6397 C.3       10 UNK         0.1400 
     23 CB          0.3531  -23.2458  -42.5172 C.3       10 UNK        -0.1800 
     24 N          -1.6222  -22.2482  -43.5763 N.am      10 UNK        -0.5000 
     25 C          -2.7834  -22.1921  -44.2440 C.2       9 UNK         0.5000 
     26 O          -3.2068  -23.1065  -44.9515 O.2       9 UNK        -0.5000 
     27 CA         -3.5869  -20.8833  -44.1246 C.3       9 UNK         0.1400 
     28 CB         -4.3958  -20.8582  -42.8194 C.3       9 UNK        -0.1800 
     29 N          -2.7411  -19.6896  -44.1954 N.am      9 UNK        -0.5000 
     30 C          -2.1047  -19.2884  -45.3045 C.2       8 UNK         0.5000 
     31 O          -2.1714  -19.8804  -46.3798 O.2       8 UNK        -0.5000 
     32 CA         -1.2042  -18.0437  -45.1873 C.3       8 UNK         0.1400 
     33 CB         -2.0361  -16.7683  -45.3775 C.3       8 UNK        -0.1800 
     34 N          -0.4466  -17.9471  -43.9347 N.am      8 UNK        -0.5000 
     35 C           0.3538  -18.8978  -43.4263 C.2       7 UNK         0.5000 
     36 O           0.5007  -20.0026  -43.9471 O.2       7 UNK        -0.5000 
     37 CA          1.1378  -18.5864  -42.1348 C.3       7 UNK         0.1400 
     38 CB          2.6504  -18.6812  -42.3936 C.3       7 UNK        -0.1800 
     39 N           0.8512  -17.2727  -41.5609 N.am      7 UNK        -0.5000 
     40 C          -0.2600  -16.9235  -40.8984 C.2       6 UNK         0.5000 
     41 O          -1.1879  -17.6977  -40.6647 O.2       6 UNK        -0.5000 
     42 CA         -0.3559  -15.4487  -40.4523 C.3       6 UNK         0.1400 
     43 CB          0.0152  -15.3106  -38.9680 C.3       6 UNK        -0.1800 
     44 N           0.4961  -14.5525  -41.2452 N.am      6 UNK        -0.5000 
     45 C           0.2907  -14.2668  -42.5372 C.2       5 UNK         0.5000 
     46 O          -0.6728  -14.6844  -43.1837 O.2       5 UNK        -0.5000 
     47 CA          1.3696  -13.4333  -43.2384 C.3       5 UNK         0.1400 
     48 CB          2.5541  -14.3305  -43.6506 C.3       5 UNK        -0.1800 
     49 N           0.7676  -12.7957  -44.4051 N.am      5 UNK        -0.5000 
     50 C           1.3139  -11.8159  -45.1289 C.2       4 UNK         0.5000 
     51 O           2.4481  -11.3682  -44.9334 O.2       4 UNK        -0.5000 
     52 CA          0.4422  -11.2248  -46.2481 C.3       4 UNK         0.1400 
     53 CB         -0.6111  -10.2548  -45.6845 C.3       4 UNK        -0.1800 
     54 N           1.3228  -10.5234  -47.1697 N.am      4 UNK        -0.5000 
     55 C           1.0970  -10.2402  -48.4547 C.2       3 UNK         0.5000 
     56 O           0.0225  -10.4527  -49.0174 O.2       3 UNK        -0.5000 
     57 CA          2.2755   -9.6643  -49.2715 C.3       3 UNK         0.1400 
     58 CB          2.1253   -8.1463  -49.4905 C.3       3 UNK        -0.1800 
     59 N           3.6029  -10.0184  -48.7418 N.am      3 UNK        -0.5000 
     60 C           4.2198   -9.5855  -47.6325 C.2       2 UNK         0.5000 
     61 O           3.7751   -8.7015  -46.8998 O.2       2 UNK        -0.5000 
     62 CA          5.4942  -10.3568  -47.2331 C.3       2 UNK         0.1400 
     63 CB          6.2066   -9.7429  -46.0149 C.3       2 UNK        -0.1800 
     64 N           5.1607  -11.7493  -46.9266 N.am      2 UNK        -0.5000 
     65 C           4.9781  -12.7180  -47.8315 C.2       1 UNK         0.5000 
     66 O           5.1676  -12.5560  -49.0392 O.2       1 UNK        -0.5000 
     67 C          -0.1431  -22.6344  -47.9739 C.2       11 UNK         0.5000 
     68 O           0.2361  -23.4239  -48.8374 O.2       11 UNK        -0.5000 
     69 N          -1.4129  -22.2241  -47.8486 N.am      12 UNK        -0.5000 
     70 CA         -2.5132  -22.6546  -48.7068 C.3       12 UNK         0.1400 
     71 CB         -3.7737  -21.8592  -48.3609 C.3       12 UNK        -0.1800 
     72 C          -2.7857  -24.1645  -48.6462 C.2       12 UNK         0.5000 
     73 O          -2.9954  -24.7775  -49.6923 O.2       12 UNK        -0.5000 
     74 N          -2.7392  -24.7413  -47.4378 N.am      13 UNK        -0.5000 
     75 CA         -2.8723  -26.1799  -47.2084 C.3       13 UNK         0.1400 
     76 CB         -2.9834  -26.4528  -45.7009 C.3       13 UNK        -0.1800 
     77 C          -1.7214  -26.9927  -47.8318 C.2       13 UNK         0.5000 
     78 O          -1.9742  -28.0473  -48.4150 O.2       13 UNK        -0.5000 
     79 N          -0.4878  -26.4809  -47.7171 N.am      14 UNK        -0.5000 
     80 CA          0.7151  -27.0766  -48.2983 C.3       14 UNK         0.1400 
     81 CB          1.9607  -26.4192  -47.6840 C.3       14 UNK        -0.1800 
     82 C           0.7454  -26.9788  -49.8349 C.2       14 UNK         0.5000 
     83 O           1.0793  -27.9613  -50.4985 O.2       14 UNK        -0.5000 
     84 N           0.3953  -25.8017  -50.3715 N.am      15 UNK        -0.5000 
     85 CA          0.3487  -25.5214  -51.8078 C.3       15 UNK         0.1400 
     86 CB          0.2660  -24.0025  -52.0206 C.3       15 UNK        -0.1800 
     87 C          -0.8193  -26.2194  -52.5272 C.2       15 UNK         0.5000 
     88 O          -0.6987  -26.5280  -53.7134 O.2       15 UNK        -0.5000 
     89 N          -1.9322  -26.4242  -51.8088 N.am      16 UNK        -0.5000 
     90 CA         -3.2049  -27.0349  -52.2092 C.3       16 UNK         0.1400 
     91 CB         -3.0154  -28.4808  -52.7042 C.3       16 UNK        -0.1800 
     92 C          -4.0162  -26.1938  -53.2125 C.2       16 UNK         0.5000 
     93 O          -5.2115  -25.9934  -53.0031 O.2       16 UNK        -0.5000 
     94 N          -3.3644  -25.6873  -54.2662 N.am      17 UNK        -0.5000 
     95 CA         -3.9620  -24.8296  -55.2928 C.3       17 UNK         0.1400 
     96 CB         -2.9708  -24.6747  -56.4557 C.3       17 UNK        -0.1800 
     97 C          -4.3820  -23.4488  -54.7533 C.2       17 UNK         0.5000 
     98 O          -5.3777  -22.8880  -55.2121 O.2       17 UNK        -0.5000 
     99 N          -3.6332  -22.9406  -53.7649 N.am      18 UNK        -0.5000 
    100 CA        -3.8765  -21.6574  -53.1037 C.3       18 UNK         0.1400 
    101 CB        -2.5542  -21.1180  -52.5396 C.3       18 UNK        -0.1800 
    102 C         -4.9804  -21.7087  -52.0273 C.2       18 UNK         0.5000 
    103 O         -5.2801  -20.6723  -51.4322 O.2       18 UNK        -0.5000 
    104 N         -5.6085  -22.8766  -51.8153 N.am      19 UNK        -0.5000 
    105 CA        -6.7746  -23.0544  -50.9413 C.3       19 UNK         0.1400 
    106 CB        -7.1357  -24.5431  -50.8579 C.3       19 UNK        -0.1800 
    107 C         -7.9962  -22.2201  -51.3745 C.2       19 UNK         0.5000 
    108 O         -8.7855  -21.8134  -50.5225 O.2       19 UNK        -0.5000 
    109 N         -8.0985  -21.9273  -52.6778 N.am      20 UNK        -0.5000 
    110 CA        -9.0936  -21.0201  -53.2491 C.3       20 UNK         0.1400 
    111 CB        -9.1052  -21.2041  -54.7746 C.3       20 UNK        -0.1800 
    112 C         -8.8557  -19.5376  -52.8884 C.2       20 UNK         0.5000 
    113 O         -9.8002  -18.7498  -52.9559 O.2       20 UNK        -0.5000 
    114 N         -7.6140  -19.1792  -52.5314 N.am      21 UNK        -0.5000 
    115 CA        -7.2059  -17.8186  -52.1902 C.3       21 UNK         0.1400 
    116 CB        -5.8357  -17.5220  -52.8240 C.3       21 UNK        -0.1800 
    117 C         -7.1639  -17.6076  -50.6688 C.2       21 UNK         0.5000 
    118 O         -7.7685  -16.6517  -50.1809 O.2       21 UNK        -0.5000 
    119 N         -6.4523  -18.4899  -49.9545 N.am      22 UNK        -0.5000 
    120 CA        -6.1691  -18.3709  -48.5111 C.3       22 UNK         0.1400 
    121 C         -6.5753  -19.6264  -47.6871 C.2       22 UNK         0.5000 
    122 N         -7.3249  -20.5750  -48.2314 N.am      22 UNK        -0.7600 
    123 O         -6.2355  -19.7342  -46.5127 O.2       22 UNK        -0.5000 
    124 C124       -4.6984  -17.9458  -48.2418 C.3       23 UNK        -0.0398 
    125 S125       -4.3216  -16.2673  -48.8483 S.3       23 UNK        -0.2404 
    126 C126       -3.0751  -16.6060  -50.1334 C.3       23 UNK        -0.0205 
    127 H127        7.7199  -16.3853  -46.6100 H         1 UNK         0.0600 
    128 H128        7.5342  -16.3355  -44.8546 H         1 UNK         0.0600 
    129 H129        8.5398  -15.1340  -45.6715 H         1 UNK         0.0600 
    130 H130        5.9497  -15.5761  -47.6952 H         1 UNK         0.3000 
    131 H131        3.9620  -13.9157  -46.3686 H         1 UNK         0.0600 
    132 H132        3.9333  -14.8381  -49.2855 H         1 UNK         0.0800 
    133 H133        3.4378  -15.8580  -47.9718 H         1 UNK         0.0800 
    134 H134        0.1459  -14.6837  -46.7721 H         1 UNK         0.0800 
    135 H135        1.5175  -15.7383  -46.5852 H         1 UNK         0.0800 
    136 H136       -1.5396  -15.0550  -48.5022 H         1 UNK         0.1150 
    137 H137       -1.5500  -18.8398  -50.5027 H         1 UNK         0.1150 
    138 H138        1.8639  -17.6312  -48.2034 H         1 UNK         0.1150 
    139 H139        0.1603  -20.4744  -49.9602 H         1 UNK         0.0800 
    140 H140        1.3691  -19.5349  -50.7943 H         1 UNK         0.0800 
    141 H141        0.3419  -20.0039  -47.1642 H         1 UNK         0.0800 
    142 H142        1.8438  -20.2712  -46.3377 H         1 UNK         0.0800 
    143 H143        1.7704  -22.7121  -47.0135 H         1 UNK         0.0600 
    144 H144        0.2509  -21.4605  -45.0093 H         1 UNK         0.3000 
    145 H145       -1.2499  -24.2968  -43.4795 H         1 UNK         0.0600 
    146 H146       -0.1242  -23.2317  -41.5373 H         1 UNK         0.0600 
    147 H147        1.0437  -24.0899  -42.5299 H         1 UNK         0.0600 
    148 H148        0.9464  -22.3361  -42.6143 H         1 UNK         0.0600 
    149 H149       -1.3149  -21.4315  -43.0689 H         1 UNK         0.3000 
    150 H150       -4.2899  -20.8515  -44.9594 H         1 UNK         0.0600 
    151 H151       -5.0434  -21.7329  -42.7456 H         1 UNK         0.0600 
    152 H152       -5.0358  -19.9770  -42.7711 H         1 UNK         0.0600 
    153 H153       -3.7484  -20.8526  -41.9416 H         1 UNK         0.0600 
    154 H154       -2.6237  -19.1540  -43.3476 H         1 UNK         0.3000 
    155 H155       -0.4758  -18.0930  -45.9975 H         1 UNK         0.0600 
    156 H156       -2.7559  -16.6299  -44.5701 H         1 UNK         0.0600 
    157 H157       -1.4013  -15.8850  -45.4153 H         1 UNK         0.0600 
    158 H158       -2.5903  -16.7996  -46.3150 H         1 UNK         0.0600 
    159 H159       -0.5104  -17.0642  -43.4461 H         1 UNK         0.3000 
    160 H160        0.8667  -19.3498  -41.4028 H         1 UNK         0.0600 
    161 H161        2.9802  -17.9437  -43.1266 H         1 UNK         0.0600 
    162 H162        2.9243  -19.6665  -42.7737 H         1 UNK         0.0600 
    163 H163        3.2187  -18.5220  -41.4770 H         1 UNK         0.0600 
    164 H164        1.5566  -16.5649  -41.6973 H         1 UNK         0.3000 
    165 H165       -1.3944  -15.1346  -40.5773 H         1 UNK         0.0600 
    166 H166       -0.1154  -14.2849  -38.6224 H         1 UNK         0.0600 
    167 H167       -0.6187  -15.9444  -38.3462 H         1 UNK         0.0600 
    168 H168        1.0505  -15.5994  -38.7827 H         1 UNK         0.0600 
    169 H169        1.3063  -14.1712  -40.7773 H         1 UNK         0.3000 
    170 H170        1.7140  -12.6588  -42.5500 H         1 UNK         0.0600 
    171 H171        2.9682  -14.8585  -42.7911 H         1 UNK         0.0600 
    172 H172        2.2560  -15.0804  -44.3834 H         1 UNK         0.0600 
    173 H173        3.3676  -13.7458  -44.0782 H         1 UNK         0.0600 
    174 H174       -0.1751  -13.1134  -44.5959 H         1 UNK         0.3000 
    175 H175       -0.0520  -12.0432  -46.7753 H         1 UNK         0.0600 
    176 H176       -0.1455   -9.4224  -45.1553 H         1 UNK         0.0600 
    177 H177       -1.2331   -9.8403  -46.4779 H         1 UNK         0.0600 
    178 H178       -1.2762  -10.7606  -44.9838 H         1 UNK         0.0600 
    179 H179        2.2304  -10.3032  -46.7746 H         1 UNK         0.3000 
    180 H180        2.2233  -10.1394  -50.2523 H         1 UNK         0.0600 
    181 H181        2.0845   -7.5978  -48.5494 H         1 UNK         0.0600 
    182 H182        1.2043   -7.9245  -50.0310 H         1 UNK         0.0600 
    183 H183        2.9515   -7.7475  -50.0789 H         1 UNK         0.0600 
    184 H184        4.0493  -10.7960  -49.2175 H         1 UNK         0.3000 
    185 H185        6.1849  -10.3220  -48.0782 H         1 UNK         0.0600 
    186 H186        6.4803   -8.7042  -46.2044 H         1 UNK         0.0600 
    187 H187        5.5744   -9.7613  -45.1261 H         1 UNK         0.0600 
    188 H188        7.1244  -10.2835  -45.7830 H         1 UNK         0.0600 
    189 H189        4.9882  -11.9614  -45.9524 H         1 UNK         0.3000 
    190 H190       -1.6452  -21.5319  -47.1408 H         1 UNK         0.3000 
    191 H191       -2.2349  -22.4172  -49.7318 H         1 UNK         0.0600 
    192 H192       -4.0632  -21.9816  -47.3172 H         1 UNK         0.0600 
    193 H193       -4.6141  -22.1712  -48.9748 H         1 UNK         0.0600 
    194 H194       -3.6176  -20.8000  -48.5448 H         1 UNK         0.0600 
    195 H195       -2.6121  -24.1558  -46.6189 H         1 UNK         0.3000 
    196 H196       -3.8014  -26.5065  -47.6803 H         1 UNK         0.0600 
    197 H197       -3.1137  -27.5178  -45.5054 H         1 UNK         0.0600 
    198 H198       -3.8401  -25.9350  -45.2691 H         1 UNK         0.0600 
    199 H199       -2.0920  -26.1269  -45.1647 H         1 UNK         0.0600 
    200 H200       -0.3585  -25.6314  -47.1756 H         1 UNK         0.3000 
    201 H201        0.7294  -28.1357  -48.0327 H         1 UNK         0.0600 
    202 H202        1.9863  -26.5593  -46.6032 H         1 UNK         0.0600 
    203 H203        1.9907  -25.3471  -47.8809 H         1 UNK         0.0600 
    204 H204        2.8741  -26.8547  -48.0908 H         1 UNK         0.0600 
    205 H205        0.1938  -25.0201  -49.7504 H         1 UNK         0.3000 
    206 H206        1.2766  -25.8799  -52.2581 H         1 UNK         0.0600 
    207 H207        1.1369  -23.4980  -51.6014 H         1 UNK         0.0600 
    208 H208        0.2230  -23.7520  -53.0813 H         1 UNK         0.0600 
    209 H209       -0.6205  -23.5851  -51.5439 H         1 UNK         0.0600 
    210 H210       -1.9505  -26.0334  -50.8720 H         1 UNK         0.3000 
    211 H211       -3.7981  -27.0820  -51.2944 H         1 UNK         0.0600 
    212 H212       -2.4525  -28.5262  -53.6366 H         1 UNK         0.0600 
    213 H213       -3.9797  -28.9573  -52.8843 H         1 UNK         0.0600 
    214 H214       -2.4881  -29.0825  -51.9637 H         1 UNK         0.0600 
    215 H215       -2.3778  -25.9140  -54.3583 H         1 UNK         0.3000 
    216 H216       -4.8592  -25.3253  -55.6695 H         1 UNK         0.0600 
    217 H217       -3.3914  -24.0545  -57.2484 H         1 UNK         0.0600 
    218 H218       -2.7260  -25.6416  -56.8957 H         1 UNK         0.0600 
    219 H219       -2.0394  -24.2086  -56.1315 H         1 UNK         0.0600 
    220 H220       -2.8477  -23.4817  -53.4358 H         1 UNK         0.3000 
    221 H221       -4.2212  -20.9426  -53.8540 H         1 UNK         0.0600 
    222 H222       -2.0994  -21.8147  -51.8407 H         1 UNK         0.0600 
    223 H223       -1.8349  -20.9341  -53.3378 H         1 UNK         0.0600 
    224 H224       -2.7051  -20.1723  -52.0188 H         1 UNK         0.0600 
    225 H225       -5.3119  -23.6908  -52.3365 H         1 UNK         0.3000 
    226 H226       -6.5028  -22.7233  -49.9401 H         1 UNK         0.0600 
    227 H227       -7.9661  -24.7057  -50.1695 H         1 UNK         0.0600 
    228 H228       -7.4327  -24.9394  -51.8295 H         1 UNK         0.0600 
    229 H229       -6.2931  -25.1329  -50.4956 H         1 UNK         0.0600 
    230 H230       -7.4090  -22.3038  -53.3133 H         1 UNK         0.3000 
    231 H231      -10.0759  -21.2996  -52.8626 H         1 UNK         0.0600 
    232 H232       -9.8521  -20.5605  -55.2414 H         1 UNK         0.0600 
    233 H233       -9.3482  -22.2315  -55.0463 H         1 UNK         0.0600 
    234 H234       -8.1380  -20.9600  -55.2162 H         1 UNK         0.0600 
    235 H235       -6.9049  -19.8945  -52.4338 H         1 UNK         0.3000 
    236 H236       -7.9165  -17.1001  -52.6045 H         1 UNK         0.0600 
    237 H237       -5.8870  -17.5799  -53.9112 H         1 UNK         0.0600 
    238 H238       -5.4969  -16.5174  -52.5674 H         1 UNK         0.0600 
    239 H239       -5.0687  -18.2208  -52.4903 H         1 UNK         0.0600 
    240 H240       -5.9986  -19.2648  -50.4325 H         1 UNK         0.3000 
    241 H241       -6.8025  -17.5888  -48.0897 H         1 UNK         0.0600 
    242 H242       -7.6903  -20.4966  -49.1694 H         1 UNK         0.3800 
    243 H243       -7.5948  -21.3607  -47.6628 H         1 UNK         0.3800 
    244 H244       -4.4832  -17.9512  -47.1726 H         1 UNK         0.0800 
    245 H245       -4.0053  -18.6548  -48.6907 H         1 UNK         0.0800 
    246 H246       -2.9890  -15.7275  -50.7740 H         1 UNK         0.0800 
    247 H247       -3.4280  -17.4165  -50.7725 H         1 UNK         0.0800 
@<TRIPOS>BOND
     1    1    2 1    
     2    1  127 1    
     3    1  128 1    
     4    1  129 1    
     5    2    3 2    
     6    2    4 am   BACKBONE|DICT|INTERRES
     7    4    5 1    
     8    4  130 1    
     9    5    6 1    
    10    5   65 1    
    11    5  131 1    
    12    6    7 1    
    13    6  132 1    
    14    6  133 1    
    15    7    8 1    
    16    8    9 1    
    17    8  134 1    
    18    8  135 1    
    19    9   10 ar   
    20    9   14 ar   
    21   10   11 ar   
    22   10  136 1    
    23   11   12 ar   
    24   11  126 1    
    25   12   13 ar   
    26   12  137 1    
    27   13   14 ar   
    28   13   15 1    
    29   14  138 1    
    30   15   16 1    
    31   15  139 1    
    32   15  140 1    
    33   16   17 1    
    34   17   18 1    
    35   17  141 1    
    36   17  142 1    
    37   18   19 1    
    38   18   67 1    
    39   18  143 1    
    40   19   20 am   BACKBONE|DICT|INTERRES
    41   19  144 1    
    42   20   21 2    
    43   20   22 1    
    44   22   23 1    
    45   22   24 1    
    46   22  145 1    
    47   23  146 1    
    48   23  147 1    
    49   23  148 1    
    50   24   25 am   BACKBONE|DICT|INTERRES
    51   24  149 1    
    52   25   26 2    
    53   25   27 1    
    54   27   28 1    
    55   27   29 1    
    56   27  150 1    
    57   28  151 1    
    58   28  152 1    
    59   28  153 1    
    60   29   30 am   BACKBONE|DICT|INTERRES
    61   29  154 1    
    62   30   31 2    
    63   30   32 1    
    64   32   33 1    
    65   32   34 1    
    66   32  155 1    
    67   33  156 1    
    68   33  157 1    
    69   33  158 1    
    70   34   35 am   BACKBONE|DICT|INTERRES
    71   34  159 1    
    72   35   36 2    
    73   35   37 1    
    74   37   38 1    
    75   37   39 1    
    76   37  160 1    
    77   38  161 1    
    78   38  162 1    
    79   38  163 1    
    80   39   40 am   BACKBONE|DICT|INTERRES
    81   39  164 1    
    82   40   41 2    
    83   40   42 1    
    84   42   43 1    
    85   42   44 1    
    86   42  165 1    
    87   43  166 1    
    88   43  167 1    
    89   43  168 1    
    90   44   45 am   BACKBONE|DICT|INTERRES
    91   44  169 1    
    92   45   46 2    
    93   45   47 1    
    94   47   48 1    
    95   47   49 1    
    96   47  170 1    
    97   48  171 1    
    98   48  172 1    
    99   48  173 1    
   100   49   50 am   BACKBONE|DICT|INTERRES
   101   49  174 1    
   102   50   51 2    
   103   50   52 1    
   104   52   53 1    
   105   52   54 1    
   106   52  175 1    
   107   53  176 1    
   108   53  177 1    
   109   53  178 1    
   110   54   55 am   BACKBONE|DICT|INTERRES
   111   54  179 1    
   112   55   56 2    
   113   55   57 1    
   114   57   58 1    
   115   57   59 1    
   116   57  180 1    
   117   58  181 1    
   118   58  182 1    
   119   58  183 1    
   120   59   60 am   BACKBONE|DICT|INTERRES
   121   59  184 1    
   122   60   61 2    
   123   60   62 1    
   124   62   63 1    
   125   62   64 1    
   126   62  185 1    
   127   63  186 1    
   128   63  187 1    
   129   63  188 1    
   130   64   65 am   BACKBONE|DICT|INTERRES
   131   64  189 1    
   132   65   66 2    
   133   67   68 2    
   134   67   69 am   BACKBONE|DICT|INTERRES
   135   69   70 1    
   136   69  190 1    
   137   70   71 1    
   138   70   72 1    
   139   70  191 1    
   140   71  192 1    
   141   71  193 1    
   142   71  194 1    
   143   72   73 2    
   144   72   74 am   BACKBONE|DICT|INTERRES
   145   74   75 1    
   146   74  195 1    
   147   75   76 1    
   148   75   77 1    
   149   75  196 1    
   150   76  197 1    
   151   76  198 1    
   152   76  199 1    
   153   77   78 2    
   154   77   79 am   BACKBONE|DICT|INTERRES
   155   79   80 1    
   156   79  200 1    
   157   80   81 1    
   158   80   82 1    
   159   80  201 1    
   160   81  202 1    
   161   81  203 1    
   162   81  204 1    
   163   82   83 2    
   164   82   84 am   BACKBONE|DICT|INTERRES
   165   84   85 1    
   166   84  205 1    
   167   85   86 1    
   168   85   87 1    
   169   85  206 1    
   170   86  207 1    
   171   86  208 1    
   172   86  209 1    
   173   87   88 2    
   174   87   89 am   BACKBONE|DICT|INTERRES
   175   89   90 1    
   176   89  210 1    
   177   90   91 1    
   178   90   92 1    
   179   90  211 1    
   180   91  212 1    
   181   91  213 1    
   182   91  214 1    
   183   92   93 2    
   184   92   94 am   BACKBONE|DICT|INTERRES
   185   94   95 1    
   186   94  215 1    
   187   95   96 1    
   188   95   97 1    
   189   95  216 1    
   190   96  217 1    
   191   96  218 1    
   192   96  219 1    
   193   97   98 2    
   194   97   99 am   BACKBONE|DICT|INTERRES
   195   99  100 1    
   196   99  220 1    
   197  100  101 1    
   198  100  102 1    
   199  100  221 1    
   200  101  222 1    
   201  101  223 1    
   202  101  224 1    
   203  102  103 2    
   204  102  104 am   BACKBONE|DICT|INTERRES
   205  104  105 1    
   206  104  225 1    
   207  105  106 1    
   208  105  107 1    
   209  105  226 1    
   210  106  227 1    
   211  106  228 1    
   212  106  229 1    
   213  107  108 2    
   214  107  109 am   BACKBONE|DICT|INTERRES
   215  109  110 1    
   216  109  230 1    
   217  110  111 1    
   218  110  112 1    
   219  110  231 1    
   220  111  232 1    
   221  111  233 1    
   222  111  234 1    
   223  112  113 2    
   224  112  114 am   BACKBONE|DICT|INTERRES
   225  114  115 1    
   226  114  235 1    
   227  115  116 1    
   228  115  117 1    
   229  115  236 1    
   230  116  237 1    
   231  116  238 1    
   232  116  239 1    
   233  117  118 2    
   234  117  119 am   BACKBONE|DICT|INTERRES
   235  119  120 1    
   236  119  240 1    
   237  120  121 1    
   238  120  124 1    
   239  120  241 1    
   240  121  122 am   BACKBONE|DICT|INTERRES
   241  121  123 2    
   242  122  242 1    
   243  122  243 1    
   244  124  125 1    
   245  124  244 1    
   246  124  245 1    
   247  125  126 1    
   248  126  246 1    
   249  126  247 1    
@<TRIPOS>SUBSTRUCTURE
     1 UNK         1 GROUP             0       ****    0 ROOT    
