@<TRIPOS>MOLECULE
3R540
247   249    1
SMALL
USER_CHARGES


@<TRIPOS>ATOM
      1 CA          5.6384  -17.9725  -48.5119 C.3       0 UNK        -0.1800 
      2 C           4.8486  -17.0875  -47.5589 C.2       0 UNK         0.5000 
      3 O           4.3953  -17.5607  -46.5190 O.2       0 UNK        -0.5000 
      4 N           4.7043  -15.7989  -47.8981 N.am      1 UNK        -0.5000 
      5 CA          3.9388  -14.7920  -47.1439 C.3       1 UNK         0.1400 
      6 C6          3.8607  -13.4476  -47.9278 C.3       23 UNK        -0.0398 
      7 S7          2.1716  -12.7583  -48.0339 S.3       23 UNK        -0.2404 
      8 C8          1.8582  -12.7257  -49.8311 C.3       23 UNK        -0.0205 
      9 C9          1.2247  -14.0133  -50.3431 C.ar      23 UNK        -0.0193 
     10 C10        -0.0976  -14.0156  -50.8028 C.ar      23 UNK        -0.1150 
     11 C11        -0.6774  -15.1880  -51.2995 C.ar      23 UNK        -0.0193 
     12 C12         0.0748  -16.3641  -51.3266 C.ar      23 UNK        -0.1150 
     13 C13         1.3910  -16.3789  -50.8614 C.ar      23 UNK        -0.0193 
     14 C14         1.9637  -15.1990  -50.3822 C.ar      23 UNK        -0.1150 
     15 C15         2.1892  -17.6718  -50.8658 C.3       23 UNK        -0.0205 
     16 S16         1.9080  -18.6231  -49.3420 S.3       23 UNK        -0.2404 
     17 C17         0.2027  -19.2142  -49.6033 C.3       23 UNK        -0.0398 
     18 CA         -0.1622  -20.3522  -48.6300 C.3       11 UNK         0.1400 
     19 N          -0.1542  -19.9121  -47.2354 N.am      11 UNK        -0.5000 
     20 C          -0.1843  -20.7320  -46.1787 C.2       10 UNK         0.5000 
     21 O          -0.2108  -21.9605  -46.2610 O.2       10 UNK        -0.5000 
     22 CA         -0.2386  -20.0523  -44.8008 C.3       10 UNK         0.1400 
     23 CB          1.1567  -19.5661  -44.3829 C.3       10 UNK        -0.1800 
     24 N          -1.1857  -18.9348  -44.7760 N.am      10 UNK        -0.5000 
     25 C          -2.5135  -19.0827  -44.8954 C.2       9 UNK         0.5000 
     26 O          -3.0713  -20.1752  -45.0001 O.2       9 UNK        -0.5000 
     27 CA         -3.3628  -17.7998  -44.9488 C.3       9 UNK         0.1400 
     28 CB         -3.7357  -17.3395  -43.5327 C.3       9 UNK        -0.1800 
     29 N          -2.7276  -16.6973  -45.6743 N.am      9 UNK        -0.5000 
     30 C          -2.3965  -16.7300  -46.9744 C.2       8 UNK         0.5000 
     31 O          -2.5342  -17.7237  -47.6851 O.2       8 UNK        -0.5000 
     32 CA         -1.8153  -15.4477  -47.5988 C.3       8 UNK         0.1400 
     33 CB         -2.9275  -14.6656  -48.3143 C.3       8 UNK        -0.1800 
     34 N          -1.1575  -14.5538  -46.6469 N.am      8 UNK        -0.5000 
     35 C          -0.0906  -14.8612  -45.8995 C.2       7 UNK         0.5000 
     36 O           0.4563  -15.9663  -45.9141 O.2       7 UNK        -0.5000 
     37 CA          0.4512  -13.7564  -44.9687 C.3       7 UNK         0.1400 
     38 CB         -0.4145  -12.4761  -44.9072 C.3       7 UNK        -0.1800 
     39 N           0.7152  -14.2782  -43.6285 N.am      7 UNK        -0.5000 
     40 C          -0.1860  -14.7871  -42.7767 C.2       6 UNK         0.5000 
     41 O          -1.3948  -14.8328  -43.0104 O.2       6 UNK        -0.5000 
     42 CA          0.3387  -15.3564  -41.4451 C.3       6 UNK         0.1400 
     43 CB          0.1185  -16.8751  -41.3856 C.3       6 UNK        -0.1800 
     44 N           1.7567  -15.0802  -41.2026 N.am      6 UNK        -0.5000 
     45 C           2.2368  -13.9293  -40.7069 C.2       5 UNK         0.5000 
     46 O           1.5302  -12.9423  -40.4950 O.2       5 UNK        -0.5000 
     47 CA          3.7508  -13.8753  -40.3849 C.3       5 UNK         0.1400 
     48 CB          4.0907  -12.8603  -39.2745 C.3       5 UNK        -0.1800 
     49 N           4.3309  -15.1881  -40.0787 N.am      5 UNK        -0.5000 
     50 C           3.9450  -16.0529  -39.1253 C.2       4 UNK         0.5000 
     51 O           3.1315  -15.7757  -38.2425 O.2       4 UNK        -0.5000 
     52 CA          4.5400  -17.4802  -39.1909 C.3       4 UNK         0.1400 
     53 CB          3.5117  -18.5545  -38.7793 C.3       4 UNK        -0.1800 
     54 N           5.1393  -17.8257  -40.4889 N.am      4 UNK        -0.5000 
     55 C           4.5426  -17.8318  -41.6911 C.2       3 UNK         0.5000 
     56 O           3.3564  -17.5548  -41.8791 O.2       3 UNK        -0.5000 
     57 CA          5.4624  -18.1108  -42.8936 C.3       3 UNK         0.1400 
     58 CB          4.8872  -19.2206  -43.7850 C.3       3 UNK        -0.1800 
     59 N           5.7019  -16.9083  -43.6987 N.am      3 UNK        -0.5000 
     60 C           6.2400  -15.7632  -43.2462 C.2       2 UNK         0.5000 
     61 O           6.5567  -15.5804  -42.0696 O.2       2 UNK        -0.5000 
     62 CA          6.4961  -14.6266  -44.2559 C.3       2 UNK         0.1400 
     63 CB          7.9999  -14.4987  -44.5447 C.3       2 UNK        -0.1800 
     64 N           5.7908  -14.7825  -45.5263 N.am      2 UNK        -0.5000 
     65 C           4.4804  -14.5719  -45.7082 C.2       1 UNK         0.5000 
     66 O           3.7228  -14.2257  -44.8017 O.2       1 UNK        -0.5000 
     67 C          -1.5098  -20.9914  -49.0087 C.2       11 UNK         0.5000 
     68 O          -1.5131  -22.0290  -49.6671 O.2       11 UNK        -0.5000 
     69 N          -2.6222  -20.4003  -48.5501 N.am      12 UNK        -0.5000 
     70 CA         -3.9746  -20.9283  -48.7211 C.3       12 UNK         0.1400 
     71 CB         -5.0009  -19.9228  -48.1810 C.3       12 UNK        -0.1800 
     72 C          -4.1567  -22.3018  -48.0543 C.2       12 UNK         0.5000 
     73 O          -4.7318  -23.1967  -48.6735 O.2       12 UNK        -0.5000 
     74 N          -3.6331  -22.4594  -46.8298 N.am      13 UNK        -0.5000 
     75 CA         -3.6163  -23.7242  -46.0942 C.3       13 UNK         0.1400 
     76 CB         -3.1219  -23.4872  -44.6596 C.3       13 UNK        -0.1800 
     77 C          -2.7745  -24.8038  -46.7977 C.2       13 UNK         0.5000 
     78 O          -3.2438  -25.9331  -46.9462 O.2       13 UNK        -0.5000 
     79 N          -1.5736  -24.4286  -47.2640 N.am      14 UNK        -0.5000 
     80 CA         -0.6782  -25.2883  -48.0455 C.3       14 UNK         0.1400 
     81 CB          0.6649  -24.5736  -48.2558 C.3       14 UNK        -0.1800 
     82 C          -1.2848  -25.7214  -49.3955 C.2       14 UNK         0.5000 
     83 O          -1.0874  -26.8611  -49.8165 O.2       14 UNK        -0.5000 
     84 N          -2.0551  -24.8211  -50.0179 N.am      15 UNK        -0.5000 
     85 CA         -2.8266  -25.0411  -51.2404 C.3       15 UNK         0.1400 
     86 CB         -2.9727  -23.7004  -51.9809 C.3       15 UNK        -0.1800 
     87 C          -4.1992  -25.7053  -50.9935 C.2       15 UNK         0.5000 
     88 O          -5.0526  -25.6424  -51.8768 O.2       15 UNK        -0.5000 
     89 N          -4.4025  -26.3242  -49.8198 N.am      16 UNK        -0.5000 
     90 CA         -5.5771  -27.1113  -49.4268 C.3       16 UNK         0.1400 
     91 CB         -5.6446  -28.4175  -50.2461 C.3       16 UNK        -0.1800 
     92 C          -6.8877  -26.2997  -49.4769 C.2       16 UNK         0.5000 
     93 O          -7.8484  -26.7048  -50.1340 O.2       16 UNK        -0.5000 
     94 N          -6.8764  -25.1543  -48.7826 N.am      17 UNK        -0.5000 
     95 CA         -7.9223  -24.1285  -48.7365 C.3       17 UNK         0.1400 
     96 CB         -9.2661  -24.6880  -48.2213 C.3       17 UNK        -0.1800 
     97 C          -8.0311  -23.3686  -50.0731 C.2       17 UNK         0.5000 
     98 O          -9.1314  -23.1627  -50.5882 O.2       17 UNK        -0.5000 
     99 N          -6.8639  -22.9482  -50.5827 N.am      18 UNK        -0.5000 
    100 CA        -6.6556  -22.1053  -51.7630 C.3       18 UNK         0.1400 
    101 CB        -7.1798  -20.6792  -51.4949 C.3       18 UNK        -0.1800 
    102 C         -7.2039  -22.7162  -53.0702 C.2       18 UNK         0.5000 
    103 O         -7.8280  -22.0136  -53.8679 O.2       18 UNK        -0.5000 
    104 N         -6.9590  -24.0164  -53.2828 N.am      19 UNK        -0.5000 
    105 CA        -7.3129  -24.7250  -54.5108 C.3       19 UNK         0.1400 
    106 CB        -7.2624  -26.2423  -54.2645 C.3       19 UNK        -0.1800 
    107 C         -6.3713  -24.2944  -55.6505 C.2       19 UNK         0.5000 
    108 O         -5.2078  -24.7007  -55.6668 O.2       19 UNK        -0.5000 
    109 N         -6.8892  -23.4465  -56.5514 N.am      20 UNK        -0.5000 
    110 CA        -6.1867  -22.8091  -57.6728 C.3       20 UNK         0.1400 
    111 CB        -5.7684  -23.8560  -58.7272 C.3       20 UNK        -0.1800 
    112 C         -5.0195  -21.9053  -57.2147 C.2       20 UNK         0.5000 
    113 O         -3.9596  -21.8889  -57.8440 O.2       20 UNK        -0.5000 
    114 N         -5.2400  -21.1668  -56.1216 N.am      21 UNK        -0.5000 
    115 CA        -4.2935  -20.2360  -55.5146 C.3       21 UNK         0.1400 
    116 CB        -3.4240  -20.9925  -54.4931 C.3       21 UNK        -0.1800 
    117 C         -5.0718  -19.0953  -54.8420 C.2       21 UNK         0.5000 
    118 O         -6.2955  -19.1807  -54.7113 O.2       21 UNK        -0.5000 
    119 N         -4.3520  -18.0520  -54.4175 N.am      22 UNK        -0.5000 
    120 CA        -4.8759  -16.9958  -53.5391 C.3       22 UNK         0.1400 
    121 C         -4.9682  -17.4478  -52.0514 C.2       22 UNK         0.5000 
    122 N         -5.7454  -16.7492  -51.2347 N.am      22 UNK        -0.7600 
    123 O         -4.3308  -18.4069  -51.6222 O.2       22 UNK        -0.5000 
    124 C124       -4.1055  -15.6583  -53.7118 C.3       23 UNK        -0.0398 
    125 S125       -2.2939  -15.7654  -53.4919 S.3       23 UNK        -0.2404 
    126 C126       -2.1253  -15.2023  -51.7678 C.3       23 UNK        -0.0205 
    127 H127        5.0348  -18.8285  -48.8137 H         1 UNK         0.0600 
    128 H128        6.5371  -18.3447  -48.0201 H         1 UNK         0.0600 
    129 H129        5.9378  -17.4349  -49.4119 H         1 UNK         0.0600 
    130 H130        5.1320  -15.4745  -48.7532 H         1 UNK         0.3000 
    131 H131        2.9324  -15.2030  -47.0381 H         1 UNK         0.0600 
    132 H132        4.5052  -12.6822  -47.4905 H         1 UNK         0.0800 
    133 H133        4.2448  -13.5680  -48.9407 H         1 UNK         0.0800 
    134 H134        1.2009  -11.8803  -50.0397 H         1 UNK         0.0800 
    135 H135        2.7797  -12.5230  -50.3781 H         1 UNK         0.0800 
    136 H136       -0.6765  -13.1032  -50.7734 H         1 UNK         0.1150 
    137 H137       -0.3735  -17.2727  -51.7030 H         1 UNK         0.1150 
    138 H138        2.9841  -15.2098  -50.0327 H         1 UNK         0.1150 
    139 H139        1.9332  -18.2765  -51.7370 H         1 UNK         0.0800 
    140 H140        3.2545  -17.4519  -50.9503 H         1 UNK         0.0800 
    141 H141        0.1124  -19.5539  -50.6369 H         1 UNK         0.0800 
    142 H142       -0.4873  -18.3775  -49.4839 H         1 UNK         0.0800 
    143 H143        0.5962  -21.1318  -48.7313 H         1 UNK         0.0600 
    144 H144       -0.1511  -18.9149  -47.0782 H         1 UNK         0.3000 
    145 H145       -0.5692  -20.8001  -44.0767 H         1 UNK         0.0600 
    146 H146        1.1735  -19.2651  -43.3367 H         1 UNK         0.0600 
    147 H147        1.8963  -20.3600  -44.4953 H         1 UNK         0.0600 
    148 H148        1.4900  -18.7190  -44.9848 H         1 UNK         0.0600 
    149 H149       -0.7999  -18.0012  -44.7394 H         1 UNK         0.3000 
    150 H150       -4.2880  -18.0418  -45.4747 H         1 UNK         0.0600 
    151 H151       -4.2700  -18.1245  -42.9960 H         1 UNK         0.0600 
    152 H152       -4.3840  -16.4636  -43.5580 H         1 UNK         0.0600 
    153 H153       -2.8525  -17.0867  -42.9469 H         1 UNK         0.0600 
    154 H154       -2.5473  -15.8523  -45.1495 H         1 UNK         0.3000 
    155 H155       -1.0721  -15.7543  -48.3379 H         1 UNK         0.0600 
    156 H156       -3.6480  -14.2546  -47.6062 H         1 UNK         0.0600 
    157 H157       -2.5185  -13.8392  -48.8955 H         1 UNK         0.0600 
    158 H158       -3.4814  -15.3061  -49.0013 H         1 UNK         0.0600 
    159 H159       -1.5469  -13.6265  -46.5621 H         1 UNK         0.3000 
    160 H160        1.4150  -13.4628  -45.3749 H         1 UNK         0.0600 
    161 H161       -1.4316  -12.6766  -44.5691 H         1 UNK         0.0600 
    162 H162       -0.4747  -11.9947  -45.8842 H         1 UNK         0.0600 
    163 H163        0.0211  -11.7474  -44.2234 H         1 UNK         0.0600 
    164 H164        1.6925  -14.3424  -43.3776 H         1 UNK         0.3000 
    165 H165       -0.2478  -14.9012  -40.6444 H         1 UNK         0.0600 
    166 H166        0.4869  -17.2934  -40.4486 H         1 UNK         0.0600 
    167 H167       -0.9402  -17.1243  -41.4590 H         1 UNK         0.0600 
    168 H168        0.6327  -17.3780  -42.2031 H         1 UNK         0.0600 
    169 H169        2.3956  -15.8526  -41.3694 H         1 UNK         0.3000 
    170 H170        4.2385  -13.5381  -41.3007 H         1 UNK         0.0600 
    171 H171        3.5822  -13.0976  -38.3396 H         1 UNK         0.0600 
    172 H172        5.1624  -12.8368  -39.0771 H         1 UNK         0.0600 
    173 H173        3.7935  -11.8509  -39.5611 H         1 UNK         0.0600 
    174 H174        5.0397  -15.5053  -40.7331 H         1 UNK         0.3000 
    175 H175        5.3524  -17.5011  -38.4633 H         1 UNK         0.0600 
    176 H176        3.9467  -19.5531  -38.8203 H         1 UNK         0.0600 
    177 H177        2.6350  -18.5438  -39.4278 H         1 UNK         0.0600 
    178 H178        3.1642  -18.3967  -37.7577 H         1 UNK         0.0600 
    179 H179        6.1332  -18.0078  -40.4598 H         1 UNK         0.3000 
    180 H180        6.4300  -18.4539  -42.5223 H         1 UNK         0.0600 
    181 H181        5.5735  -19.4756  -44.5926 H         1 UNK         0.0600 
    182 H182        3.9417  -18.9181  -44.2344 H         1 UNK         0.0600 
    183 H183        4.7030  -20.1299  -43.2116 H         1 UNK         0.0600 
    184 H184        5.4074  -16.9585  -44.6668 H         1 UNK         0.3000 
    185 H185        6.1610  -13.6983  -43.7881 H         1 UNK         0.0600 
    186 H186        8.5643  -14.3419  -43.6244 H         1 UNK         0.0600 
    187 H187        8.3954  -15.3956  -45.0231 H         1 UNK         0.0600 
    188 H188        8.2061  -13.6501  -45.1973 H         1 UNK         0.0600 
    189 H189        6.3416  -15.0822  -46.3175 H         1 UNK         0.3000 
    190 H190       -2.5426  -19.5055  -48.0710 H         1 UNK         0.3000 
    191 H191       -4.1502  -21.0494  -49.7920 H         1 UNK         0.0600 
    192 H192       -4.9415  -18.9762  -48.7184 H         1 UNK         0.0600 
    193 H193       -6.0176  -20.3008  -48.2937 H         1 UNK         0.0600 
    194 H194       -4.8446  -19.7184  -47.1223 H         1 UNK         0.0600 
    195 H195       -3.2168  -21.6587  -46.3649 H         1 UNK         0.3000 
    196 H196       -4.6438  -24.0898  -46.0396 H         1 UNK         0.0600 
    197 H197       -3.1073  -24.4184  -44.0919 H         1 UNK         0.0600 
    198 H198       -3.7744  -22.7934  -44.1292 H         1 UNK         0.0600 
    199 H199       -2.1130  -23.0747  -44.6418 H         1 UNK         0.0600 
    200 H200       -1.2442  -23.4880  -47.0686 H         1 UNK         0.3000 
    201 H201       -0.4943  -26.1921  -47.4613 H         1 UNK         0.0600 
    202 H202        1.1307  -24.3210  -47.3032 H         1 UNK         0.0600 
    203 H203        0.5454  -23.6513  -48.8243 H         1 UNK         0.0600 
    204 H204        1.3636  -25.2081  -48.8023 H         1 UNK         0.0600 
    205 H205       -2.1017  -23.8827  -49.6312 H         1 UNK         0.3000 
    206 H206       -2.2673  -25.7171  -51.8898 H         1 UNK         0.0600 
    207 H207       -1.9977  -23.2743  -52.2177 H         1 UNK         0.0600 
    208 H208       -3.5084  -23.8186  -52.9240 H         1 UNK         0.0600 
    209 H209       -3.5139  -22.9726  -51.3776 H         1 UNK         0.0600 
    210 H210       -3.6713  -26.2651  -49.1224 H         1 UNK         0.3000 
    211 H211       -5.4260  -27.3873  -48.3822 H         1 UNK         0.0600 
    212 H212       -5.8190  -28.2243  -51.3052 H         1 UNK         0.0600 
    213 H213       -6.4535  -29.0581  -49.8931 H         1 UNK         0.0600 
    214 H214       -4.7188  -28.9859  -50.1574 H         1 UNK         0.0600 
    215 H215       -5.9951  -24.8738  -48.3680 H         1 UNK         0.3000 
    216 H216       -7.5834  -23.3943  -48.0039 H         1 UNK         0.0600 
    217 H217       -9.9748  -23.8799  -48.0375 H         1 UNK         0.0600 
    218 H218       -9.1360  -25.2253  -47.2820 H         1 UNK         0.0600 
    219 H219       -9.7311  -25.3667  -48.9363 H         1 UNK         0.0600 
    220 H220       -6.0262  -23.1860  -50.0584 H         1 UNK         0.3000 
    221 H221       -5.5776  -22.0293  -51.8982 H         1 UNK         0.0600 
    222 H222       -8.2630  -20.6599  -51.3728 H         1 UNK         0.0600 
    223 H223       -6.7316  -20.2543  -50.5981 H         1 UNK         0.0600 
    224 H224       -6.9333  -20.0093  -52.3173 H         1 UNK         0.0600 
    225 H225       -6.3882  -24.5370  -52.6203 H         1 UNK         0.3000 
    226 H226       -8.3409  -24.4698  -54.7769 H         1 UNK         0.0600 
    227 H227       -7.9110  -26.5294  -53.4364 H         1 UNK         0.0600 
    228 H228       -7.5959  -26.7889  -55.1472 H         1 UNK         0.0600 
    229 H229       -6.2542  -26.5852  -54.0309 H         1 UNK         0.0600 
    230 H230       -7.8420  -23.1387  -56.4106 H         1 UNK         0.3000 
    231 H231       -6.9107  -22.1441  -58.1457 H         1 UNK         0.0600 
    232 H232       -4.9957  -24.5266  -58.3505 H         1 UNK         0.0600 
    233 H233       -5.3727  -23.3729  -59.6213 H         1 UNK         0.0600 
    234 H234       -6.6180  -24.4639  -59.0379 H         1 UNK         0.0600 
    235 H235       -6.1525  -21.1815  -55.6804 H         1 UNK         0.3000 
    236 H236       -3.6577  -19.7986  -56.2872 H         1 UNK         0.0600 
    237 H237       -2.6825  -20.3352  -54.0377 H         1 UNK         0.0600 
    238 H238       -4.0294  -21.4092  -53.6882 H         1 UNK         0.0600 
    239 H239       -2.8834  -21.8142  -54.9632 H         1 UNK         0.0600 
    240 H240       -3.3491  -18.0591  -54.5335 H         1 UNK         0.3000 
    241 H241       -5.9037  -16.7979  -53.8506 H         1 UNK         0.0600 
    242 H242       -6.2910  -15.9652  -51.5563 H         1 UNK         0.3800 
    243 H243       -5.8075  -17.0309  -50.2700 H         1 UNK         0.3800 
    244 H244       -4.2798  -15.2845  -54.7216 H         1 UNK         0.0800 
    245 H245       -4.5112  -14.8891  -53.0528 H         1 UNK         0.0800 
    246 H246       -2.5735  -14.2128  -51.6659 H         1 UNK         0.0800 
    247 H247       -2.6886  -15.8733  -51.1198 H         1 UNK         0.0800 
@<TRIPOS>BOND
     1    1    2 1    
     2    1  127 1    
     3    1  128 1    
     4    1  129 1    
     5    2    3 2    
     6    2    4 am   BACKBONE|DICT|INTERRES
     7    4    5 1    
     8    4  130 1    
     9    5    6 1    
    10    5   65 1    
    11    5  131 1    
    12    6    7 1    
    13    6  132 1    
    14    6  133 1    
    15    7    8 1    
    16    8    9 1    
    17    8  134 1    
    18    8  135 1    
    19    9   10 ar   
    20    9   14 ar   
    21   10   11 ar   
    22   10  136 1    
    23   11   12 ar   
    24   11  126 1    
    25   12   13 ar   
    26   12  137 1    
    27   13   14 ar   
    28   13   15 1    
    29   14  138 1    
    30   15   16 1    
    31   15  139 1    
    32   15  140 1    
    33   16   17 1    
    34   17   18 1    
    35   17  141 1    
    36   17  142 1    
    37   18   19 1    
    38   18   67 1    
    39   18  143 1    
    40   19   20 am   BACKBONE|DICT|INTERRES
    41   19  144 1    
    42   20   21 2    
    43   20   22 1    
    44   22   23 1    
    45   22   24 1    
    46   22  145 1    
    47   23  146 1    
    48   23  147 1    
    49   23  148 1    
    50   24   25 am   BACKBONE|DICT|INTERRES
    51   24  149 1    
    52   25   26 2    
    53   25   27 1    
    54   27   28 1    
    55   27   29 1    
    56   27  150 1    
    57   28  151 1    
    58   28  152 1    
    59   28  153 1    
    60   29   30 am   BACKBONE|DICT|INTERRES
    61   29  154 1    
    62   30   31 2    
    63   30   32 1    
    64   32   33 1    
    65   32   34 1    
    66   32  155 1    
    67   33  156 1    
    68   33  157 1    
    69   33  158 1    
    70   34   35 am   BACKBONE|DICT|INTERRES
    71   34  159 1    
    72   35   36 2    
    73   35   37 1    
    74   37   38 1    
    75   37   39 1    
    76   37  160 1    
    77   38  161 1    
    78   38  162 1    
    79   38  163 1    
    80   39   40 am   BACKBONE|DICT|INTERRES
    81   39  164 1    
    82   40   41 2    
    83   40   42 1    
    84   42   43 1    
    85   42   44 1    
    86   42  165 1    
    87   43  166 1    
    88   43  167 1    
    89   43  168 1    
    90   44   45 am   BACKBONE|DICT|INTERRES
    91   44  169 1    
    92   45   46 2    
    93   45   47 1    
    94   47   48 1    
    95   47   49 1    
    96   47  170 1    
    97   48  171 1    
    98   48  172 1    
    99   48  173 1    
   100   49   50 am   BACKBONE|DICT|INTERRES
   101   49  174 1    
   102   50   51 2    
   103   50   52 1    
   104   52   53 1    
   105   52   54 1    
   106   52  175 1    
   107   53  176 1    
   108   53  177 1    
   109   53  178 1    
   110   54   55 am   BACKBONE|DICT|INTERRES
   111   54  179 1    
   112   55   56 2    
   113   55   57 1    
   114   57   58 1    
   115   57   59 1    
   116   57  180 1    
   117   58  181 1    
   118   58  182 1    
   119   58  183 1    
   120   59   60 am   BACKBONE|DICT|INTERRES
   121   59  184 1    
   122   60   61 2    
   123   60   62 1    
   124   62   63 1    
   125   62   64 1    
   126   62  185 1    
   127   63  186 1    
   128   63  187 1    
   129   63  188 1    
   130   64   65 am   BACKBONE|DICT|INTERRES
   131   64  189 1    
   132   65   66 2    
   133   67   68 2    
   134   67   69 am   BACKBONE|DICT|INTERRES
   135   69   70 1    
   136   69  190 1    
   137   70   71 1    
   138   70   72 1    
   139   70  191 1    
   140   71  192 1    
   141   71  193 1    
   142   71  194 1    
   143   72   73 2    
   144   72   74 am   BACKBONE|DICT|INTERRES
   145   74   75 1    
   146   74  195 1    
   147   75   76 1    
   148   75   77 1    
   149   75  196 1    
   150   76  197 1    
   151   76  198 1    
   152   76  199 1    
   153   77   78 2    
   154   77   79 am   BACKBONE|DICT|INTERRES
   155   79   80 1    
   156   79  200 1    
   157   80   81 1    
   158   80   82 1    
   159   80  201 1    
   160   81  202 1    
   161   81  203 1    
   162   81  204 1    
   163   82   83 2    
   164   82   84 am   BACKBONE|DICT|INTERRES
   165   84   85 1    
   166   84  205 1    
   167   85   86 1    
   168   85   87 1    
   169   85  206 1    
   170   86  207 1    
   171   86  208 1    
   172   86  209 1    
   173   87   88 2    
   174   87   89 am   BACKBONE|DICT|INTERRES
   175   89   90 1    
   176   89  210 1    
   177   90   91 1    
   178   90   92 1    
   179   90  211 1    
   180   91  212 1    
   181   91  213 1    
   182   91  214 1    
   183   92   93 2    
   184   92   94 am   BACKBONE|DICT|INTERRES
   185   94   95 1    
   186   94  215 1    
   187   95   96 1    
   188   95   97 1    
   189   95  216 1    
   190   96  217 1    
   191   96  218 1    
   192   96  219 1    
   193   97   98 2    
   194   97   99 am   BACKBONE|DICT|INTERRES
   195   99  100 1    
   196   99  220 1    
   197  100  101 1    
   198  100  102 1    
   199  100  221 1    
   200  101  222 1    
   201  101  223 1    
   202  101  224 1    
   203  102  103 2    
   204  102  104 am   BACKBONE|DICT|INTERRES
   205  104  105 1    
   206  104  225 1    
   207  105  106 1    
   208  105  107 1    
   209  105  226 1    
   210  106  227 1    
   211  106  228 1    
   212  106  229 1    
   213  107  108 2    
   214  107  109 am   BACKBONE|DICT|INTERRES
   215  109  110 1    
   216  109  230 1    
   217  110  111 1    
   218  110  112 1    
   219  110  231 1    
   220  111  232 1    
   221  111  233 1    
   222  111  234 1    
   223  112  113 2    
   224  112  114 am   BACKBONE|DICT|INTERRES
   225  114  115 1    
   226  114  235 1    
   227  115  116 1    
   228  115  117 1    
   229  115  236 1    
   230  116  237 1    
   231  116  238 1    
   232  116  239 1    
   233  117  118 2    
   234  117  119 am   BACKBONE|DICT|INTERRES
   235  119  120 1    
   236  119  240 1    
   237  120  121 1    
   238  120  124 1    
   239  120  241 1    
   240  121  122 am   BACKBONE|DICT|INTERRES
   241  121  123 2    
   242  122  242 1    
   243  122  243 1    
   244  124  125 1    
   245  124  244 1    
   246  124  245 1    
   247  125  126 1    
   248  126  246 1    
   249  126  247 1    
@<TRIPOS>SUBSTRUCTURE
     1 UNK         1 GROUP             0       ****    0 ROOT    
