@<TRIPOS>MOLECULE
3R540
247   249    1
SMALL
USER_CHARGES


@<TRIPOS>ATOM
      1 CA          7.9866  -13.0318  -47.9828 C.3       0 UNK        -0.1800 
      2 C           6.6391  -13.3906  -47.3742 C.2       0 UNK         0.5000 
      3 O           6.0520  -12.5762  -46.6628 O.2       0 UNK        -0.5000 
      4 N           6.1382  -14.5992  -47.6634 N.am      1 UNK        -0.5000 
      5 CA          4.8593  -15.1399  -47.1779 C.3       1 UNK         0.1400 
      6 C6          4.6645  -16.6260  -47.5763 C.3       23 UNK        -0.0398 
      7 S7          4.8525  -16.9356  -49.3684 S.3       23 UNK        -0.2404 
      8 C8          5.0721  -18.7462  -49.4067 C.3       23 UNK        -0.0205 
      9 C9          3.8162  -19.5223  -49.0230 C.ar      23 UNK        -0.0193 
     10 C10         2.5730  -19.1851  -49.5686 C.ar      23 UNK        -0.1150 
     11 C11         1.4240  -19.9079  -49.2398 C.ar      23 UNK        -0.0193 
     12 C12         1.5340  -20.9955  -48.3678 C.ar      23 UNK        -0.1150 
     13 C13         2.7693  -21.3537  -47.8189 C.ar      23 UNK        -0.0193 
     14 C14         3.9056  -20.6094  -48.1477 C.ar      23 UNK        -0.1150 
     15 C15         2.8839  -22.5736  -46.9132 C.3       23 UNK        -0.0205 
     16 S16         2.8550  -22.1840  -45.1288 S.3       23 UNK        -0.2404 
     17 C17         1.2093  -21.4321  -44.8841 C.3       23 UNK        -0.0398 
     18 CA          0.0799  -22.4103  -44.4690 C.3       11 UNK         0.1400 
     19 N          -1.0971  -21.6837  -43.9753 N.am      11 UNK        -0.5000 
     20 C          -2.2267  -22.2223  -43.4892 C.2       10 UNK         0.5000 
     21 O          -2.3843  -23.4278  -43.2953 O.2       10 UNK        -0.5000 
     22 CA         -3.3853  -21.2546  -43.1802 C.3       10 UNK         0.1400 
     23 CB         -3.2808  -20.7167  -41.7446 C.3       10 UNK        -0.1800 
     24 N          -3.4327  -20.1301  -44.1156 N.am      10 UNK        -0.5000 
     25 C          -3.9993  -20.1678  -45.3305 C.2       9 UNK         0.5000 
     26 O          -4.6058  -21.1429  -45.7796 O.2       9 UNK        -0.5000 
     27 CA         -3.8489  -18.9032  -46.2020 C.3       9 UNK         0.1400 
     28 CB         -4.9763  -17.9024  -45.9068 C.3       9 UNK        -0.1800 
     29 N          -2.5647  -18.2192  -46.0356 N.am      9 UNK        -0.5000 
     30 C          -1.3598  -18.7603  -46.2590 C.2       8 UNK         0.5000 
     31 O          -1.1988  -19.9028  -46.6879 O.2       8 UNK        -0.5000 
     32 CA         -0.1358  -17.9094  -45.8557 C.3       8 UNK         0.1400 
     33 CB          0.2408  -16.9013  -46.9518 C.3       8 UNK        -0.1800 
     34 N          -0.3425  -17.1954  -44.5926 N.am      8 UNK        -0.5000 
     35 C          -0.5775  -17.7787  -43.4086 C.2       7 UNK         0.5000 
     36 O          -0.6228  -18.9964  -43.2504 O.2       7 UNK        -0.5000 
     37 CA         -0.8601  -16.8549  -42.2141 C.3       7 UNK         0.1400 
     38 CB          0.4482  -16.3874  -41.5584 C.3       7 UNK        -0.1800 
     39 N          -1.6550  -15.6992  -42.6252 N.am      7 UNK        -0.5000 
     40 C          -2.9842  -15.7246  -42.7958 C.2       6 UNK         0.5000 
     41 O          -3.6857  -16.7019  -42.5336 O.2       6 UNK        -0.5000 
     42 CA         -3.6393  -14.4571  -43.3806 C.3       6 UNK         0.1400 
     43 CB         -4.0402  -13.4905  -42.2563 C.3       6 UNK        -0.1800 
     44 N          -2.7824  -13.7526  -44.3374 N.am      6 UNK        -0.5000 
     45 C          -2.4202  -14.2393  -45.5326 C.2       5 UNK         0.5000 
     46 O          -2.8082  -15.3212  -45.9714 O.2       5 UNK        -0.5000 
     47 CA         -1.4159  -13.4051  -46.3540 C.3       5 UNK         0.1400 
     48 CB         -2.1560  -12.4216  -47.2716 C.3       5 UNK        -0.1800 
     49 N          -0.4266  -12.6697  -45.5581 N.am      5 UNK        -0.5000 
     50 C           0.3966  -13.2062  -44.6458 C.2       4 UNK         0.5000 
     51 O           0.3483  -14.3866  -44.2993 O.2       4 UNK        -0.5000 
     52 CA          1.4532  -12.2644  -44.0491 C.3       4 UNK         0.1400 
     53 CB          2.4156  -12.9789  -43.0831 C.3       4 UNK        -0.1800 
     54 N           2.2223  -11.6852  -45.1442 N.am      4 UNK        -0.5000 
     55 C           2.4265  -10.3794  -45.3577 C.2       3 UNK         0.5000 
     56 O           1.9968   -9.4934  -44.6181 O.2       3 UNK        -0.5000 
     57 CA          3.2417   -9.9853  -46.6072 C.3       3 UNK         0.1400 
     58 CB          4.6407   -9.4932  -46.2056 C.3       3 UNK        -0.1800 
     59 N           3.3766  -11.0789  -47.5728 N.am      3 UNK        -0.5000 
     60 C           2.3984  -11.4846  -48.3966 C.2       2 UNK         0.5000 
     61 O           1.3012  -10.9308  -48.4696 O.2       2 UNK        -0.5000 
     62 CA          2.6714  -12.7283  -49.2681 C.3       2 UNK         0.1400 
     63 CB          3.0623  -12.3100  -50.6934 C.3       2 UNK        -0.1800 
     64 N           3.7050  -13.6205  -48.7376 N.am      2 UNK        -0.5000 
     65 C           3.6370  -14.2812  -47.5728 C.2       1 UNK         0.5000 
     66 O           2.6859  -14.1903  -46.7985 O.2       1 UNK        -0.5000 
     67 C          -0.3049  -23.3652  -45.6173 C.2       11 UNK         0.5000 
     68 O           0.0780  -24.5353  -45.5879 O.2       11 UNK        -0.5000 
     69 N          -1.0907  -22.8498  -46.5764 N.am      12 UNK        -0.5000 
     70 CA         -1.8291  -23.5398  -47.6423 C.3       12 UNK         0.1400 
     71 CB         -2.8556  -24.5078  -47.0289 C.3       12 UNK        -0.1800 
     72 C          -1.0057  -24.2777  -48.7166 C.2       12 UNK         0.5000 
     73 O          -1.4575  -24.3488  -49.8591 O.2       12 UNK        -0.5000 
     74 N           0.1502  -24.8384  -48.3461 N.am      13 UNK        -0.5000 
     75 CA          0.9428  -25.8060  -49.1117 C.3       13 UNK         0.1400 
     76 CB          2.1763  -26.2016  -48.2857 C.3       13 UNK        -0.1800 
     77 C           1.3669  -25.3766  -50.5293 C.2       13 UNK         0.5000 
     78 O           1.5563  -26.2468  -51.3799 O.2       13 UNK        -0.5000 
     79 N           1.5014  -24.0653  -50.7712 N.am      14 UNK        -0.5000 
     80 CA          1.8335  -23.5157  -52.0879 C.3       14 UNK         0.1400 
     81 CB          2.3000  -22.0612  -51.9354 C.3       14 UNK        -0.1800 
     82 C           0.6663  -23.6119  -53.0917 C.2       14 UNK         0.5000 
     83 O           0.9169  -23.7233  -54.2926 O.2       14 UNK        -0.5000 
     84 N          -0.5755  -23.5760  -52.5898 N.am      15 UNK        -0.5000 
     85 CA         -1.7991  -23.7013  -53.3827 C.3       15 UNK         0.1400 
     86 CB         -2.8172  -22.6624  -52.8933 C.3       15 UNK        -0.1800 
     87 C          -2.4120  -25.1064  -53.2843 C.2       15 UNK         0.5000 
     88 O          -3.1016  -25.5268  -54.2130 O.2       15 UNK        -0.5000 
     89 N          -2.2043  -25.7810  -52.1441 N.am      16 UNK        -0.5000 
     90 CA         -2.7271  -27.0878  -51.7203 C.3       16 UNK         0.1400 
     91 CB         -2.3383  -28.2057  -52.7056 C.3       16 UNK        -0.1800 
     92 C          -4.2409  -27.0982  -51.4196 C.2       16 UNK         0.5000 
     93 O          -4.6697  -27.8189  -50.5183 O.2       16 UNK        -0.5000 
     94 N          -5.0183  -26.2828  -52.1435 N.am      17 UNK        -0.5000 
     95 CA         -6.4549  -26.0701  -51.9531 C.3       17 UNK         0.1400 
     96 CB         -7.0101  -25.3441  -53.1880 C.3       17 UNK        -0.1800 
     97 C          -6.8039  -25.2962  -50.6638 C.2       17 UNK         0.5000 
     98 O          -7.9356  -25.4103  -50.1909 O.2       17 UNK        -0.5000 
     99 N          -5.8249  -24.5532  -50.1218 N.am      18 UNK        -0.5000 
    100 CA        -5.8698  -23.7452  -48.8967 C.3       18 UNK         0.1400 
    101 CB        -6.2553  -24.6164  -47.6792 C.3       18 UNK        -0.1800 
    102 C         -6.7681  -22.4972  -48.9969 C.2       18 UNK         0.5000 
    103 O         -7.4298  -22.2700  -50.0127 O.2       18 UNK        -0.5000 
    104 N         -6.7561  -21.6972  -47.9212 N.am      19 UNK        -0.5000 
    105 CA        -7.5374  -20.4751  -47.7326 C.3       19 UNK         0.1400 
    106 CB        -9.0409  -20.8101  -47.5975 C.3       19 UNK        -0.1800 
    107 C         -7.2094  -19.4169  -48.8073 C.2       19 UNK         0.5000 
    108 O         -6.0299  -19.1617  -49.0618 O.2       19 UNK        -0.5000 
    109 N         -8.2459  -18.8343  -49.4253 N.am      20 UNK        -0.5000 
    110 CA        -8.1643  -17.7800  -50.4387 C.3       20 UNK         0.1400 
    111 CB        -9.5871  -17.3368  -50.8114 C.3       20 UNK        -0.1800 
    112 C         -7.3718  -18.1609  -51.7043 C.2       20 UNK         0.5000 
    113 O         -6.8295  -17.2689  -52.3581 O.2       20 UNK        -0.5000 
    114 N         -7.2704  -19.4641  -52.0095 N.am      21 UNK        -0.5000 
    115 CA        -6.4637  -19.9943  -53.1135 C.3       21 UNK         0.1400 
    116 CB        -6.7302  -21.4986  -53.2680 C.3       21 UNK        -0.1800 
    117 C         -4.9538  -19.7344  -52.9409 C.2       21 UNK         0.5000 
    118 O         -4.2426  -19.6334  -53.9407 O.2       21 UNK        -0.5000 
    119 N         -4.5046  -19.6066  -51.6851 N.am      22 UNK        -0.5000 
    120 CA        -3.1406  -19.2093  -51.3100 C.3       22 UNK         0.1400 
    121 C         -2.9561  -17.6628  -51.2001 C.2       22 UNK         0.5000 
    122 N         -3.9540  -16.8374  -51.4976 N.am      22 UNK        -0.7600 
    123 O         -1.8789  -17.1905  -50.8527 O.2       22 UNK        -0.5000 
    124 C124       -2.6740  -19.9637  -50.0301 C.3       23 UNK        -0.0398 
    125 S125       -1.0670  -20.8099  -50.2252 S.3       23 UNK        -0.2404 
    126 C126        0.0769  -19.4581  -49.7983 C.3       23 UNK        -0.0205 
    127 H127        8.3800  -13.8388  -48.6014 H         1 UNK         0.0600 
    128 H128        7.8916  -12.1414  -48.6044 H         1 UNK         0.0600 
    129 H129        8.7097  -12.8231  -47.1945 H         1 UNK         0.0600 
    130 H130        6.6585  -15.2155  -48.2721 H         1 UNK         0.3000 
    131 H131        4.9065  -15.1050  -46.0873 H         1 UNK         0.0600 
    132 H132        5.3982  -17.2349  -47.0464 H         1 UNK         0.0800 
    133 H133        3.6884  -16.9936  -47.2525 H         1 UNK         0.0800 
    134 H134        5.9087  -19.0150  -48.7600 H         1 UNK         0.0800 
    135 H135        5.3590  -19.0394  -50.4172 H         1 UNK         0.0800 
    136 H136        2.4984  -18.3467  -50.2467 H         1 UNK         0.1150 
    137 H137        0.6513  -21.5585  -48.1098 H         1 UNK         0.1150 
    138 H138        4.8633  -20.8894  -47.7317 H         1 UNK         0.1150 
    139 H139        2.0932  -23.2841  -47.1428 H         1 UNK         0.0800 
    140 H140        3.8167  -23.0946  -47.1338 H         1 UNK         0.0800 
    141 H141        0.9350  -20.8687  -45.7700 H         1 UNK         0.0800 
    142 H142        1.3373  -20.6858  -44.0992 H         1 UNK         0.0800 
    143 H143        0.4439  -23.0196  -43.6394 H         1 UNK         0.0600 
    144 H144       -1.0339  -20.6701  -43.9978 H         1 UNK         0.3000 
    145 H145       -4.3181  -21.8172  -43.2596 H         1 UNK         0.0600 
    146 H146       -4.1189  -20.0609  -41.5080 H         1 UNK         0.0600 
    147 H147       -3.2921  -21.5333  -41.0217 H         1 UNK         0.0600 
    148 H148       -2.3613  -20.1531  -41.5866 H         1 UNK         0.0600 
    149 H149       -2.9391  -19.2928  -43.8397 H         1 UNK         0.3000 
    150 H150       -3.9333  -19.2158  -47.2431 H         1 UNK         0.0600 
    151 H151       -5.9562  -18.3720  -45.9681 H         1 UNK         0.0600 
    152 H152       -4.9666  -17.0808  -46.6235 H         1 UNK         0.0600 
    153 H153       -4.8830  -17.4759  -44.9079 H         1 UNK         0.0600 
    154 H154       -2.6079  -17.2443  -45.7523 H         1 UNK         0.3000 
    155 H155        0.7157  -18.5747  -45.7095 H         1 UNK         0.0600 
    156 H156       -0.6364  -16.4153  -47.3792 H         1 UNK         0.0600 
    157 H157        0.7761  -17.3902  -47.7639 H         1 UNK         0.0600 
    158 H158        0.9007  -16.1242  -46.5678 H         1 UNK         0.0600 
    159 H159       -0.2638  -16.1828  -44.6185 H         1 UNK         0.3000 
    160 H160       -1.4203  -17.4266  -41.4708 H         1 UNK         0.0600 
    161 H161        0.2527  -15.7240  -40.7160 H         1 UNK         0.0600 
    162 H162        1.0919  -15.8579  -42.2606 H         1 UNK         0.0600 
    163 H163        1.0146  -17.2384  -41.1781 H         1 UNK         0.0600 
    164 H164       -1.1342  -14.8919  -42.9454 H         1 UNK         0.3000 
    165 H165       -4.5462  -14.7671  -43.9043 H         1 UNK         0.0600 
    166 H166       -4.5760  -12.6269  -42.6507 H         1 UNK         0.0600 
    167 H167       -4.6992  -13.9798  -41.5377 H         1 UNK         0.0600 
    168 H168       -3.1702  -13.1260  -41.7088 H         1 UNK         0.0600 
    169 H169       -2.4143  -12.8575  -44.0509 H         1 UNK         0.3000 
    170 H170       -0.8590  -14.0978  -46.9864 H         1 UNK         0.0600 
    171 H171       -2.8811  -12.9420  -47.8989 H         1 UNK         0.0600 
    172 H172       -2.6969  -11.6668  -46.6996 H         1 UNK         0.0600 
    173 H173       -1.4631  -11.9066  -47.9378 H         1 UNK         0.0600 
    174 H174       -0.3016  -11.6958  -45.7940 H         1 UNK         0.3000 
    175 H175        0.9169  -11.4919  -43.4947 H         1 UNK         0.0600 
    176 H176        2.9535  -13.7885  -43.5786 H         1 UNK         0.0600 
    177 H177        3.1532  -12.2856  -42.6788 H         1 UNK         0.0600 
    178 H178        1.8756  -13.4080  -42.2384 H         1 UNK         0.0600 
    179 H179        2.5615  -12.3543  -45.8278 H         1 UNK         0.3000 
    180 H180        2.7198   -9.1574  -47.0918 H         1 UNK         0.0600 
    181 H181        5.1949  -10.2569  -45.6595 H         1 UNK         0.0600 
    182 H182        4.5745   -8.6159  -45.5610 H         1 UNK         0.0600 
    183 H183        5.2281   -9.2105  -47.0794 H         1 UNK         0.0600 
    184 H184        4.2426  -11.6038  -47.5395 H         1 UNK         0.3000 
    185 H185        1.7404  -13.2966  -49.3203 H         1 UNK         0.0600 
    186 H186        2.2999  -11.6673  -51.1358 H         1 UNK         0.0600 
    187 H187        4.0040  -11.7597  -50.7064 H         1 UNK         0.0600 
    188 H188        3.1703  -13.1781  -51.3441 H         1 UNK         0.0600 
    189 H189        4.5309  -13.7461  -49.3046 H         1 UNK         0.3000 
    190 H190       -1.2732  -21.8497  -46.5255 H         1 UNK         0.3000 
    191 H191       -2.3824  -22.7594  -48.1666 H         1 UNK         0.0600 
    192 H192       -2.3824  -25.2657  -46.4044 H         1 UNK         0.0600 
    193 H193       -3.4042  -25.0397  -47.8059 H         1 UNK         0.0600 
    194 H194       -3.5776  -23.9727  -46.4120 H         1 UNK         0.0600 
    195 H195        0.3726  -24.7669  -47.3558 H         1 UNK         0.3000 
    196 H196        0.3182  -26.6939  -49.2273 H         1 UNK         0.0600 
    197 H197        2.7400  -26.9936  -48.7806 H         1 UNK         0.0600 
    198 H198        1.8921  -26.5737  -47.3011 H         1 UNK         0.0600 
    199 H199        2.8537  -25.3595  -48.1449 H         1 UNK         0.0600 
    200 H200        1.3179  -23.4076  -50.0282 H         1 UNK         0.3000 
    201 H201        2.6680  -24.0910  -52.4945 H         1 UNK         0.0600 
    202 H202        3.1044  -21.9728  -51.2048 H         1 UNK         0.0600 
    203 H203        1.4852  -21.4112  -51.6209 H         1 UNK         0.0600 
    204 H204        2.6754  -21.6729  -52.8827 H         1 UNK         0.0600 
    205 H205       -0.6936  -23.5117  -51.5850 H         1 UNK         0.3000 
    206 H206       -1.5942  -23.5020  -54.4365 H         1 UNK         0.0600 
    207 H207       -2.4312  -21.6546  -53.0370 H         1 UNK         0.0600 
    208 H208       -3.7526  -22.7325  -53.4499 H         1 UNK         0.0600 
    209 H209       -3.0508  -22.7852  -51.8349 H         1 UNK         0.0600 
    210 H210       -1.7138  -25.2810  -51.4065 H         1 UNK         0.3000 
    211 H211       -2.2266  -27.3008  -50.7743 H         1 UNK         0.0600 
    212 H212       -2.8366  -28.0953  -53.6688 H         1 UNK         0.0600 
    213 H213       -2.6141  -29.1836  -52.3093 H         1 UNK         0.0600 
    214 H214       -1.2626  -28.2177  -52.8820 H         1 UNK         0.0600 
    215 H215       -4.5774  -25.7883  -52.9115 H         1 UNK         0.3000 
    216 H216       -6.9370  -27.0475  -51.8858 H         1 UNK         0.0600 
    217 H217       -8.0776  -25.1458  -53.0822 H         1 UNK         0.0600 
    218 H218       -6.8787  -25.9437  -54.0889 H         1 UNK         0.0600 
    219 H219       -6.5114  -24.3884  -53.3476 H         1 UNK         0.0600 
    220 H220       -4.9488  -24.5295  -50.6215 H         1 UNK         0.3000 
    221 H221       -4.8541  -23.3774  -48.7511 H         1 UNK         0.0600 
    222 H222       -7.3191  -24.8557  -47.6730 H         1 UNK         0.0600 
    223 H223       -5.7069  -25.5582  -47.6699 H         1 UNK         0.0600 
    224 H224       -6.0364  -24.1058  -46.7410 H         1 UNK         0.0600 
    225 H225       -6.1141  -21.9053  -47.1646 H         1 UNK         0.3000 
    226 H226       -7.2148  -20.0574  -46.7802 H         1 UNK         0.0600 
    227 H227       -9.2025  -21.5554  -46.8186 H         1 UNK         0.0600 
    228 H228       -9.6205  -19.9300  -47.3165 H         1 UNK         0.0600 
    229 H229       -9.4604  -21.2081  -48.5224 H         1 UNK         0.0600 
    230 H230       -9.1763  -19.1288  -49.1667 H         1 UNK         0.3000 
    231 H231       -7.6504  -16.9312  -49.9830 H         1 UNK         0.0600 
    232 H232      -10.1272  -16.9666  -49.9397 H         1 UNK         0.0600 
    233 H233      -10.1634  -18.1567  -51.2420 H         1 UNK         0.0600 
    234 H234       -9.5664  -16.5295  -51.5448 H         1 UNK         0.0600 
    235 H235       -7.7124  -20.1427  -51.4034 H         1 UNK         0.3000 
    236 H236       -6.7843  -19.4942  -54.0298 H         1 UNK         0.0600 
    237 H237       -6.2277  -21.8922  -54.1524 H         1 UNK         0.0600 
    238 H238       -6.3636  -22.0610  -52.4091 H         1 UNK         0.0600 
    239 H239       -7.7945  -21.7070  -53.3785 H         1 UNK         0.0600 
    240 H240       -5.1718  -19.6437  -50.9223 H         1 UNK         0.3000 
    241 H241       -2.4794  -19.4969  -52.1283 H         1 UNK         0.0600 
    242 H242       -3.8008  -15.8447  -51.4242 H         1 UNK         0.3800 
    243 H243       -4.8531  -17.1794  -51.8137 H         1 UNK         0.3800 
    244 H244       -2.6403  -19.3079  -49.1597 H         1 UNK         0.0800 
    245 H245       -3.3906  -20.7408  -49.7599 H         1 UNK         0.0800 
    246 H246        0.2259  -18.8527  -50.6933 H         1 UNK         0.0800 
    247 H247       -0.3948  -18.8085  -49.0653 H         1 UNK         0.0800 
@<TRIPOS>BOND
     1    1    2 1    
     2    1  127 1    
     3    1  128 1    
     4    1  129 1    
     5    2    3 2    
     6    2    4 am   BACKBONE|DICT|INTERRES
     7    4    5 1    
     8    4  130 1    
     9    5    6 1    
    10    5   65 1    
    11    5  131 1    
    12    6    7 1    
    13    6  132 1    
    14    6  133 1    
    15    7    8 1    
    16    8    9 1    
    17    8  134 1    
    18    8  135 1    
    19    9   10 ar   
    20    9   14 ar   
    21   10   11 ar   
    22   10  136 1    
    23   11   12 ar   
    24   11  126 1    
    25   12   13 ar   
    26   12  137 1    
    27   13   14 ar   
    28   13   15 1    
    29   14  138 1    
    30   15   16 1    
    31   15  139 1    
    32   15  140 1    
    33   16   17 1    
    34   17   18 1    
    35   17  141 1    
    36   17  142 1    
    37   18   19 1    
    38   18   67 1    
    39   18  143 1    
    40   19   20 am   BACKBONE|DICT|INTERRES
    41   19  144 1    
    42   20   21 2    
    43   20   22 1    
    44   22   23 1    
    45   22   24 1    
    46   22  145 1    
    47   23  146 1    
    48   23  147 1    
    49   23  148 1    
    50   24   25 am   BACKBONE|DICT|INTERRES
    51   24  149 1    
    52   25   26 2    
    53   25   27 1    
    54   27   28 1    
    55   27   29 1    
    56   27  150 1    
    57   28  151 1    
    58   28  152 1    
    59   28  153 1    
    60   29   30 am   BACKBONE|DICT|INTERRES
    61   29  154 1    
    62   30   31 2    
    63   30   32 1    
    64   32   33 1    
    65   32   34 1    
    66   32  155 1    
    67   33  156 1    
    68   33  157 1    
    69   33  158 1    
    70   34   35 am   BACKBONE|DICT|INTERRES
    71   34  159 1    
    72   35   36 2    
    73   35   37 1    
    74   37   38 1    
    75   37   39 1    
    76   37  160 1    
    77   38  161 1    
    78   38  162 1    
    79   38  163 1    
    80   39   40 am   BACKBONE|DICT|INTERRES
    81   39  164 1    
    82   40   41 2    
    83   40   42 1    
    84   42   43 1    
    85   42   44 1    
    86   42  165 1    
    87   43  166 1    
    88   43  167 1    
    89   43  168 1    
    90   44   45 am   BACKBONE|DICT|INTERRES
    91   44  169 1    
    92   45   46 2    
    93   45   47 1    
    94   47   48 1    
    95   47   49 1    
    96   47  170 1    
    97   48  171 1    
    98   48  172 1    
    99   48  173 1    
   100   49   50 am   BACKBONE|DICT|INTERRES
   101   49  174 1    
   102   50   51 2    
   103   50   52 1    
   104   52   53 1    
   105   52   54 1    
   106   52  175 1    
   107   53  176 1    
   108   53  177 1    
   109   53  178 1    
   110   54   55 am   BACKBONE|DICT|INTERRES
   111   54  179 1    
   112   55   56 2    
   113   55   57 1    
   114   57   58 1    
   115   57   59 1    
   116   57  180 1    
   117   58  181 1    
   118   58  182 1    
   119   58  183 1    
   120   59   60 am   BACKBONE|DICT|INTERRES
   121   59  184 1    
   122   60   61 2    
   123   60   62 1    
   124   62   63 1    
   125   62   64 1    
   126   62  185 1    
   127   63  186 1    
   128   63  187 1    
   129   63  188 1    
   130   64   65 am   BACKBONE|DICT|INTERRES
   131   64  189 1    
   132   65   66 2    
   133   67   68 2    
   134   67   69 am   BACKBONE|DICT|INTERRES
   135   69   70 1    
   136   69  190 1    
   137   70   71 1    
   138   70   72 1    
   139   70  191 1    
   140   71  192 1    
   141   71  193 1    
   142   71  194 1    
   143   72   73 2    
   144   72   74 am   BACKBONE|DICT|INTERRES
   145   74   75 1    
   146   74  195 1    
   147   75   76 1    
   148   75   77 1    
   149   75  196 1    
   150   76  197 1    
   151   76  198 1    
   152   76  199 1    
   153   77   78 2    
   154   77   79 am   BACKBONE|DICT|INTERRES
   155   79   80 1    
   156   79  200 1    
   157   80   81 1    
   158   80   82 1    
   159   80  201 1    
   160   81  202 1    
   161   81  203 1    
   162   81  204 1    
   163   82   83 2    
   164   82   84 am   BACKBONE|DICT|INTERRES
   165   84   85 1    
   166   84  205 1    
   167   85   86 1    
   168   85   87 1    
   169   85  206 1    
   170   86  207 1    
   171   86  208 1    
   172   86  209 1    
   173   87   88 2    
   174   87   89 am   BACKBONE|DICT|INTERRES
   175   89   90 1    
   176   89  210 1    
   177   90   91 1    
   178   90   92 1    
   179   90  211 1    
   180   91  212 1    
   181   91  213 1    
   182   91  214 1    
   183   92   93 2    
   184   92   94 am   BACKBONE|DICT|INTERRES
   185   94   95 1    
   186   94  215 1    
   187   95   96 1    
   188   95   97 1    
   189   95  216 1    
   190   96  217 1    
   191   96  218 1    
   192   96  219 1    
   193   97   98 2    
   194   97   99 am   BACKBONE|DICT|INTERRES
   195   99  100 1    
   196   99  220 1    
   197  100  101 1    
   198  100  102 1    
   199  100  221 1    
   200  101  222 1    
   201  101  223 1    
   202  101  224 1    
   203  102  103 2    
   204  102  104 am   BACKBONE|DICT|INTERRES
   205  104  105 1    
   206  104  225 1    
   207  105  106 1    
   208  105  107 1    
   209  105  226 1    
   210  106  227 1    
   211  106  228 1    
   212  106  229 1    
   213  107  108 2    
   214  107  109 am   BACKBONE|DICT|INTERRES
   215  109  110 1    
   216  109  230 1    
   217  110  111 1    
   218  110  112 1    
   219  110  231 1    
   220  111  232 1    
   221  111  233 1    
   222  111  234 1    
   223  112  113 2    
   224  112  114 am   BACKBONE|DICT|INTERRES
   225  114  115 1    
   226  114  235 1    
   227  115  116 1    
   228  115  117 1    
   229  115  236 1    
   230  116  237 1    
   231  116  238 1    
   232  116  239 1    
   233  117  118 2    
   234  117  119 am   BACKBONE|DICT|INTERRES
   235  119  120 1    
   236  119  240 1    
   237  120  121 1    
   238  120  124 1    
   239  120  241 1    
   240  121  122 am   BACKBONE|DICT|INTERRES
   241  121  123 2    
   242  122  242 1    
   243  122  243 1    
   244  124  125 1    
   245  124  244 1    
   246  124  245 1    
   247  125  126 1    
   248  126  246 1    
   249  126  247 1    
@<TRIPOS>SUBSTRUCTURE
     1 UNK         1 GROUP             0       ****    0 ROOT    
