@<TRIPOS>MOLECULE
3R540
247   249    1
SMALL
USER_CHARGES


@<TRIPOS>ATOM
      1 CA         -1.6918  -10.7985  -51.2679 C.3       0 UNK        -0.1800 
      2 C          -1.1064  -11.3292  -49.9673 C.2       0 UNK         0.5000 
      3 O          -1.8578  -11.7392  -49.0820 O.2       0 UNK        -0.5000 
      4 N           0.2286  -11.3137  -49.8462 N.am      1 UNK        -0.5000 
      5 CA          1.0406  -11.7888  -48.7163 C.3       1 UNK         0.1400 
      6 C6          0.7995  -13.2853  -48.3787 C.3       23 UNK        -0.0398 
      7 S7          2.0144  -13.9939  -47.2111 S.3       23 UNK        -0.2404 
      8 C8          1.0455  -15.3381  -46.4555 C.3       23 UNK        -0.0205 
      9 C9          0.7722  -16.4606  -47.4426 C.ar      23 UNK        -0.0193 
     10 C10        -0.3744  -16.4338  -48.2406 C.ar      23 UNK        -0.1150 
     11 C11        -0.6007  -17.4296  -49.1933 C.ar      23 UNK        -0.0193 
     12 C12         0.3164  -18.4766  -49.3239 C.ar      23 UNK        -0.1150 
     13 C13         1.4504  -18.5346  -48.5052 C.ar      23 UNK        -0.0193 
     14 C14         1.6730  -17.5208  -47.5686 C.ar      23 UNK        -0.1150 
     15 C15         2.4571  -19.6704  -48.6440 C.3       23 UNK        -0.0205 
     16 S16         1.6985  -21.3239  -48.5459 S.3       23 UNK        -0.2404 
     17 C17         0.9445  -21.2864  -46.8841 C.3       23 UNK        -0.0398 
     18 CA          0.0995  -22.5491  -46.5941 C.3       11 UNK         0.1400 
     19 N          -0.1991  -22.6877  -45.1693 N.am      11 UNK        -0.5000 
     20 C          -0.7806  -23.7550  -44.6044 C.2       10 UNK         0.5000 
     21 O          -1.0852  -24.7791  -45.2159 O.2       10 UNK        -0.5000 
     22 CA         -1.1290  -23.6317  -43.1123 C.3       10 UNK         0.1400 
     23 CB          0.1055  -23.8850  -42.2345 C.3       10 UNK        -0.1800 
     24 N          -1.7011  -22.3232  -42.7943 N.am      10 UNK        -0.5000 
     25 C          -2.9049  -21.9054  -43.2101 C.2       9 UNK         0.5000 
     26 O          -3.6730  -22.5907  -43.8844 O.2       9 UNK        -0.5000 
     27 CA         -3.3004  -20.4655  -42.8397 C.3       9 UNK         0.1400 
     28 CB         -3.8540  -20.4046  -41.4084 C.3       9 UNK        -0.1800 
     29 N          -2.1899  -19.5216  -42.9736 N.am      9 UNK        -0.5000 
     30 C          -1.6244  -19.1834  -44.1406 C.2       8 UNK         0.5000 
     31 O          -1.9644  -19.6449  -45.2286 O.2       8 UNK        -0.5000 
     32 CA         -0.4525  -18.1908  -44.0725 C.3       8 UNK         0.1400 
     33 CB         -0.9732  -16.7573  -43.8857 C.3       8 UNK        -0.1800 
     34 N           0.5182  -18.4889  -43.0171 N.am      8 UNK        -0.5000 
     35 C           1.1975  -19.6375  -42.8809 C.2       7 UNK         0.5000 
     36 O           0.9755  -20.6448  -43.5546 O.2       7 UNK        -0.5000 
     37 CA          2.3169  -19.6488  -41.8155 C.3       7 UNK         0.1400 
     38 CB          3.3374  -20.7838  -42.0415 C.3       7 UNK        -0.1800 
     39 N           3.0121  -18.3595  -41.6734 N.am      7 UNK        -0.5000 
     40 C           3.6583  -17.6791  -42.6340 C.2       6 UNK         0.5000 
     41 O           3.7075  -18.0407  -43.8120 O.2       6 UNK        -0.5000 
     42 CA          4.3252  -16.3619  -42.1812 C.3       6 UNK         0.1400 
     43 CB          5.4935  -16.6155  -41.2059 C.3       6 UNK        -0.1800 
     44 N           4.7393  -15.5071  -43.2998 N.am      6 UNK        -0.5000 
     45 C           5.7043  -15.7225  -44.2096 C.2       5 UNK         0.5000 
     46 O           6.5043  -16.6584  -44.1656 O.2       5 UNK        -0.5000 
     47 CA          5.7909  -14.7284  -45.3871 C.3       5 UNK         0.1400 
     48 CB          5.3223  -15.4027  -46.6864 C.3       5 UNK        -0.1800 
     49 N           5.0064  -13.5087  -45.1742 N.am      5 UNK        -0.5000 
     50 C           5.3962  -12.4868  -44.3994 C.2       4 UNK         0.5000 
     51 O           6.4871  -12.4407  -43.8297 O.2       4 UNK        -0.5000 
     52 CA          4.3949  -11.3318  -44.2068 C.3       4 UNK         0.1400 
     53 CB          4.6743  -10.2091  -45.2163 C.3       4 UNK        -0.1800 
     54 N           2.9875  -11.7373  -44.3006 N.am      4 UNK        -0.5000 
     55 C           2.3690  -12.5428  -43.4217 C.2       3 UNK         0.5000 
     56 O           2.9631  -13.1059  -42.5016 O.2       3 UNK        -0.5000 
     57 CA          0.8578  -12.8098  -43.6041 C.3       3 UNK         0.1400 
     58 CB          0.0999  -12.8453  -42.2614 C.3       3 UNK        -0.1800 
     59 N           0.1889  -11.9277  -44.5664 N.am      3 UNK        -0.5000 
     60 C          -0.0076  -10.6019  -44.4868 C.2       2 UNK         0.5000 
     61 O           0.3040   -9.9170  -43.5117 O.2       2 UNK        -0.5000 
     62 CA         -0.6314   -9.9396  -45.7391 C.3       2 UNK         0.1400 
     63 CB         -0.2922   -8.4389  -45.8518 C.3       2 UNK        -0.1800 
     64 N          -0.2926  -10.6409  -46.9872 N.am      2 UNK        -0.5000 
     65 C           0.9354  -10.8882  -47.4667 C.2       1 UNK         0.5000 
     66 O           1.9663  -10.4764  -46.9358 O.2       1 UNK        -0.5000 
     67 C          -1.1862  -22.6012  -47.4451 C.2       11 UNK         0.5000 
     68 O          -1.2412  -23.3701  -48.4038 O.2       11 UNK        -0.5000 
     69 N          -2.2152  -21.8366  -47.0485 N.am      12 UNK        -0.5000 
     70 CA         -3.5308  -21.8319  -47.6863 C.3       12 UNK         0.1400 
     71 CB         -4.4190  -20.7470  -47.0620 C.3       12 UNK        -0.1800 
     72 C          -4.2250  -23.2029  -47.6345 C.2       12 UNK         0.5000 
     73 O          -4.7618  -23.6353  -48.6533 O.2       12 UNK        -0.5000 
     74 N          -4.1736  -23.8779  -46.4773 N.am      13 UNK        -0.5000 
     75 CA         -4.7043  -25.2289  -46.2858 C.3       13 UNK         0.1400 
     76 CB         -4.6153  -25.6225  -44.8039 C.3       13 UNK        -0.1800 
     77 C          -4.0069  -26.2724  -47.1772 C.2       13 UNK         0.5000 
     78 O          -4.6907  -27.0497  -47.8450 O.2       13 UNK        -0.5000 
     79 N          -2.6667  -26.2357  -47.2164 N.am      14 UNK        -0.5000 
     80 CA         -1.8331  -27.0841  -48.0737 C.3       14 UNK         0.1400 
     81 CB         -0.3540  -26.8709  -47.7187 C.3       14 UNK        -0.1800 
     82 C          -2.0718  -26.8428  -49.5772 C.2       14 UNK         0.5000 
     83 O          -2.0456  -27.7924  -50.3602 O.2       14 UNK        -0.5000 
     84 N          -2.3438  -25.5842  -49.9415 N.am      15 UNK        -0.5000 
     85 CA         -2.6875  -25.1357  -51.2895 C.3       15 UNK         0.1400 
     86 CB         -2.2270  -23.6785  -51.4500 C.3       15 UNK        -0.1800 
     87 C          -4.1818  -25.3025  -51.6443 C.2       15 UNK         0.5000 
     88 O          -4.6110  -24.7496  -52.6577 O.2       15 UNK        -0.5000 
     89 N          -4.9415  -26.0508  -50.8284 N.am      16 UNK        -0.5000 
     90 CA         -6.3537  -26.4076  -51.0011 C.3       16 UNK         0.1400 
     91 CB         -6.5459  -27.2869  -52.2551 C.3       16 UNK        -0.1800 
     92 C          -7.2758  -25.1735  -50.9823 C.2       16 UNK         0.5000 
     93 O          -7.9367  -24.8709  -51.9761 O.2       16 UNK        -0.5000 
     94 N          -7.2673  -24.4654  -49.8448 N.am      17 UNK        -0.5000 
     95 CA         -7.9539  -23.1927  -49.5867 C.3       17 UNK         0.1400 
     96 CB         -9.4871  -23.3492  -49.6663 C.3       17 UNK        -0.1800 
     97 C          -7.4029  -22.0576  -50.4741 C.2       17 UNK         0.5000 
     98 O          -8.1635  -21.2456  -51.0024 O.2       17 UNK        -0.5000 
     99 N          -6.0711  -22.0561  -50.6252 N.am      18 UNK        -0.5000 
    100 CA        -5.2429  -21.1483  -51.4220 C.3       18 UNK         0.1400 
    101 CB        -5.3408  -19.7005  -50.9002 C.3       18 UNK        -0.1800 
    102 C         -5.4630  -21.2340  -52.9459 C.2       18 UNK         0.5000 
    103 O         -4.9209  -20.3963  -53.6664 O.2       18 UNK        -0.5000 
    104 N         -6.1988  -22.2429  -53.4332 N.am      19 UNK        -0.5000 
    105 CA        -6.5008  -22.4528  -54.8526 C.3       19 UNK         0.1400 
    106 CB        -7.4686  -23.6358  -54.9965 C.3       19 UNK        -0.1800 
    107 C         -5.2501  -22.6727  -55.7248 C.2       19 UNK         0.5000 
    108 O         -5.2125  -22.2048  -56.8632 O.2       19 UNK        -0.5000 
    109 N         -4.2418  -23.3494  -55.1623 N.am      20 UNK        -0.5000 
    110 CA        -2.9389  -23.5851  -55.7855 C.3       20 UNK         0.1400 
    111 CB        -2.4400  -24.9757  -55.3581 C.3       20 UNK        -0.1800 
    112 C         -1.9003  -22.4932  -55.4450 C.2       20 UNK         0.5000 
    113 O         -0.7352  -22.6472  -55.8153 O.2       20 UNK        -0.5000 
    114 N         -2.3111  -21.4312  -54.7385 N.am      21 UNK        -0.5000 
    115 CA        -1.4545  -20.3414  -54.2811 C.3       21 UNK         0.1400 
    116 CB        -1.1467  -20.5281  -52.7795 C.3       21 UNK        -0.1800 
    117 C         -2.1098  -18.9938  -54.6310 C.2       21 UNK         0.5000 
    118 O         -2.1590  -18.6379  -55.8093 O.2       21 UNK        -0.5000 
    119 N         -2.5666  -18.2601  -53.6095 N.am      22 UNK        -0.5000 
    120 CA        -3.1019  -16.8919  -53.7002 C.3       22 UNK         0.1400 
    121 C         -4.4655  -16.7423  -54.4371 C.2       22 UNK         0.5000 
    122 N         -5.2342  -17.8003  -54.6552 N.am      22 UNK        -0.7600 
    123 O         -4.8311  -15.6357  -54.8245 O.2       22 UNK        -0.5000 
    124 C124       -3.1644  -16.2139  -52.3065 C.3       23 UNK        -0.0398 
    125 S125       -1.5488  -16.1793  -51.4552 S.3       23 UNK        -0.2404 
    126 C126       -1.8254  -17.3523  -50.0903 C.3       23 UNK        -0.0205 
    127 H127       -0.9161  -10.4518  -51.9512 H         1 UNK         0.0600 
    128 H128       -2.3636   -9.9647  -51.0641 H         1 UNK         0.0600 
    129 H129       -2.2608  -11.5821  -51.7686 H         1 UNK         0.0600 
    130 H130        0.7679  -10.9286  -50.6096 H         1 UNK         0.3000 
    131 H131        2.0718  -11.7048  -49.0635 H         1 UNK         0.0600 
    132 H132       -0.2029  -13.4254  -47.9741 H         1 UNK         0.0800 
    133 H133        0.8398  -13.8784  -49.2936 H         1 UNK         0.0800 
    134 H134        1.5967  -15.7288  -45.5985 H         1 UNK         0.0800 
    135 H135        0.1062  -14.9428  -46.0678 H         1 UNK         0.0800 
    136 H136       -1.0800  -15.6210  -48.1454 H         1 UNK         0.1150 
    137 H137        0.1501  -19.2490  -50.0611 H         1 UNK         0.1150 
    138 H138        2.5556  -17.5474  -46.9445 H         1 UNK         0.1150 
    139 H139        2.9631  -19.5726  -49.6051 H         1 UNK         0.0800 
    140 H140        3.2320  -19.5980  -47.8790 H         1 UNK         0.0800 
    141 H141        0.3434  -20.3833  -46.7650 H         1 UNK         0.0800 
    142 H142        1.7566  -21.2072  -46.1599 H         1 UNK         0.0800 
    143 H143        0.7003  -23.4203  -46.8648 H         1 UNK         0.0600 
    144 H144        0.0552  -21.9012  -44.5759 H         1 UNK         0.3000 
    145 H145       -1.8740  -24.3952  -42.8783 H         1 UNK         0.0600 
    146 H146       -0.1497  -23.8513  -41.1753 H         1 UNK         0.0600 
    147 H147        0.5299  -24.8694  -42.4357 H         1 UNK         0.0600 
    148 H148        0.8881  -23.1483  -42.4152 H         1 UNK         0.0600 
    149 H149       -1.1110  -21.6773  -42.2918 H         1 UNK         0.3000 
    150 H150       -4.0927  -20.1538  -43.5237 H         1 UNK         0.0600 
    151 H151       -4.6948  -21.0889  -41.2863 H         1 UNK         0.0600 
    152 H152       -4.2136  -19.4041  -41.1672 H         1 UNK         0.0600 
    153 H153       -3.0988  -20.6774  -40.6703 H         1 UNK         0.0600 
    154 H154       -1.8362  -19.1039  -42.1256 H         1 UNK         0.3000 
    155 H155        0.0794  -18.2421  -45.0247 H         1 UNK         0.0600 
    156 H156       -1.5515  -16.6528  -42.9669 H         1 UNK         0.0600 
    157 H157       -0.1540  -16.0415  -43.8407 H         1 UNK         0.0600 
    158 H158       -1.6186  -16.4665  -44.7156 H         1 UNK         0.0600 
    159 H159        0.7663  -17.7241  -42.4077 H         1 UNK         0.3000 
    160 H160        1.8214  -19.8381  -40.8624 H         1 UNK         0.0600 
    161 H161        3.8278  -20.6978  -43.0118 H         1 UNK         0.0600 
    162 H162        2.8553  -21.7608  -42.0047 H         1 UNK         0.0600 
    163 H163        4.1108  -20.7776  -41.2736 H         1 UNK         0.0600 
    164 H164        3.0086  -17.9730  -40.7395 H         1 UNK         0.3000 
    165 H165        3.5641  -15.7904  -41.6477 H         1 UNK         0.0600 
    166 H166        5.9861  -15.6830  -40.9301 H         1 UNK         0.0600 
    167 H167        5.1423  -17.0785  -40.2834 H         1 UNK         0.0600 
    168 H168        6.2456  -17.2797  -41.6322 H         1 UNK         0.0600 
    169 H169        4.1726  -14.6772  -43.4182 H         1 UNK         0.3000 
    170 H170        6.8403  -14.4523  -45.5099 H         1 UNK         0.0600 
    171 H171        4.3050  -15.7836  -46.5955 H         1 UNK         0.0600 
    172 H172        5.3512  -14.7111  -47.5286 H         1 UNK         0.0600 
    173 H173        5.9626  -16.2489  -46.9383 H         1 UNK         0.0600 
    174 H174        4.1015  -13.4619  -45.6219 H         1 UNK         0.3000 
    175 H175        4.5528  -10.9285  -43.2043 H         1 UNK         0.0600 
    176 H176        3.9930   -9.3699  -45.0744 H         1 UNK         0.0600 
    177 H177        4.5683  -10.5584  -46.2440 H         1 UNK         0.0600 
    178 H178        5.6897   -9.8271  -45.1041 H         1 UNK         0.0600 
    179 H179        2.4535  -11.3256  -45.0579 H         1 UNK         0.3000 
    180 H180        0.7951  -13.8104  -44.0285 H         1 UNK         0.0600 
    181 H181        0.1795  -11.8998  -41.7246 H         1 UNK         0.0600 
    182 H182        0.4953  -13.6238  -41.6079 H         1 UNK         0.0600 
    183 H183       -0.9583  -13.0591  -42.4116 H         1 UNK         0.0600 
    184 H184       -0.1049  -12.3728  -45.4233 H         1 UNK         0.3000 
    185 H185       -1.7124  -10.0270  -45.6219 H         1 UNK         0.0600 
    186 H186       -0.6698   -7.8861  -44.9909 H         1 UNK         0.0600 
    187 H187        0.7837   -8.2690  -45.9024 H         1 UNK         0.0600 
    188 H188       -0.7434   -7.9990  -46.7411 H         1 UNK         0.0600 
    189 H189       -1.0746  -11.0138  -47.5213 H         1 UNK         0.3000 
    190 H190       -2.0897  -21.1958  -46.2683 H         1 UNK         0.3000 
    191 H191       -3.3826  -21.5784  -48.7377 H         1 UNK         0.0600 
    192 H192       -3.9841  -19.7568  -47.1994 H         1 UNK         0.0600 
    193 H193       -5.4071  -20.7354  -47.5239 H         1 UNK         0.0600 
    194 H194       -4.5572  -20.9062  -45.9923 H         1 UNK         0.0600 
    195 H195       -3.7548  -23.4348  -45.6650 H         1 UNK         0.3000 
    196 H196       -5.7598  -25.2104  -46.5646 H         1 UNK         0.0600 
    197 H197       -5.0119  -26.6253  -44.6408 H         1 UNK         0.0600 
    198 H198       -5.1930  -24.9397  -44.1807 H         1 UNK         0.0600 
    199 H199       -3.5865  -25.6130  -44.4438 H         1 UNK         0.0600 
    200 H200       -2.1757  -25.5767  -46.6176 H         1 UNK         0.3000 
    201 H201       -2.0885  -28.1241  -47.8613 H         1 UNK         0.0600 
    202 H202       -0.1602  -27.1170  -46.6746 H         1 UNK         0.0600 
    203 H203       -0.0469  -25.8370  -47.8802 H         1 UNK         0.0600 
    204 H204        0.2907  -27.5052  -48.3283 H         1 UNK         0.0600 
    205 H205       -2.2787  -24.8565  -49.2358 H         1 UNK         0.3000 
    206 H206       -2.1309  -25.7397  -52.0081 H         1 UNK         0.0600 
    207 H207       -1.1466  -23.5966  -51.3309 H         1 UNK         0.0600 
    208 H208       -2.4738  -23.2801  -52.4338 H         1 UNK         0.0600 
    209 H209       -2.6883  -23.0352  -50.7027 H         1 UNK         0.0600 
    210 H210       -4.5077  -26.4132  -49.9885 H         1 UNK         0.3000 
    211 H211       -6.6258  -27.0126  -50.1349 H         1 UNK         0.0600 
    212 H212       -6.3128  -26.7480  -53.1739 H         1 UNK         0.0600 
    213 H213       -7.5779  -27.6305  -52.3333 H         1 UNK         0.0600 
    214 H214       -5.9107  -28.1717  -52.2160 H         1 UNK         0.0600 
    215 H215       -6.6014  -24.7403  -49.1333 H         1 UNK         0.3000 
    216 H216       -7.7071  -22.9188  -48.5598 H         1 UNK         0.0600 
    217 H217       -9.9877  -22.4404  -49.3305 H         1 UNK         0.0600 
    218 H218       -9.8337  -24.1639  -49.0305 H         1 UNK         0.0600 
    219 H219       -9.8260  -23.5488  -50.6831 H         1 UNK         0.0600 
    220 H220       -5.5613  -22.7757  -50.1179 H         1 UNK         0.3000 
    221 H221       -4.2166  -21.4722  -51.2623 H         1 UNK         0.0600 
    222 H222       -6.3262  -19.2705  -51.0807 H         1 UNK         0.0600 
    223 H223       -5.1425  -19.6504  -49.8301 H         1 UNK         0.0600 
    224 H224       -4.6119  -19.0566  -51.3919 H         1 UNK         0.0600 
    225 H225       -6.5695  -22.9286  -52.7888 H         1 UNK         0.3000 
    226 H226       -7.0026  -21.5544  -55.2175 H         1 UNK         0.0600 
    227 H227       -8.3928  -23.4587  -54.4460 H         1 UNK         0.0600 
    228 H228       -7.7372  -23.7988  -56.0409 H         1 UNK         0.0600 
    229 H229       -7.0276  -24.5604  -54.6211 H         1 UNK         0.0600 
    230 H230       -4.3781  -23.7340  -54.2293 H         1 UNK         0.3000 
    231 H231       -3.0508  -23.5927  -56.8715 H         1 UNK         0.0600 
    232 H232       -2.2260  -25.0139  -54.2911 H         1 UNK         0.0600 
    233 H233       -1.5238  -25.2442  -55.8853 H         1 UNK         0.0600 
    234 H234       -3.1784  -25.7464  -55.5799 H         1 UNK         0.0600 
    235 H235       -3.2985  -21.3271  -54.5327 H         1 UNK         0.3000 
    236 H236       -0.5037  -20.3543  -54.8175 H         1 UNK         0.0600 
    237 H237       -0.5812  -21.4449  -52.6137 H         1 UNK         0.0600 
    238 H238       -0.5366  -19.7089  -52.3968 H         1 UNK         0.0600 
    239 H239       -2.0533  -20.5870  -52.1770 H         1 UNK         0.0600 
    240 H240       -2.4883  -18.6387  -52.6800 H         1 UNK         0.3000 
    241 H241       -2.3878  -16.3244  -54.3001 H         1 UNK         0.0600 
    242 H242       -6.1084  -17.6819  -55.1400 H         1 UNK         0.3800 
    243 H243       -4.9679  -18.7256  -54.3228 H         1 UNK         0.3800 
    244 H244       -3.4953  -15.1784  -52.4051 H         1 UNK         0.0800 
    245 H245       -3.9059  -16.7047  -51.6745 H         1 UNK         0.0800 
    246 H246       -2.6886  -17.0348  -49.5031 H         1 UNK         0.0800 
    247 H247       -2.0666  -18.3377  -50.4905 H         1 UNK         0.0800 
@<TRIPOS>BOND
     1    1    2 1    
     2    1  127 1    
     3    1  128 1    
     4    1  129 1    
     5    2    3 2    
     6    2    4 am   BACKBONE|DICT|INTERRES
     7    4    5 1    
     8    4  130 1    
     9    5    6 1    
    10    5   65 1    
    11    5  131 1    
    12    6    7 1    
    13    6  132 1    
    14    6  133 1    
    15    7    8 1    
    16    8    9 1    
    17    8  134 1    
    18    8  135 1    
    19    9   10 ar   
    20    9   14 ar   
    21   10   11 ar   
    22   10  136 1    
    23   11   12 ar   
    24   11  126 1    
    25   12   13 ar   
    26   12  137 1    
    27   13   14 ar   
    28   13   15 1    
    29   14  138 1    
    30   15   16 1    
    31   15  139 1    
    32   15  140 1    
    33   16   17 1    
    34   17   18 1    
    35   17  141 1    
    36   17  142 1    
    37   18   19 1    
    38   18   67 1    
    39   18  143 1    
    40   19   20 am   BACKBONE|DICT|INTERRES
    41   19  144 1    
    42   20   21 2    
    43   20   22 1    
    44   22   23 1    
    45   22   24 1    
    46   22  145 1    
    47   23  146 1    
    48   23  147 1    
    49   23  148 1    
    50   24   25 am   BACKBONE|DICT|INTERRES
    51   24  149 1    
    52   25   26 2    
    53   25   27 1    
    54   27   28 1    
    55   27   29 1    
    56   27  150 1    
    57   28  151 1    
    58   28  152 1    
    59   28  153 1    
    60   29   30 am   BACKBONE|DICT|INTERRES
    61   29  154 1    
    62   30   31 2    
    63   30   32 1    
    64   32   33 1    
    65   32   34 1    
    66   32  155 1    
    67   33  156 1    
    68   33  157 1    
    69   33  158 1    
    70   34   35 am   BACKBONE|DICT|INTERRES
    71   34  159 1    
    72   35   36 2    
    73   35   37 1    
    74   37   38 1    
    75   37   39 1    
    76   37  160 1    
    77   38  161 1    
    78   38  162 1    
    79   38  163 1    
    80   39   40 am   BACKBONE|DICT|INTERRES
    81   39  164 1    
    82   40   41 2    
    83   40   42 1    
    84   42   43 1    
    85   42   44 1    
    86   42  165 1    
    87   43  166 1    
    88   43  167 1    
    89   43  168 1    
    90   44   45 am   BACKBONE|DICT|INTERRES
    91   44  169 1    
    92   45   46 2    
    93   45   47 1    
    94   47   48 1    
    95   47   49 1    
    96   47  170 1    
    97   48  171 1    
    98   48  172 1    
    99   48  173 1    
   100   49   50 am   BACKBONE|DICT|INTERRES
   101   49  174 1    
   102   50   51 2    
   103   50   52 1    
   104   52   53 1    
   105   52   54 1    
   106   52  175 1    
   107   53  176 1    
   108   53  177 1    
   109   53  178 1    
   110   54   55 am   BACKBONE|DICT|INTERRES
   111   54  179 1    
   112   55   56 2    
   113   55   57 1    
   114   57   58 1    
   115   57   59 1    
   116   57  180 1    
   117   58  181 1    
   118   58  182 1    
   119   58  183 1    
   120   59   60 am   BACKBONE|DICT|INTERRES
   121   59  184 1    
   122   60   61 2    
   123   60   62 1    
   124   62   63 1    
   125   62   64 1    
   126   62  185 1    
   127   63  186 1    
   128   63  187 1    
   129   63  188 1    
   130   64   65 am   BACKBONE|DICT|INTERRES
   131   64  189 1    
   132   65   66 2    
   133   67   68 2    
   134   67   69 am   BACKBONE|DICT|INTERRES
   135   69   70 1    
   136   69  190 1    
   137   70   71 1    
   138   70   72 1    
   139   70  191 1    
   140   71  192 1    
   141   71  193 1    
   142   71  194 1    
   143   72   73 2    
   144   72   74 am   BACKBONE|DICT|INTERRES
   145   74   75 1    
   146   74  195 1    
   147   75   76 1    
   148   75   77 1    
   149   75  196 1    
   150   76  197 1    
   151   76  198 1    
   152   76  199 1    
   153   77   78 2    
   154   77   79 am   BACKBONE|DICT|INTERRES
   155   79   80 1    
   156   79  200 1    
   157   80   81 1    
   158   80   82 1    
   159   80  201 1    
   160   81  202 1    
   161   81  203 1    
   162   81  204 1    
   163   82   83 2    
   164   82   84 am   BACKBONE|DICT|INTERRES
   165   84   85 1    
   166   84  205 1    
   167   85   86 1    
   168   85   87 1    
   169   85  206 1    
   170   86  207 1    
   171   86  208 1    
   172   86  209 1    
   173   87   88 2    
   174   87   89 am   BACKBONE|DICT|INTERRES
   175   89   90 1    
   176   89  210 1    
   177   90   91 1    
   178   90   92 1    
   179   90  211 1    
   180   91  212 1    
   181   91  213 1    
   182   91  214 1    
   183   92   93 2    
   184   92   94 am   BACKBONE|DICT|INTERRES
   185   94   95 1    
   186   94  215 1    
   187   95   96 1    
   188   95   97 1    
   189   95  216 1    
   190   96  217 1    
   191   96  218 1    
   192   96  219 1    
   193   97   98 2    
   194   97   99 am   BACKBONE|DICT|INTERRES
   195   99  100 1    
   196   99  220 1    
   197  100  101 1    
   198  100  102 1    
   199  100  221 1    
   200  101  222 1    
   201  101  223 1    
   202  101  224 1    
   203  102  103 2    
   204  102  104 am   BACKBONE|DICT|INTERRES
   205  104  105 1    
   206  104  225 1    
   207  105  106 1    
   208  105  107 1    
   209  105  226 1    
   210  106  227 1    
   211  106  228 1    
   212  106  229 1    
   213  107  108 2    
   214  107  109 am   BACKBONE|DICT|INTERRES
   215  109  110 1    
   216  109  230 1    
   217  110  111 1    
   218  110  112 1    
   219  110  231 1    
   220  111  232 1    
   221  111  233 1    
   222  111  234 1    
   223  112  113 2    
   224  112  114 am   BACKBONE|DICT|INTERRES
   225  114  115 1    
   226  114  235 1    
   227  115  116 1    
   228  115  117 1    
   229  115  236 1    
   230  116  237 1    
   231  116  238 1    
   232  116  239 1    
   233  117  118 2    
   234  117  119 am   BACKBONE|DICT|INTERRES
   235  119  120 1    
   236  119  240 1    
   237  120  121 1    
   238  120  124 1    
   239  120  241 1    
   240  121  122 am   BACKBONE|DICT|INTERRES
   241  121  123 2    
   242  122  242 1    
   243  122  243 1    
   244  124  125 1    
   245  124  244 1    
   246  124  245 1    
   247  125  126 1    
   248  126  246 1    
   249  126  247 1    
@<TRIPOS>SUBSTRUCTURE
     1 UNK         1 GROUP             0       ****    0 ROOT    
