@<TRIPOS>MOLECULE
3R540
247   249    1
SMALL
USER_CHARGES


@<TRIPOS>ATOM
      1 CA          2.4453  -14.6140  -50.2422 C.3       0 UNK        -0.1800 
      2 C           3.6428  -15.2792  -49.5803 C.2       0 UNK         0.5000 
      3 O           4.6820  -14.6431  -49.4059 O.2       0 UNK        -0.5000 
      4 N           3.4997  -16.5622  -49.2279 N.am      1 UNK        -0.5000 
      5 CA          4.5183  -17.3849  -48.5668 C.3       1 UNK         0.1400 
      6 C6          4.0842  -18.8656  -48.4399 C.3       23 UNK        -0.0398 
      7 S7          3.7165  -19.6491  -50.0456 S.3       23 UNK        -0.2404 
      8 C8          1.9471  -20.0362  -49.8742 C.3       23 UNK        -0.0205 
      9 C9          1.0654  -18.8179  -50.1058 C.ar      23 UNK        -0.0193 
     10 C10         0.6887  -18.4712  -51.4064 C.ar      23 UNK        -0.1150 
     11 C11        -0.1444  -17.3731  -51.6397 C.ar      23 UNK        -0.0193 
     12 C12        -0.5889  -16.6090  -50.5576 C.ar      23 UNK        -0.1150 
     13 C13        -0.2059  -16.9348  -49.2528 C.ar      23 UNK        -0.0193 
     14 C14         0.6112  -18.0479  -49.0303 C.ar      23 UNK        -0.1150 
     15 C15        -0.6338  -16.0472  -48.0954 C.3       23 UNK        -0.0205 
     16 S16        -2.2931  -16.4625  -47.4752 S.3       23 UNK        -0.2404 
     17 C17        -1.9178  -17.5889  -46.0884 C.3       23 UNK        -0.0398 
     18 CA         -1.9266  -19.0847  -46.4872 C.3       11 UNK         0.1400 
     19 N          -1.0646  -19.8697  -45.5978 N.am      11 UNK        -0.5000 
     20 C          -0.6810  -21.1384  -45.7951 C.2       10 UNK         0.5000 
     21 O          -1.1010  -21.8508  -46.7065 O.2       10 UNK        -0.5000 
     22 CA          0.3335  -21.7072  -44.7933 C.3       10 UNK         0.1400 
     23 CB          1.7349  -21.1289  -45.0523 C.3       10 UNK        -0.1800 
     24 N          -0.0796  -21.4088  -43.4244 N.am      10 UNK        -0.5000 
     25 C          -0.9014  -22.1822  -42.7012 C.2       9 UNK         0.5000 
     26 O          -1.3122  -23.2815  -43.0742 O.2       9 UNK        -0.5000 
     27 CA         -1.3638  -21.6279  -41.3383 C.3       9 UNK         0.1400 
     28 CB         -0.4049  -22.0710  -40.2232 C.3       9 UNK        -0.1800 
     29 N          -1.4869  -20.1687  -41.3124 N.am      9 UNK        -0.5000 
     30 C          -2.3416  -19.4607  -42.0639 C.2       8 UNK         0.5000 
     31 O          -3.1433  -19.9666  -42.8466 O.2       8 UNK        -0.5000 
     32 CA         -2.2499  -17.9273  -41.9698 C.3       8 UNK         0.1400 
     33 CB         -3.1949  -17.3949  -40.8833 C.3       8 UNK        -0.1800 
     34 N          -0.8999  -17.4149  -41.7243 N.am      8 UNK        -0.5000 
     35 C           0.1824  -17.6449  -42.4811 C.2       7 UNK         0.5000 
     36 O           0.1878  -18.4173  -43.4425 O.2       7 UNK        -0.5000 
     37 CA          1.4498  -16.8609  -42.0933 C.3       7 UNK         0.1400 
     38 CB          2.6138  -17.0880  -43.0751 C.3       7 UNK        -0.1800 
     39 N           1.1342  -15.4331  -42.0310 N.am      7 UNK        -0.5000 
     40 C           0.7985  -14.7597  -40.9206 C.2       6 UNK         0.5000 
     41 O           0.8125  -15.2651  -39.7982 O.2       6 UNK        -0.5000 
     42 CA          0.3233  -13.2997  -41.0755 C.3       6 UNK         0.1400 
     43 CB          1.3933  -12.3104  -40.5935 C.3       6 UNK        -0.1800 
     44 N          -0.0594  -12.9630  -42.4470 N.am      6 UNK        -0.5000 
     45 C          -1.2310  -13.2981  -43.0071 C.2       5 UNK         0.5000 
     46 O          -2.1406  -13.8618  -42.3981 O.2       5 UNK        -0.5000 
     47 CA         -1.4098  -12.9783  -44.5062 C.3       5 UNK         0.1400 
     48 CB         -2.1465  -11.6430  -44.6882 C.3       5 UNK        -0.1800 
     49 N          -0.1553  -12.9392  -45.2648 N.am      5 UNK        -0.5000 
     50 C           0.6879  -13.9714  -45.3962 C.2       4 UNK         0.5000 
     51 O           0.4966  -15.0667  -44.8707 O.2       4 UNK        -0.5000 
     52 CA          1.9665  -13.7636  -46.2266 C.3       4 UNK         0.1400 
     53 CB          2.0143  -12.4377  -47.0173 C.3       4 UNK        -0.1800 
     54 N           3.1626  -13.9281  -45.4002 N.am      4 UNK        -0.5000 
     55 C           3.5318  -13.1969  -44.3375 C.2       3 UNK         0.5000 
     56 O           2.8609  -12.2630  -43.8946 O.2       3 UNK        -0.5000 
     57 CA          4.8619  -13.5647  -43.6405 C.3       3 UNK         0.1400 
     58 CB          4.6947  -13.6713  -42.1157 C.3       3 UNK        -0.1800 
     59 N           5.4457  -14.8143  -44.1315 N.am      3 UNK        -0.5000 
     60 C           6.2713  -14.9278  -45.1791 C.2       2 UNK         0.5000 
     61 O           6.6616  -13.9712  -45.8495 O.2       2 UNK        -0.5000 
     62 CA          6.7276  -16.3530  -45.5614 C.3       2 UNK         0.1400 
     63 CB          6.4534  -17.4179  -44.4740 C.3       2 UNK        -0.1800 
     64 N           6.1607  -16.7843  -46.8434 N.am      2 UNK        -0.5000 
     65 C           4.8605  -16.8379  -47.1673 C.2       1 UNK         0.5000 
     66 O           3.9453  -16.5190  -46.4057 O.2       1 UNK        -0.5000 
     67 C          -3.3608  -19.6417  -46.6362 C.2       11 UNK         0.5000 
     68 O          -3.9757  -19.4262  -47.6776 O.2       11 UNK        -0.5000 
     69 N          -3.8658  -20.3758  -45.6326 N.am      12 UNK        -0.5000 
     70 CA         -5.1605  -21.0650  -45.6859 C.3       12 UNK         0.1400 
     71 CB         -5.4757  -21.6745  -44.3115 C.3       12 UNK        -0.1800 
     72 C          -5.2367  -22.1464  -46.7830 C.2       12 UNK         0.5000 
     73 O          -6.3029  -22.3438  -47.3661 O.2       12 UNK        -0.5000 
     74 N          -4.1050  -22.8085  -47.0541 N.am      13 UNK        -0.5000 
     75 CA         -3.9382  -23.7138  -48.1881 C.3       13 UNK         0.1400 
     76 CB         -2.9813  -24.8517  -47.7966 C.3       13 UNK        -0.1800 
     77 C          -3.4001  -22.9422  -49.4021 C.2       13 UNK         0.5000 
     78 O          -3.9536  -23.0530  -50.4951 O.2       13 UNK        -0.5000 
     79 N          -2.3358  -22.1638  -49.1610 N.am      14 UNK        -0.5000 
     80 CA         -1.5467  -21.3926  -50.1177 C.3       14 UNK         0.1400 
     81 CB         -2.3572  -20.2393  -50.7270 C.3       14 UNK        -0.1800 
     82 C          -0.8245  -22.2822  -51.1483 C.2       14 UNK         0.5000 
     83 O          -0.8175  -21.9853  -52.3443 O.2       14 UNK        -0.5000 
     84 N          -0.2003  -23.3552  -50.6375 N.am      15 UNK        -0.5000 
     85 CA          0.6615  -24.3057  -51.3463 C.3       15 UNK         0.1400 
     86 CB          2.0171  -23.6411  -51.6778 C.3       15 UNK        -0.1800 
     87 C          -0.0422  -24.9348  -52.5662 C.2       15 UNK         0.5000 
     88 O          -0.9589  -25.7368  -52.3831 O.2       15 UNK        -0.5000 
     89 N           0.3711  -24.5418  -53.7791 N.am      16 UNK        -0.5000 
     90 CA         -0.1682  -24.9936  -55.0644 C.3       16 UNK         0.1400 
     91 CB          0.6888  -24.4022  -56.1942 C.3       16 UNK        -0.1800 
     92 C          -1.6581  -24.6616  -55.2875 C.2       16 UNK         0.5000 
     93 O          -2.3007  -25.3182  -56.1078 O.2       16 UNK        -0.5000 
     94 N          -2.1916  -23.6777  -54.5486 N.am      17 UNK        -0.5000 
     95 CA         -3.6155  -23.3366  -54.5283 C.3       17 UNK         0.1400 
     96 CB         -3.7771  -21.9420  -53.9122 C.3       17 UNK        -0.1800 
     97 C          -4.4828  -24.3704  -53.7757 C.2       17 UNK         0.5000 
     98 O          -5.7070  -24.3328  -53.9183 O.2       17 UNK        -0.5000 
     99 N          -3.8466  -25.2652  -53.0012 N.am      18 UNK        -0.5000 
    100 CA        -4.3774  -26.4110  -52.2515 C.3       18 UNK         0.1400 
    101 CB        -4.9858  -27.4575  -53.2041 C.3       18 UNK        -0.1800 
    102 C         -5.3548  -26.0582  -51.1143 C.2       18 UNK         0.5000 
    103 O         -5.1347  -26.4690  -49.9747 O.2       18 UNK        -0.5000 
    104 N         -6.4153  -25.3204  -51.4457 N.am      19 UNK        -0.5000 
    105 CA        -7.4600  -24.8558  -50.5373 C.3       19 UNK         0.1400 
    106 CB        -8.5267  -25.9546  -50.3781 C.3       19 UNK        -0.1800 
    107 C         -8.0881  -23.5262  -50.9967 C.2       19 UNK         0.5000 
    108 O         -8.9256  -22.9865  -50.2729 O.2       19 UNK        -0.5000 
    109 N         -7.7009  -23.0085  -52.1752 N.am      20 UNK        -0.5000 
    110 CA        -8.2245  -21.7566  -52.7316 C.3       20 UNK         0.1400 
    111 CB        -8.0123  -21.7488  -54.2538 C.3       20 UNK        -0.1800 
    112 C         -7.6317  -20.4925  -52.0753 C.2       20 UNK         0.5000 
    113 O         -8.1462  -19.3985  -52.3144 O.2       20 UNK        -0.5000 
    114 N         -6.5690  -20.6534  -51.2693 N.am      21 UNK        -0.5000 
    115 CA        -5.9493  -19.6353  -50.4082 C.3       21 UNK         0.1400 
    116 CB        -6.9293  -19.2319  -49.2856 C.3       21 UNK        -0.1800 
    117 C         -5.3945  -18.4066  -51.1682 C.2       21 UNK         0.5000 
    118 O         -5.3000  -17.3217  -50.5921 O.2       21 UNK        -0.5000 
    119 N         -5.0776  -18.5882  -52.4599 N.am      22 UNK        -0.5000 
    120 CA        -4.7409  -17.5262  -53.4268 C.3       22 UNK         0.1400 
    121 C         -5.8921  -16.4970  -53.6750 C.2       22 UNK         0.5000 
    122 N         -7.1479  -16.8214  -53.3850 N.am      22 UNK        -0.7600 
    123 O         -5.6591  -15.3999  -54.1758 O.2       22 UNK        -0.5000 
    124 C124       -3.3574  -16.8637  -53.1480 C.3       23 UNK        -0.0398 
    125 S125       -1.9785  -17.9464  -53.6504 S.3       23 UNK        -0.2404 
    126 C126       -0.5347  -17.0031  -53.0637 C.3       23 UNK        -0.0205 
    127 H127        2.7489  -13.7087  -50.7681 H         1 UNK         0.0600 
    128 H128        1.6999  -14.3416  -49.4959 H         1 UNK         0.0600 
    129 H129        1.9828  -15.2836  -50.9672 H         1 UNK         0.0600 
    130 H130        2.6231  -17.0296  -49.4135 H         1 UNK         0.3000 
    131 H131        5.4172  -17.3434  -49.1855 H         1 UNK         0.0600 
    132 H132        3.2227  -18.9585  -47.7766 H         1 UNK         0.0800 
    133 H133        4.8793  -19.4510  -47.9744 H         1 UNK         0.0800 
    134 H134        1.7504  -20.4800  -48.8968 H         1 UNK         0.0800 
    135 H135        1.6993  -20.8034  -50.6078 H         1 UNK         0.0800 
    136 H136        1.0344  -19.0659  -52.2406 H         1 UNK         0.1150 
    137 H137       -1.2211  -15.7496  -50.7309 H         1 UNK         0.1150 
    138 H138        0.9011  -18.3053  -48.0210 H         1 UNK         0.1150 
    139 H139        0.0998  -16.1114  -47.2934 H         1 UNK         0.0800 
    140 H140       -0.6362  -15.0053  -48.4188 H         1 UNK         0.0800 
    141 H141       -2.6315  -17.3978  -45.2864 H         1 UNK         0.0800 
    142 H142       -0.9465  -17.3090  -45.6789 H         1 UNK         0.0800 
    143 H143       -1.4730  -19.1683  -47.4764 H         1 UNK         0.0600 
    144 H144       -0.6563  -19.3648  -44.8148 H         1 UNK         0.3000 
    145 H145        0.3849  -22.7885  -44.9384 H         1 UNK         0.0600 
    146 H146        2.4683  -21.5584  -44.3699 H         1 UNK         0.0600 
    147 H147        1.7618  -20.0454  -44.9302 H         1 UNK         0.0600 
    148 H148        2.0664  -21.3512  -46.0675 H         1 UNK         0.0600 
    149 H149        0.1639  -20.4913  -43.0715 H         1 UNK         0.3000 
    150 H150       -2.3497  -22.0491  -41.1302 H         1 UNK         0.0600 
    151 H151       -0.3093  -23.1575  -40.1992 H         1 UNK         0.0600 
    152 H152       -0.7658  -21.7565  -39.2438 H         1 UNK         0.0600 
    153 H153        0.5943  -21.6566  -40.3631 H         1 UNK         0.0600 
    154 H154       -0.8575  -19.6681  -40.7027 H         1 UNK         0.3000 
    155 H155       -2.5780  -17.5232  -42.9283 H         1 UNK         0.0600 
    156 H156       -4.2165  -17.7392  -41.0502 H         1 UNK         0.0600 
    157 H157       -3.2174  -16.3047  -40.8814 H         1 UNK         0.0600 
    158 H158       -2.8935  -17.7274  -39.8892 H         1 UNK         0.0600 
    159 H159       -0.8028  -16.7693  -40.9533 H         1 UNK         0.3000 
    160 H160        1.7689  -17.2235  -41.1142 H         1 UNK         0.0600 
    161 H161        3.5080  -16.5599  -42.7495 H         1 UNK         0.0600 
    162 H162        2.8711  -18.1459  -43.1400 H         1 UNK         0.0600 
    163 H163        2.3704  -16.7504  -44.0827 H         1 UNK         0.0600 
    164 H164        0.9921  -14.9907  -42.9332 H         1 UNK         0.3000 
    165 H165       -0.5490  -13.1801  -40.4293 H         1 UNK         0.0600 
    166 H166        1.0024  -11.2931  -40.5678 H         1 UNK         0.0600 
    167 H167        1.7323  -12.5536  -39.5856 H         1 UNK         0.0600 
    168 H168        2.2640  -12.3136  -41.2453 H         1 UNK         0.0600 
    169 H169        0.6469  -12.5182  -43.0200 H         1 UNK         0.3000 
    170 H170       -2.0273  -13.7711  -44.9343 H         1 UNK         0.0600 
    171 H171       -1.5610  -10.8058  -44.3060 H         1 UNK         0.0600 
    172 H172       -2.3628  -11.4511  -45.7394 H         1 UNK         0.0600 
    173 H173       -3.0996  -11.6468  -44.1576 H         1 UNK         0.0600 
    174 H174        0.0828  -12.0611  -45.7025 H         1 UNK         0.3000 
    175 H175        1.9893  -14.5771  -46.9520 H         1 UNK         0.0600 
    176 H176        2.0207  -11.5631  -46.3662 H         1 UNK         0.0600 
    177 H177        2.9105  -12.3919  -47.6366 H         1 UNK         0.0600 
    178 H178        1.1593  -12.3490  -47.6888 H         1 UNK         0.0600 
    179 H179        3.7226  -14.7413  -45.6392 H         1 UNK         0.3000 
    180 H180        5.5591  -12.7481  -43.8386 H         1 UNK         0.0600 
    181 H181        5.6105  -14.0220  -41.6394 H         1 UNK         0.0600 
    182 H182        3.8900  -14.3528  -41.8397 H         1 UNK         0.0600 
    183 H183        4.4691  -12.6964  -41.6841 H         1 UNK         0.0600 
    184 H184        5.1537  -15.6598  -43.6644 H         1 UNK         0.3000 
    185 H185        7.8084  -16.2975  -45.7001 H         1 UNK         0.0600 
    186 H186        6.8934  -18.3755  -44.7526 H         1 UNK         0.0600 
    187 H187        6.8959  -17.1311  -43.5191 H         1 UNK         0.0600 
    188 H188        5.3879  -17.5850  -44.3137 H         1 UNK         0.0600 
    189 H189        6.8404  -17.0345  -47.5479 H         1 UNK         0.3000 
    190 H190       -3.3500  -20.4461  -44.7608 H         1 UNK         0.3000 
    191 H191       -5.9255  -20.3190  -45.9111 H         1 UNK         0.0600 
    192 H192       -5.5794  -20.8993  -43.5524 H         1 UNK         0.0600 
    193 H193       -4.6922  -22.3605  -43.9867 H         1 UNK         0.0600 
    194 H194       -6.4139  -22.2305  -44.3335 H         1 UNK         0.0600 
    195 H195       -3.2677  -22.5549  -46.5464 H         1 UNK         0.3000 
    196 H196       -4.8966  -24.1578  -48.4625 H         1 UNK         0.0600 
    197 H197       -3.4001  -25.4528  -46.9895 H         1 UNK         0.0600 
    198 H198       -2.0122  -24.4771  -47.4652 H         1 UNK         0.0600 
    199 H199       -2.8053  -25.5199  -48.6407 H         1 UNK         0.0600 
    200 H200       -1.9696  -22.1393  -48.2106 H         1 UNK         0.3000 
    201 H201       -0.7535  -20.9341  -49.5286 H         1 UNK         0.0600 
    202 H202       -2.6289  -19.5052  -49.9695 H         1 UNK         0.0600 
    203 H203       -3.2672  -20.5832  -51.2076 H         1 UNK         0.0600 
    204 H204       -1.7756  -19.7147  -51.4790 H         1 UNK         0.0600 
    205 H205       -0.3141  -23.5319  -49.6499 H         1 UNK         0.3000 
    206 H206        0.8580  -25.1256  -50.6539 H         1 UNK         0.0600 
    207 H207        1.9052  -22.7652  -52.3178 H         1 UNK         0.0600 
    208 H208        2.5219  -23.3169  -50.7676 H         1 UNK         0.0600 
    209 H209        2.6867  -24.3401  -52.1808 H         1 UNK         0.0600 
    210 H210        1.1015  -23.8463  -53.8239 H         1 UNK         0.3000 
    211 H211       -0.0734  -26.0809  -55.0958 H         1 UNK         0.0600 
    212 H212        0.6549  -23.3119  -56.1944 H         1 UNK         0.0600 
    213 H213        0.3392  -24.7418  -57.1702 H         1 UNK         0.0600 
    214 H214        1.7313  -24.7070  -56.1009 H         1 UNK         0.0600 
    215 H215       -1.5978  -23.1749  -53.8963 H         1 UNK         0.3000 
    216 H216       -3.9758  -23.2958  -55.5582 H         1 UNK         0.0600 
    217 H217       -4.8111  -21.6057  -53.9452 H         1 UNK         0.0600 
    218 H218       -3.1729  -21.1990  -54.4332 H         1 UNK         0.0600 
    219 H219       -3.4715  -21.9526  -52.8702 H         1 UNK         0.0600 
    220 H220       -2.8394  -25.1697  -52.9260 H         1 UNK         0.3000 
    221 H221       -3.5089  -26.8720  -51.7783 H         1 UNK         0.0600 
    222 H222       -5.8526  -27.0695  -53.7398 H         1 UNK         0.0600 
    223 H223       -4.2554  -27.7851  -53.9440 H         1 UNK         0.0600 
    224 H224       -5.3113  -28.3415  -52.6545 H         1 UNK         0.0600 
    225 H225       -6.4731  -25.0256  -52.4158 H         1 UNK         0.3000 
    226 H226       -7.0156  -24.6580  -49.5599 H         1 UNK         0.0600 
    227 H227       -8.0947  -26.8699  -49.9730 H         1 UNK         0.0600 
    228 H228       -9.3165  -25.6416  -49.6942 H         1 UNK         0.0600 
    229 H229       -8.9939  -26.1981  -51.3329 H         1 UNK         0.0600 
    230 H230       -7.0037  -23.4818  -52.7388 H         1 UNK         0.3000 
    231 H231       -9.3014  -21.7247  -52.5532 H         1 UNK         0.0600 
    232 H232       -8.4091  -20.8367  -54.7014 H         1 UNK         0.0600 
    233 H233       -8.5249  -22.5881  -54.7239 H         1 UNK         0.0600 
    234 H234       -6.9596  -21.8136  -54.5216 H         1 UNK         0.0600 
    235 H235       -6.2009  -21.5892  -51.1647 H         1 UNK         0.3000 
    236 H236       -5.1002  -20.1225  -49.9321 H         1 UNK         0.0600 
    237 H237       -7.7870  -18.6822  -49.6739 H         1 UNK         0.0600 
    238 H238       -7.3028  -20.1082  -48.7558 H         1 UNK         0.0600 
    239 H239       -6.4403  -18.5953  -48.5475 H         1 UNK         0.0600 
    240 H240       -5.1955  -19.5115  -52.8472 H         1 UNK         0.3000 
    241 H241       -4.6633  -18.0348  -54.3883 H         1 UNK         0.0600 
    242 H242       -7.3835  -17.7243  -52.9835 H         1 UNK         0.3800 
    243 H243       -7.8811  -16.1537  -53.5629 H         1 UNK         0.3800 
    244 H244       -3.2512  -16.5963  -52.0965 H         1 UNK         0.0800 
    245 H245       -3.2382  -15.9362  -53.7093 H         1 UNK         0.0800 
    246 H246       -0.7283  -15.9324  -53.1440 H         1 UNK         0.0800 
    247 H247        0.3049  -17.2062  -53.7301 H         1 UNK         0.0800 
@<TRIPOS>BOND
     1    1    2 1    
     2    1  127 1    
     3    1  128 1    
     4    1  129 1    
     5    2    3 2    
     6    2    4 am   BACKBONE|DICT|INTERRES
     7    4    5 1    
     8    4  130 1    
     9    5    6 1    
    10    5   65 1    
    11    5  131 1    
    12    6    7 1    
    13    6  132 1    
    14    6  133 1    
    15    7    8 1    
    16    8    9 1    
    17    8  134 1    
    18    8  135 1    
    19    9   10 ar   
    20    9   14 ar   
    21   10   11 ar   
    22   10  136 1    
    23   11   12 ar   
    24   11  126 1    
    25   12   13 ar   
    26   12  137 1    
    27   13   14 ar   
    28   13   15 1    
    29   14  138 1    
    30   15   16 1    
    31   15  139 1    
    32   15  140 1    
    33   16   17 1    
    34   17   18 1    
    35   17  141 1    
    36   17  142 1    
    37   18   19 1    
    38   18   67 1    
    39   18  143 1    
    40   19   20 am   BACKBONE|DICT|INTERRES
    41   19  144 1    
    42   20   21 2    
    43   20   22 1    
    44   22   23 1    
    45   22   24 1    
    46   22  145 1    
    47   23  146 1    
    48   23  147 1    
    49   23  148 1    
    50   24   25 am   BACKBONE|DICT|INTERRES
    51   24  149 1    
    52   25   26 2    
    53   25   27 1    
    54   27   28 1    
    55   27   29 1    
    56   27  150 1    
    57   28  151 1    
    58   28  152 1    
    59   28  153 1    
    60   29   30 am   BACKBONE|DICT|INTERRES
    61   29  154 1    
    62   30   31 2    
    63   30   32 1    
    64   32   33 1    
    65   32   34 1    
    66   32  155 1    
    67   33  156 1    
    68   33  157 1    
    69   33  158 1    
    70   34   35 am   BACKBONE|DICT|INTERRES
    71   34  159 1    
    72   35   36 2    
    73   35   37 1    
    74   37   38 1    
    75   37   39 1    
    76   37  160 1    
    77   38  161 1    
    78   38  162 1    
    79   38  163 1    
    80   39   40 am   BACKBONE|DICT|INTERRES
    81   39  164 1    
    82   40   41 2    
    83   40   42 1    
    84   42   43 1    
    85   42   44 1    
    86   42  165 1    
    87   43  166 1    
    88   43  167 1    
    89   43  168 1    
    90   44   45 am   BACKBONE|DICT|INTERRES
    91   44  169 1    
    92   45   46 2    
    93   45   47 1    
    94   47   48 1    
    95   47   49 1    
    96   47  170 1    
    97   48  171 1    
    98   48  172 1    
    99   48  173 1    
   100   49   50 am   BACKBONE|DICT|INTERRES
   101   49  174 1    
   102   50   51 2    
   103   50   52 1    
   104   52   53 1    
   105   52   54 1    
   106   52  175 1    
   107   53  176 1    
   108   53  177 1    
   109   53  178 1    
   110   54   55 am   BACKBONE|DICT|INTERRES
   111   54  179 1    
   112   55   56 2    
   113   55   57 1    
   114   57   58 1    
   115   57   59 1    
   116   57  180 1    
   117   58  181 1    
   118   58  182 1    
   119   58  183 1    
   120   59   60 am   BACKBONE|DICT|INTERRES
   121   59  184 1    
   122   60   61 2    
   123   60   62 1    
   124   62   63 1    
   125   62   64 1    
   126   62  185 1    
   127   63  186 1    
   128   63  187 1    
   129   63  188 1    
   130   64   65 am   BACKBONE|DICT|INTERRES
   131   64  189 1    
   132   65   66 2    
   133   67   68 2    
   134   67   69 am   BACKBONE|DICT|INTERRES
   135   69   70 1    
   136   69  190 1    
   137   70   71 1    
   138   70   72 1    
   139   70  191 1    
   140   71  192 1    
   141   71  193 1    
   142   71  194 1    
   143   72   73 2    
   144   72   74 am   BACKBONE|DICT|INTERRES
   145   74   75 1    
   146   74  195 1    
   147   75   76 1    
   148   75   77 1    
   149   75  196 1    
   150   76  197 1    
   151   76  198 1    
   152   76  199 1    
   153   77   78 2    
   154   77   79 am   BACKBONE|DICT|INTERRES
   155   79   80 1    
   156   79  200 1    
   157   80   81 1    
   158   80   82 1    
   159   80  201 1    
   160   81  202 1    
   161   81  203 1    
   162   81  204 1    
   163   82   83 2    
   164   82   84 am   BACKBONE|DICT|INTERRES
   165   84   85 1    
   166   84  205 1    
   167   85   86 1    
   168   85   87 1    
   169   85  206 1    
   170   86  207 1    
   171   86  208 1    
   172   86  209 1    
   173   87   88 2    
   174   87   89 am   BACKBONE|DICT|INTERRES
   175   89   90 1    
   176   89  210 1    
   177   90   91 1    
   178   90   92 1    
   179   90  211 1    
   180   91  212 1    
   181   91  213 1    
   182   91  214 1    
   183   92   93 2    
   184   92   94 am   BACKBONE|DICT|INTERRES
   185   94   95 1    
   186   94  215 1    
   187   95   96 1    
   188   95   97 1    
   189   95  216 1    
   190   96  217 1    
   191   96  218 1    
   192   96  219 1    
   193   97   98 2    
   194   97   99 am   BACKBONE|DICT|INTERRES
   195   99  100 1    
   196   99  220 1    
   197  100  101 1    
   198  100  102 1    
   199  100  221 1    
   200  101  222 1    
   201  101  223 1    
   202  101  224 1    
   203  102  103 2    
   204  102  104 am   BACKBONE|DICT|INTERRES
   205  104  105 1    
   206  104  225 1    
   207  105  106 1    
   208  105  107 1    
   209  105  226 1    
   210  106  227 1    
   211  106  228 1    
   212  106  229 1    
   213  107  108 2    
   214  107  109 am   BACKBONE|DICT|INTERRES
   215  109  110 1    
   216  109  230 1    
   217  110  111 1    
   218  110  112 1    
   219  110  231 1    
   220  111  232 1    
   221  111  233 1    
   222  111  234 1    
   223  112  113 2    
   224  112  114 am   BACKBONE|DICT|INTERRES
   225  114  115 1    
   226  114  235 1    
   227  115  116 1    
   228  115  117 1    
   229  115  236 1    
   230  116  237 1    
   231  116  238 1    
   232  116  239 1    
   233  117  118 2    
   234  117  119 am   BACKBONE|DICT|INTERRES
   235  119  120 1    
   236  119  240 1    
   237  120  121 1    
   238  120  124 1    
   239  120  241 1    
   240  121  122 am   BACKBONE|DICT|INTERRES
   241  121  123 2    
   242  122  242 1    
   243  122  243 1    
   244  124  125 1    
   245  124  244 1    
   246  124  245 1    
   247  125  126 1    
   248  126  246 1    
   249  126  247 1    
@<TRIPOS>SUBSTRUCTURE
     1 UNK         1 GROUP             0       ****    0 ROOT    
