@<TRIPOS>MOLECULE
3R540
247   249    1
SMALL
USER_CHARGES


@<TRIPOS>ATOM
      1 CA          3.1904  -13.0681  -47.1606 C.3       0 UNK        -0.1800 
      2 C           2.1239  -14.0948  -46.8100 C.2       0 UNK         0.5000 
      3 O           2.4532  -15.2028  -46.3882 O.2       0 UNK        -0.5000 
      4 N           0.8485  -13.7299  -46.9784 N.am      1 UNK        -0.5000 
      5 CA         -0.3117  -14.6040  -46.7798 C.3       1 UNK         0.1400 
      6 C6         -0.6643  -15.3823  -48.0778 C.3       23 UNK        -0.0398 
      7 S7         -1.5674  -16.9387  -47.7675 S.3       23 UNK        -0.2404 
      8 C8         -2.1435  -17.3585  -49.4439 C.3       23 UNK        -0.0205 
      9 C9         -1.1001  -18.1448  -50.2244 C.ar      23 UNK        -0.0193 
     10 C10        -0.0747  -17.4834  -50.9080 C.ar      23 UNK        -0.1150 
     11 C11         0.8910  -18.2068  -51.6149 C.ar      23 UNK        -0.0193 
     12 C12         0.8065  -19.6017  -51.6553 C.ar      23 UNK        -0.1150 
     13 C13        -0.2228  -20.2732  -50.9946 C.ar      23 UNK        -0.0193 
     14 C14        -1.1676  -19.5403  -50.2703 C.ar      23 UNK        -0.1150 
     15 C15        -0.3219  -21.7880  -51.0809 C.3       23 UNK        -0.0205 
     16 S16         1.0792  -22.6549  -50.3079 S.3       23 UNK        -0.2404 
     17 C17         0.9422  -22.1049  -48.5788 C.3       23 UNK        -0.0398 
     18 CA          0.1491  -23.0773  -47.6695 C.3       11 UNK         0.1400 
     19 N           0.6114  -22.9882  -46.2851 N.am      11 UNK        -0.5000 
     20 C           0.4227  -23.9145  -45.3372 C.2       10 UNK         0.5000 
     21 O          -0.0955  -25.0109  -45.5457 O.2       10 UNK        -0.5000 
     22 CA          0.8738  -23.5389  -43.9101 C.3       10 UNK         0.1400 
     23 CB          2.3022  -24.0392  -43.6492 C.3       10 UNK        -0.1800 
     24 N           0.8180  -22.0958  -43.6538 N.am      10 UNK        -0.5000 
     25 C          -0.3183  -21.3913  -43.5541 C.2       9 UNK         0.5000 
     26 O          -1.4364  -21.9016  -43.6061 O.2       9 UNK        -0.5000 
     27 CA         -0.1874  -19.8577  -43.4417 C.3       9 UNK         0.1400 
     28 CB         -0.0879  -19.4344  -41.9698 C.3       9 UNK        -0.1800 
     29 N           0.9396  -19.2974  -44.1997 N.am      9 UNK        -0.5000 
     30 C           1.1094  -19.4355  -45.5241 C.2       8 UNK         0.5000 
     31 O           0.3043  -20.0436  -46.2275 O.2       8 UNK        -0.5000 
     32 CA          2.3792  -18.8493  -46.1790 C.3       8 UNK         0.1400 
     33 CB          2.0840  -18.2550  -47.5666 C.3       8 UNK        -0.1800 
     34 N           3.0401  -17.8342  -45.3611 N.am      8 UNK        -0.5000 
     35 C           3.9078  -18.0735  -44.3688 C.2       7 UNK         0.5000 
     36 O           4.2640  -19.2026  -44.0317 O.2       7 UNK        -0.5000 
     37 CA          4.4234  -16.8456  -43.5936 C.3       7 UNK         0.1400 
     38 CB          5.6871  -16.2785  -44.2566 C.3       7 UNK        -0.1800 
     39 N           3.4200  -15.7856  -43.4983 N.am      7 UNK        -0.5000 
     40 C           2.2600  -15.8721  -42.8397 C.2       6 UNK         0.5000 
     41 O           1.9607  -16.8325  -42.1298 O.2       6 UNK        -0.5000 
     42 CA          1.2743  -14.6989  -43.0279 C.3       6 UNK         0.1400 
     43 CB         -0.1322  -15.0276  -42.4981 C.3       6 UNK        -0.1800 
     44 N           1.7359  -13.4486  -42.4236 N.am      6 UNK        -0.5000 
     45 C           2.7686  -12.6988  -42.8389 C.2       5 UNK         0.5000 
     46 O           3.4631  -12.9890  -43.8130 O.2       5 UNK        -0.5000 
     47 CA          3.0831  -11.4006  -42.0666 C.3       5 UNK         0.1400 
     48 CB          3.1441  -10.1935  -43.0183 C.3       5 UNK        -0.1800 
     49 N           2.1159  -11.1071  -41.0108 N.am      5 UNK        -0.5000 
     50 C           2.1409  -11.5987  -39.7648 C.2       4 UNK         0.5000 
     51 O           3.0176  -12.3567  -39.3495 O.2       4 UNK        -0.5000 
     52 CA          0.9868  -11.1831  -38.8275 C.3       4 UNK         0.1400 
     53 CB          1.4761  -10.1576  -37.7931 C.3       4 UNK        -0.1800 
     54 N          -0.1633  -10.6203  -39.5425 N.am      4 UNK        -0.5000 
     55 C          -1.0044  -11.3237  -40.3121 C.2       3 UNK         0.5000 
     56 O          -0.9415  -12.5491  -40.4296 O.2       3 UNK        -0.5000 
     57 CA         -2.0835  -10.5311  -41.0857 C.3       3 UNK         0.1400 
     58 CB         -1.7529   -9.0300  -41.2519 C.3       3 UNK        -0.1800 
     59 N          -2.3955  -11.1213  -42.3929 N.am      3 UNK        -0.5000 
     60 C          -1.5434  -11.3589  -43.4004 C.2       2 UNK         0.5000 
     61 O          -0.3353  -11.1109  -43.3702 O.2       2 UNK        -0.5000 
     62 CA         -2.1617  -11.9476  -44.6744 C.3       2 UNK         0.1400 
     63 CB         -2.6318  -10.8268  -45.6192 C.3       2 UNK        -0.1800 
     64 N          -1.1818  -12.7939  -45.3505 N.am      2 UNK        -0.5000 
     65 C          -1.4884  -13.7962  -46.1859 C.2       1 UNK         0.5000 
     66 O          -2.6480  -14.0734  -46.4949 O.2       1 UNK        -0.5000 
     67 C          -1.3706  -22.8185  -47.7285 C.2       11 UNK         0.5000 
     68 O          -2.1015  -23.5822  -48.3610 O.2       11 UNK        -0.5000 
     69 N          -1.8254  -21.7729  -47.0193 N.am      12 UNK        -0.5000 
     70 CA         -3.2328  -21.4089  -46.8376 C.3       12 UNK         0.1400 
     71 CB         -3.3370  -20.1278  -45.9994 C.3       12 UNK        -0.1800 
     72 C          -4.0657  -22.5441  -46.2157 C.2       12 UNK         0.5000 
     73 O          -5.1619  -22.8237  -46.7015 O.2       12 UNK        -0.5000 
     74 N          -3.4963  -23.2213  -45.2080 N.am      13 UNK        -0.5000 
     75 CA         -4.0674  -24.3862  -44.5262 C.3       13 UNK         0.1400 
     76 CB         -3.1638  -24.7698  -43.3448 C.3       13 UNK        -0.1800 
     77 C          -4.3099  -25.6096  -45.4354 C.2       13 UNK         0.5000 
     78 O          -5.1669  -26.4323  -45.1128 O.2       13 UNK        -0.5000 
     79 N          -3.6005  -25.6949  -46.5697 N.am      14 UNK        -0.5000 
     80 CA         -3.7850  -26.7095  -47.6117 C.3       14 UNK         0.1400 
     81 CB         -2.4161  -27.0294  -48.2402 C.3       14 UNK        -0.1800 
     82 C          -4.8220  -26.2649  -48.6682 C.2       14 UNK         0.5000 
     83 O          -4.6909  -26.6154  -49.8429 O.2       14 UNK        -0.5000 
     84 N          -5.8106  -25.4607  -48.2462 N.am      15 UNK        -0.5000 
     85 CA         -6.8389  -24.8024  -49.0599 C.3       15 UNK         0.1400 
     86 CB         -7.8124  -25.8396  -49.6580 C.3       15 UNK        -0.1800 
     87 C          -6.2172  -23.8754  -50.1228 C.2       15 UNK         0.5000 
     88 O          -6.6305  -23.8968  -51.2817 O.2       15 UNK        -0.5000 
     89 N          -5.1862  -23.1235  -49.7107 N.am      16 UNK        -0.5000 
     90 CA         -4.3109  -22.2954  -50.5478 C.3       16 UNK         0.1400 
     91 CB         -5.0666  -21.0655  -51.0816 C.3       16 UNK        -0.1800 
     92 C          -3.6034  -23.1094  -51.6512 C.2       16 UNK         0.5000 
     93 O          -3.5085  -22.6552  -52.7928 O.2       16 UNK        -0.5000 
     94 N          -3.1291  -24.3047  -51.2698 N.am      17 UNK        -0.5000 
     95 CA         -2.5465  -25.3524  -52.1140 C.3       17 UNK         0.1400 
     96 CB         -1.1512  -24.9427  -52.6213 C.3       17 UNK        -0.1800 
     97 C          -3.5087  -25.7796  -53.2397 C.2       17 UNK         0.5000 
     98 O          -3.1438  -25.7530  -54.4158 O.2       17 UNK        -0.5000 
     99 N          -4.7385  -26.1314  -52.8370 N.am      18 UNK        -0.5000 
    100 CA        -5.8837  -26.4726  -53.6875 C.3       18 UNK         0.1400 
    101 CB        -5.6429  -27.8090  -54.4201 C.3       18 UNK        -0.1800 
    102 C         -6.2781  -25.3175  -54.6347 C.2       18 UNK         0.5000 
    103 O         -6.3920  -25.5115  -55.8467 O.2       18 UNK        -0.5000 
    104 N         -6.4787  -24.1331  -54.0408 N.am      19 UNK        -0.5000 
    105 CA        -6.8986  -22.8728  -54.6591 C.3       19 UNK         0.1400 
    106 CB        -8.3377  -22.9880  -55.2043 C.3       19 UNK        -0.1800 
    107 C         -5.9016  -22.3131  -55.6963 C.2       19 UNK         0.5000 
    108 O         -6.3193  -21.6722  -56.6630 O.2       19 UNK        -0.5000 
    109 N         -4.6009  -22.5414  -55.4738 N.am      20 UNK        -0.5000 
    110 CA        -3.5197  -21.9612  -56.2675 C.3       20 UNK         0.1400 
    111 CB        -2.2606  -22.8329  -56.1494 C.3       20 UNK        -0.1800 
    112 C         -3.2388  -20.5176  -55.8208 C.2       20 UNK         0.5000 
    113 O         -3.2368  -19.6130  -56.6562 O.2       20 UNK        -0.5000 
    114 N         -3.0246  -20.3348  -54.5074 N.am      21 UNK        -0.5000 
    115 CA        -2.8702  -19.0593  -53.7899 C.3       21 UNK         0.1400 
    116 CB        -4.2432  -18.3605  -53.6965 C.3       21 UNK        -0.1800 
    117 C         -1.7836  -18.1061  -54.3456 C.2       21 UNK         0.5000 
    118 O         -1.9060  -16.8907  -54.1821 O.2       21 UNK        -0.5000 
    119 N         -0.7652  -18.6605  -55.0199 N.am      22 UNK        -0.5000 
    120 CA         0.2402  -17.9292  -55.8166 C.3       22 UNK         0.1400 
    121 C         -0.3433  -17.1649  -57.0506 C.2       22 UNK         0.5000 
    122 N         -1.5344  -17.4912  -57.5382 N.am      22 UNK        -0.7600 
    123 O          0.3049  -16.2827  -57.6079 O.2       22 UNK        -0.5000 
    124 C124        1.1914  -17.0470  -54.9537 C.3       23 UNK        -0.0398 
    125 S125        2.3759  -18.0399  -53.9868 S.3       23 UNK        -0.2404 
    126 C126        2.0571  -17.4856  -52.2790 C.3       23 UNK        -0.0205 
    127 H127        2.7886  -12.0548  -47.1581 H         1 UNK         0.0600 
    128 H128        3.5984  -13.2768  -48.1493 H         1 UNK         0.0600 
    129 H129        4.0077  -13.1091  -46.4409 H         1 UNK         0.0600 
    130 H130        0.6360  -12.8011  -47.3169 H         1 UNK         0.3000 
    131 H131       -0.0573  -15.3367  -46.0111 H         1 UNK         0.0600 
    132 H132       -1.2305  -14.7526  -48.7659 H         1 UNK         0.0800 
    133 H133        0.2507  -15.6508  -48.6061 H         1 UNK         0.0800 
    134 H134       -3.0586  -17.9461  -49.3555 H         1 UNK         0.0800 
    135 H135       -2.4207  -16.4546  -49.9880 H         1 UNK         0.0800 
    136 H136       -0.0188  -16.4050  -50.8736 H         1 UNK         0.1150 
    137 H137        1.5492  -20.1708  -52.1966 H         1 UNK         0.1150 
    138 H138       -1.9592  -20.0523  -49.7428 H         1 UNK         0.1150 
    139 H139       -1.2349  -22.1375  -50.6073 H         1 UNK         0.0800 
    140 H140       -0.3854  -22.0757  -52.1305 H         1 UNK         0.0800 
    141 H141        0.5432  -21.0923  -48.5377 H         1 UNK         0.0800 
    142 H142        1.9681  -22.0198  -48.2179 H         1 UNK         0.0800 
    143 H143        0.3276  -24.0992  -48.0118 H         1 UNK         0.0600 
    144 H144        0.9735  -22.0880  -46.0034 H         1 UNK         0.3000 
    145 H145        0.2024  -24.0384  -43.2083 H         1 UNK         0.0600 
    146 H146        2.3739  -25.1159  -43.8090 H         1 UNK         0.0600 
    147 H147        3.0246  -23.5599  -44.3112 H         1 UNK         0.0600 
    148 H148        2.6069  -23.8436  -42.6209 H         1 UNK         0.0600 
    149 H149        1.6985  -21.6048  -43.5944 H         1 UNK         0.3000 
    150 H150       -1.1008  -19.4248  -43.8528 H         1 UNK         0.0600 
    151 H151       -0.1944  -18.3552  -41.8644 H         1 UNK         0.0600 
    152 H152        0.8669  -19.7244  -41.5297 H         1 UNK         0.0600 
    153 H153       -0.8789  -19.8922  -41.3741 H         1 UNK         0.0600 
    154 H154        1.6287  -18.7795  -43.6720 H         1 UNK         0.3000 
    155 H155        3.0674  -19.6844  -46.3226 H         1 UNK         0.0600 
    156 H156        1.3667  -17.4395  -47.5002 H         1 UNK         0.0600 
    157 H157        1.6685  -18.9995  -48.2461 H         1 UNK         0.0600 
    158 H158        2.9893  -17.8649  -48.0316 H         1 UNK         0.0600 
    159 H159        2.8151  -16.8671  -45.5878 H         1 UNK         0.3000 
    160 H160        4.6765  -17.1682  -42.5816 H         1 UNK         0.0600 
    161 H161        6.4655  -17.0390  -44.3302 H         1 UNK         0.0600 
    162 H162        6.0958  -15.4485  -43.6798 H         1 UNK         0.0600 
    163 H163        5.4824  -15.9165  -45.2653 H         1 UNK         0.0600 
    164 H164        3.5989  -14.9313  -44.0181 H         1 UNK         0.3000 
    165 H165        1.1799  -14.5304  -44.0991 H         1 UNK         0.0600 
    166 H166       -0.8376  -14.2288  -42.7235 H         1 UNK         0.0600 
    167 H167       -0.5204  -15.9385  -42.9558 H         1 UNK         0.0600 
    168 H168       -0.1306  -15.1749  -41.4174 H         1 UNK         0.0600 
    169 H169        1.2064  -13.1205  -41.6280 H         1 UNK         0.3000 
    170 H170        4.0710  -11.5265  -41.6191 H         1 UNK         0.0600 
    171 H171        3.4010   -9.2803  -42.4814 H         1 UNK         0.0600 
    172 H172        3.9017  -10.3371  -43.7898 H         1 UNK         0.0600 
    173 H173        2.1907  -10.0302  -43.5220 H         1 UNK         0.0600 
    174 H174        1.3324  -10.5296  -41.2808 H         1 UNK         0.3000 
    175 H175        0.6587  -12.0780  -38.2945 H         1 UNK         0.0600 
    176 H176        1.8122   -9.2352  -38.2684 H         1 UNK         0.0600 
    177 H177        0.6869   -9.9035  -37.0852 H         1 UNK         0.0600 
    178 H178        2.3129  -10.5529  -37.2156 H         1 UNK         0.0600 
    179 H179       -0.2806   -9.6187  -39.4878 H         1 UNK         0.3000 
    180 H180       -2.9951  -10.6064  -40.4915 H         1 UNK         0.0600 
    181 H181       -2.5236   -8.5239  -41.8336 H         1 UNK         0.0600 
    182 H182       -0.8016   -8.8762  -41.7631 H         1 UNK         0.0600 
    183 H183       -1.7029   -8.5211  -40.2887 H         1 UNK         0.0600 
    184 H184       -3.3617  -11.3888  -42.5171 H         1 UNK         0.3000 
    185 H185       -3.0198  -12.5578  -44.3837 H         1 UNK         0.0600 
    186 H186       -1.7972  -10.2082  -45.9516 H         1 UNK         0.0600 
    187 H187       -3.1215  -11.2321  -46.5047 H         1 UNK         0.0600 
    188 H188       -3.3499  -10.1719  -45.1243 H         1 UNK         0.0600 
    189 H189       -0.2191  -12.6097  -45.0980 H         1 UNK         0.3000 
    190 H190       -1.1415  -21.1676  -46.5711 H         1 UNK         0.3000 
    191 H191       -3.6472  -21.1863  -47.8197 H         1 UNK         0.0600 
    192 H192       -3.0294  -20.2904  -44.9676 H         1 UNK         0.0600 
    193 H193       -4.3641  -19.7620  -45.9777 H         1 UNK         0.0600 
    194 H194       -2.7166  -19.3333  -46.4125 H         1 UNK         0.0600 
    195 H195       -2.6176  -22.8730  -44.8355 H         1 UNK         0.3000 
    196 H196       -5.0381  -24.0853  -44.1274 H         1 UNK         0.0600 
    197 H197       -3.5754  -25.6168  -42.7943 H         1 UNK         0.0600 
    198 H198       -3.0632  -23.9445  -42.6398 H         1 UNK         0.0600 
    199 H199       -2.1647  -25.0499  -43.6791 H         1 UNK         0.0600 
    200 H200       -2.9414  -24.9572  -46.7849 H         1 UNK         0.3000 
    201 H201       -4.1640  -27.6291  -47.1618 H         1 UNK         0.0600 
    202 H202       -1.6914  -27.3190  -47.4789 H         1 UNK         0.0600 
    203 H203       -2.0073  -26.1761  -48.7810 H         1 UNK         0.0600 
    204 H204       -2.4920  -27.8578  -48.9455 H         1 UNK         0.0600 
    205 H205       -5.8069  -25.2006  -47.2694 H         1 UNK         0.3000 
    206 H206       -7.4070  -24.1602  -48.3856 H         1 UNK         0.0600 
    207 H207       -8.6408  -25.3474  -50.1689 H         1 UNK         0.0600 
    208 H208       -7.3221  -26.4888  -50.3839 H         1 UNK         0.0600 
    209 H209       -8.2411  -26.4711  -48.8800 H         1 UNK         0.0600 
    210 H210       -4.9468  -23.1736  -48.7266 H         1 UNK         0.3000 
    211 H211       -3.5167  -21.9284  -49.9027 H         1 UNK         0.0600 
    212 H212       -5.8113  -21.3361  -51.8298 H         1 UNK         0.0600 
    213 H213       -4.3723  -20.3643  -51.5407 H         1 UNK         0.0600 
    214 H214       -5.5749  -20.5341  -50.2772 H         1 UNK         0.0600 
    215 H215       -3.2502  -24.5565  -50.2981 H         1 UNK         0.3000 
    216 H216       -2.4155  -26.2279  -51.4764 H         1 UNK         0.0600 
    217 H217       -0.7015  -25.7388  -53.2155 H         1 UNK         0.0600 
    218 H218       -0.4780  -24.7450  -51.7884 H         1 UNK         0.0600 
    219 H219       -1.1898  -24.0514  -53.2451 H         1 UNK         0.0600 
    220 H220       -4.9170  -26.1311  -51.8372 H         1 UNK         0.3000 
    221 H221       -6.7300  -26.6170  -53.0142 H         1 UNK         0.0600 
    222 H222       -4.8279  -27.7380  -55.1410 H         1 UNK         0.0600 
    223 H223       -5.3998  -28.6051  -53.7165 H         1 UNK         0.0600 
    224 H224       -6.5346  -28.1195  -54.9658 H         1 UNK         0.0600 
    225 H225       -6.3858  -24.0926  -53.0257 H         1 UNK         0.3000 
    226 H226       -6.9193  -22.1423  -53.8499 H         1 UNK         0.0600 
    227 H227       -9.0194  -23.3615  -54.4401 H         1 UNK         0.0600 
    228 H228       -8.7150  -22.0163  -55.5249 H         1 UNK         0.0600 
    229 H229       -8.3934  -23.6593  -56.0617 H         1 UNK         0.0600 
    230 H230       -4.3291  -23.0219  -54.6228 H         1 UNK         0.3000 
    231 H231       -3.8151  -21.9424  -57.3188 H         1 UNK         0.0600 
    232 H232       -1.9079  -22.8982  -55.1208 H         1 UNK         0.0600 
    233 H233       -2.4520  -23.8476  -56.4991 H         1 UNK         0.0600 
    234 H234       -1.4468  -22.4277  -56.7519 H         1 UNK         0.0600 
    235 H235       -3.0685  -21.1607  -53.9150 H         1 UNK         0.3000 
    236 H236       -2.5550  -19.3174  -52.7793 H         1 UNK         0.0600 
    237 H237       -4.5558  -17.9659  -54.6640 H         1 UNK         0.0600 
    238 H238       -5.0207  -19.0429  -53.3548 H         1 UNK         0.0600 
    239 H239       -4.2126  -17.5262  -52.9948 H         1 UNK         0.0600 
    240 H240       -0.7457  -19.6656  -55.1042 H         1 UNK         0.3000 
    241 H241        0.8550  -18.7043  -56.2753 H         1 UNK         0.0600 
    242 H242       -1.8884  -16.9968  -58.3412 H         1 UNK         0.3800 
    243 H243       -2.0937  -18.2347  -57.1250 H         1 UNK         0.3800 
    244 H244        1.8014  -16.3954  -55.5807 H         1 UNK         0.0800 
    245 H245        0.6275  -16.3802  -54.3017 H         1 UNK         0.0800 
    246 H246        2.9511  -17.6773  -51.6844 H         1 UNK         0.0800 
    247 H247        1.9115  -16.4044  -52.2674 H         1 UNK         0.0800 
@<TRIPOS>BOND
     1    1    2 1    
     2    1  127 1    
     3    1  128 1    
     4    1  129 1    
     5    2    3 2    
     6    2    4 am   BACKBONE|DICT|INTERRES
     7    4    5 1    
     8    4  130 1    
     9    5    6 1    
    10    5   65 1    
    11    5  131 1    
    12    6    7 1    
    13    6  132 1    
    14    6  133 1    
    15    7    8 1    
    16    8    9 1    
    17    8  134 1    
    18    8  135 1    
    19    9   10 ar   
    20    9   14 ar   
    21   10   11 ar   
    22   10  136 1    
    23   11   12 ar   
    24   11  126 1    
    25   12   13 ar   
    26   12  137 1    
    27   13   14 ar   
    28   13   15 1    
    29   14  138 1    
    30   15   16 1    
    31   15  139 1    
    32   15  140 1    
    33   16   17 1    
    34   17   18 1    
    35   17  141 1    
    36   17  142 1    
    37   18   19 1    
    38   18   67 1    
    39   18  143 1    
    40   19   20 am   BACKBONE|DICT|INTERRES
    41   19  144 1    
    42   20   21 2    
    43   20   22 1    
    44   22   23 1    
    45   22   24 1    
    46   22  145 1    
    47   23  146 1    
    48   23  147 1    
    49   23  148 1    
    50   24   25 am   BACKBONE|DICT|INTERRES
    51   24  149 1    
    52   25   26 2    
    53   25   27 1    
    54   27   28 1    
    55   27   29 1    
    56   27  150 1    
    57   28  151 1    
    58   28  152 1    
    59   28  153 1    
    60   29   30 am   BACKBONE|DICT|INTERRES
    61   29  154 1    
    62   30   31 2    
    63   30   32 1    
    64   32   33 1    
    65   32   34 1    
    66   32  155 1    
    67   33  156 1    
    68   33  157 1    
    69   33  158 1    
    70   34   35 am   BACKBONE|DICT|INTERRES
    71   34  159 1    
    72   35   36 2    
    73   35   37 1    
    74   37   38 1    
    75   37   39 1    
    76   37  160 1    
    77   38  161 1    
    78   38  162 1    
    79   38  163 1    
    80   39   40 am   BACKBONE|DICT|INTERRES
    81   39  164 1    
    82   40   41 2    
    83   40   42 1    
    84   42   43 1    
    85   42   44 1    
    86   42  165 1    
    87   43  166 1    
    88   43  167 1    
    89   43  168 1    
    90   44   45 am   BACKBONE|DICT|INTERRES
    91   44  169 1    
    92   45   46 2    
    93   45   47 1    
    94   47   48 1    
    95   47   49 1    
    96   47  170 1    
    97   48  171 1    
    98   48  172 1    
    99   48  173 1    
   100   49   50 am   BACKBONE|DICT|INTERRES
   101   49  174 1    
   102   50   51 2    
   103   50   52 1    
   104   52   53 1    
   105   52   54 1    
   106   52  175 1    
   107   53  176 1    
   108   53  177 1    
   109   53  178 1    
   110   54   55 am   BACKBONE|DICT|INTERRES
   111   54  179 1    
   112   55   56 2    
   113   55   57 1    
   114   57   58 1    
   115   57   59 1    
   116   57  180 1    
   117   58  181 1    
   118   58  182 1    
   119   58  183 1    
   120   59   60 am   BACKBONE|DICT|INTERRES
   121   59  184 1    
   122   60   61 2    
   123   60   62 1    
   124   62   63 1    
   125   62   64 1    
   126   62  185 1    
   127   63  186 1    
   128   63  187 1    
   129   63  188 1    
   130   64   65 am   BACKBONE|DICT|INTERRES
   131   64  189 1    
   132   65   66 2    
   133   67   68 2    
   134   67   69 am   BACKBONE|DICT|INTERRES
   135   69   70 1    
   136   69  190 1    
   137   70   71 1    
   138   70   72 1    
   139   70  191 1    
   140   71  192 1    
   141   71  193 1    
   142   71  194 1    
   143   72   73 2    
   144   72   74 am   BACKBONE|DICT|INTERRES
   145   74   75 1    
   146   74  195 1    
   147   75   76 1    
   148   75   77 1    
   149   75  196 1    
   150   76  197 1    
   151   76  198 1    
   152   76  199 1    
   153   77   78 2    
   154   77   79 am   BACKBONE|DICT|INTERRES
   155   79   80 1    
   156   79  200 1    
   157   80   81 1    
   158   80   82 1    
   159   80  201 1    
   160   81  202 1    
   161   81  203 1    
   162   81  204 1    
   163   82   83 2    
   164   82   84 am   BACKBONE|DICT|INTERRES
   165   84   85 1    
   166   84  205 1    
   167   85   86 1    
   168   85   87 1    
   169   85  206 1    
   170   86  207 1    
   171   86  208 1    
   172   86  209 1    
   173   87   88 2    
   174   87   89 am   BACKBONE|DICT|INTERRES
   175   89   90 1    
   176   89  210 1    
   177   90   91 1    
   178   90   92 1    
   179   90  211 1    
   180   91  212 1    
   181   91  213 1    
   182   91  214 1    
   183   92   93 2    
   184   92   94 am   BACKBONE|DICT|INTERRES
   185   94   95 1    
   186   94  215 1    
   187   95   96 1    
   188   95   97 1    
   189   95  216 1    
   190   96  217 1    
   191   96  218 1    
   192   96  219 1    
   193   97   98 2    
   194   97   99 am   BACKBONE|DICT|INTERRES
   195   99  100 1    
   196   99  220 1    
   197  100  101 1    
   198  100  102 1    
   199  100  221 1    
   200  101  222 1    
   201  101  223 1    
   202  101  224 1    
   203  102  103 2    
   204  102  104 am   BACKBONE|DICT|INTERRES
   205  104  105 1    
   206  104  225 1    
   207  105  106 1    
   208  105  107 1    
   209  105  226 1    
   210  106  227 1    
   211  106  228 1    
   212  106  229 1    
   213  107  108 2    
   214  107  109 am   BACKBONE|DICT|INTERRES
   215  109  110 1    
   216  109  230 1    
   217  110  111 1    
   218  110  112 1    
   219  110  231 1    
   220  111  232 1    
   221  111  233 1    
   222  111  234 1    
   223  112  113 2    
   224  112  114 am   BACKBONE|DICT|INTERRES
   225  114  115 1    
   226  114  235 1    
   227  115  116 1    
   228  115  117 1    
   229  115  236 1    
   230  116  237 1    
   231  116  238 1    
   232  116  239 1    
   233  117  118 2    
   234  117  119 am   BACKBONE|DICT|INTERRES
   235  119  120 1    
   236  119  240 1    
   237  120  121 1    
   238  120  124 1    
   239  120  241 1    
   240  121  122 am   BACKBONE|DICT|INTERRES
   241  121  123 2    
   242  122  242 1    
   243  122  243 1    
   244  124  125 1    
   245  124  244 1    
   246  124  245 1    
   247  125  126 1    
   248  126  246 1    
   249  126  247 1    
@<TRIPOS>SUBSTRUCTURE
     1 UNK         1 GROUP             0       ****    0 ROOT    
