@<TRIPOS>MOLECULE
3R540
247   249    1
SMALL
USER_CHARGES


@<TRIPOS>ATOM
      1 CA          7.2109  -10.1489  -46.8583 C.3       0 UNK        -0.1800 
      2 C           6.3148  -11.1874  -47.5185 C.2       0 UNK         0.5000 
      3 O           6.2681  -11.2593  -48.7462 O.2       0 UNK        -0.5000 
      4 N           5.6115  -11.9878  -46.7056 N.am      1 UNK        -0.5000 
      5 CA          4.6693  -13.0353  -47.1172 C.3       1 UNK         0.1400 
      6 C6          5.3551  -14.2185  -47.8516 C.3       23 UNK        -0.0398 
      7 S7          4.3434  -15.7416  -47.8227 S.3       23 UNK        -0.2404 
      8 C8          4.1669  -16.0413  -49.6061 C.3       23 UNK        -0.0205 
      9 C9          3.0700  -17.0464  -49.9129 C.ar      23 UNK        -0.0193 
     10 C10         1.7870  -16.6007  -50.2415 C.ar      23 UNK        -0.1150 
     11 C11         0.7917  -17.5100  -50.6107 C.ar      23 UNK        -0.0193 
     12 C12         1.0852  -18.8762  -50.6356 C.ar      23 UNK        -0.1150 
     13 C13         2.3571  -19.3366  -50.2783 C.ar      23 UNK        -0.0193 
     14 C14         3.3462  -18.4161  -49.9195 C.ar      23 UNK        -0.1150 
     15 C15         2.6725  -20.8251  -50.3008 C.3       23 UNK        -0.0205 
     16 S16         2.3568  -21.6084  -48.6885 S.3       23 UNK        -0.2404 
     17 C17         0.5395  -21.5154  -48.6223 C.3       23 UNK        -0.0398 
     18 CA         -0.0764  -22.5215  -47.6265 C.3       11 UNK         0.1400 
     19 N           0.2210  -22.1955  -46.2281 N.am      11 UNK        -0.5000 
     20 C          -0.0796  -22.9853  -45.1871 C.2       10 UNK         0.5000 
     21 O          -0.5698  -24.1083  -45.3029 O.2       10 UNK        -0.5000 
     22 CA          0.1450  -22.4054  -43.7791 C.3       10 UNK         0.1400 
     23 CB          1.6148  -22.5355  -43.3535 C.3       10 UNK        -0.1800 
     24 N          -0.2894  -21.0113  -43.6745 N.am      10 UNK        -0.5000 
     25 C          -1.5608  -20.6061  -43.8090 C.2       9 UNK         0.5000 
     26 O          -2.5057  -21.3784  -43.9673 O.2       9 UNK        -0.5000 
     27 CA         -1.8211  -19.0879  -43.8139 C.3       9 UNK         0.1400 
     28 CB         -1.9054  -18.5409  -42.3819 C.3       9 UNK        -0.1800 
     29 N          -0.8150  -18.3417  -44.5691 N.am      9 UNK        -0.5000 
     30 C          -0.5913  -18.4771  -45.8840 C.2       8 UNK         0.5000 
     31 O          -1.2476  -19.2201  -46.6119 O.2       8 UNK        -0.5000 
     32 CA          0.6067  -17.7058  -46.4671 C.3       8 UNK         0.1400 
     33 CB          0.2425  -16.2429  -46.7468 C.3       8 UNK        -0.1800 
     34 N           1.7724  -17.7530  -45.5857 N.am      8 UNK        -0.5000 
     35 C           2.4538  -18.8685  -45.2934 C.2       7 UNK         0.5000 
     36 O           2.1833  -19.9760  -45.7547 O.2       7 UNK        -0.5000 
     37 CA          3.5875  -18.7304  -44.2614 C.3       7 UNK         0.1400 
     38 CB          4.8478  -18.1275  -44.8991 C.3       7 UNK        -0.1800 
     39 N           3.1912  -17.9224  -43.1069 N.am      7 UNK        -0.5000 
     40 C           2.2621  -18.2893  -42.2130 C.2       6 UNK         0.5000 
     41 O           1.6744  -19.3695  -42.2432 O.2       6 UNK        -0.5000 
     42 CA          1.8988  -17.2603  -41.1256 C.3       6 UNK         0.1400 
     43 CB          2.8508  -17.3838  -39.9266 C.3       6 UNK        -0.1800 
     44 N           1.8969  -15.8745  -41.6046 N.am      6 UNK        -0.5000 
     45 C           1.0992  -15.4041  -42.5726 C.2       5 UNK         0.5000 
     46 O           0.3051  -16.1051  -43.2019 O.2       5 UNK        -0.5000 
     47 CA          1.2654  -13.9162  -42.9277 C.3       5 UNK         0.1400 
     48 CB          2.4691  -13.7333  -43.8661 C.3       5 UNK        -0.1800 
     49 N           0.0666  -13.3557  -43.5584 N.am      5 UNK        -0.5000 
     50 C          -1.0874  -13.1240  -42.9127 C.2       4 UNK         0.5000 
     51 O          -1.2390  -13.3476  -41.7101 O.2       4 UNK        -0.5000 
     52 CA         -2.2645  -12.5069  -43.7001 C.3       4 UNK         0.1400 
     53 CB         -2.5795  -11.0962  -43.1744 C.3       4 UNK        -0.1800 
     54 N          -2.0270  -12.4126  -45.1400 N.am      4 UNK        -0.5000 
     55 C          -2.3021  -13.3703  -46.0348 C.2       3 UNK         0.5000 
     56 O          -2.8370  -14.4406  -45.7471 O.2       3 UNK        -0.5000 
     57 CA         -1.9066  -13.0895  -47.5035 C.3       3 UNK         0.1400 
     58 CB         -3.1358  -12.6479  -48.3131 C.3       3 UNK        -0.1800 
     59 N          -0.8349  -12.0986  -47.6881 N.am      3 UNK        -0.5000 
     60 C           0.3929  -12.1953  -47.1621 C.2       2 UNK         0.5000 
     61 O           0.7197  -13.0941  -46.3869 O.2       2 UNK        -0.5000 
     62 CA          1.4035  -11.0823  -47.5044 C.3       2 UNK         0.1400 
     63 CB          1.0845   -9.8056  -46.7104 C.3       2 UNK        -0.1800 
     64 N           2.7625  -11.5112  -47.1701 N.am      2 UNK        -0.5000 
     65 C           3.4434  -12.4423  -47.8515 C.2       1 UNK         0.5000 
     66 O           3.1296  -12.8193  -48.9823 O.2       1 UNK        -0.5000 
     67 C          -1.5929  -22.6589  -47.8695 C.2       11 UNK         0.5000 
     68 O          -2.0144  -23.6378  -48.4818 O.2       11 UNK        -0.5000 
     69 N          -2.3900  -21.7116  -47.3565 N.am      12 UNK        -0.5000 
     70 CA         -3.8522  -21.7287  -47.4335 C.3       12 UNK         0.1400 
     71 CB         -4.4123  -20.4251  -46.8449 C.3       12 UNK        -0.1800 
     72 C          -4.4808  -22.9550  -46.7430 C.2       12 UNK         0.5000 
     73 O          -5.4278  -23.5304  -47.2791 O.2       12 UNK        -0.5000 
     74 N          -3.9241  -23.3492  -45.5886 N.am      13 UNK        -0.5000 
     75 CA         -4.3058  -24.5510  -44.8463 C.3       13 UNK         0.1400 
     76 CB         -3.6761  -24.5112  -43.4456 C.3       13 UNK        -0.1800 
     77 C          -3.9296  -25.8527  -45.5802 C.2       13 UNK         0.5000 
     78 O          -4.7198  -26.7975  -45.5745 O.2       13 UNK        -0.5000 
     79 N          -2.7448  -25.8782  -46.2084 N.am      14 UNK        -0.5000 
     80 CA         -2.2682  -26.9863  -47.0418 C.3       14 UNK         0.1400 
     81 CB         -0.7696  -26.8035  -47.3266 C.3       14 UNK        -0.1800 
     82 C          -3.0570  -27.1329  -48.3587 C.2       14 UNK         0.5000 
     83 O          -3.2127  -28.2526  -48.8479 O.2       14 UNK        -0.5000 
     84 N          -3.5509  -26.0040  -48.8849 N.am      15 UNK        -0.5000 
     85 CA         -4.3403  -25.8482  -50.1037 C.3       15 UNK         0.1400 
     86 CB         -5.7039  -26.5654  -49.9785 C.3       15 UNK        -0.1800 
     87 C          -3.5203  -26.2197  -51.3551 C.2       15 UNK         0.5000 
     88 O          -2.4530  -25.6371  -51.5586 O.2       15 UNK        -0.5000 
     89 N          -4.0335  -27.1407  -52.1852 N.am      16 UNK        -0.5000 
     90 CA         -3.4641  -27.5978  -53.4578 C.3       16 UNK         0.1400 
     91 CB         -2.1792  -28.4214  -53.2137 C.3       16 UNK        -0.1800 
     92 C          -3.2834  -26.4226  -54.4409 C.2       16 UNK         0.5000 
     93 O          -4.2802  -25.8944  -54.9341 O.2       16 UNK        -0.5000 
     94 N          -2.0351  -25.9981  -54.6753 N.am      17 UNK        -0.5000 
     95 CA         -1.6883  -24.8295  -55.4879 C.3       17 UNK         0.1400 
     96 CB         -0.1703  -24.8226  -55.7243 C.3       17 UNK        -0.1800 
     97 C          -2.1431  -23.4889  -54.8719 C.2       17 UNK         0.5000 
     98 O          -2.3183  -22.5185  -55.6091 O.2       17 UNK        -0.5000 
     99 N          -2.3355  -23.4591  -53.5462 N.am      18 UNK        -0.5000 
    100 CA        -2.7690  -22.2951  -52.7741 C.3       18 UNK         0.1400 
    101 CB        -1.7575  -22.0531  -51.6425 C.3       18 UNK        -0.1800 
    102 C         -4.2059  -22.4641  -52.2413 C.2       18 UNK         0.5000 
    103 O         -4.5774  -21.7983  -51.2742 O.2       18 UNK        -0.5000 
    104 N         -5.0135  -23.3224  -52.8869 N.am      19 UNK        -0.5000 
    105 CA        -6.4154  -23.6017  -52.5391 C.3       19 UNK         0.1400 
    106 CB        -6.9377  -24.7487  -53.4163 C.3       19 UNK        -0.1800 
    107 C         -7.3616  -22.3852  -52.6232 C.2       19 UNK         0.5000 
    108 O         -8.4364  -22.4138  -52.0234 O.2       19 UNK        -0.5000 
    109 N         -6.9356  -21.3278  -53.3282 N.am      20 UNK        -0.5000 
    110 CA        -7.5812  -20.0133  -53.3562 C.3       20 UNK         0.1400 
    111 CB        -6.9584  -19.1876  -54.4933 C.3       20 UNK        -0.1800 
    112 C         -7.4837  -19.2451  -52.0181 C.2       20 UNK         0.5000 
    113 O         -8.2149  -18.2712  -51.8384 O.2       20 UNK        -0.5000 
    114 N         -6.5913  -19.6893  -51.1174 N.am      21 UNK        -0.5000 
    115 CA        -6.3090  -19.1425  -49.7870 C.3       21 UNK         0.1400 
    116 CB        -7.5486  -19.2183  -48.8703 C.3       21 UNK        -0.1800 
    117 C         -5.6528  -17.7471  -49.8252 C.2       21 UNK         0.5000 
    118 O         -5.8751  -16.9361  -48.9242 O.2       21 UNK        -0.5000 
    119 N         -4.8309  -17.5187  -50.8591 N.am      22 UNK        -0.5000 
    120 CA        -4.0592  -16.2920  -51.1243 C.3       22 UNK         0.1400 
    121 C         -4.9334  -15.0487  -51.4808 C.2       22 UNK         0.5000 
    122 N         -4.3199  -13.9064  -51.7647 N.am      22 UNK        -0.7600 
    123 O         -6.1589  -15.1026  -51.5505 O.2       22 UNK        -0.5000 
    124 C124       -3.0101  -15.9865  -50.0146 C.3       23 UNK        -0.0398 
    125 S125       -1.8319  -17.3535  -49.7355 S.3       23 UNK        -0.2404 
    126 C126       -0.5859  -17.0103  -51.0164 C.3       23 UNK        -0.0205 
    127 H127        7.1596  -10.1999  -45.7705 H         1 UNK         0.0600 
    128 H128        6.9125   -9.1465  -47.1657 H         1 UNK         0.0600 
    129 H129        8.2476  -10.3037  -47.1571 H         1 UNK         0.0600 
    130 H130        5.7083  -11.8657  -45.7071 H         1 UNK         0.3000 
    131 H131        4.2798  -13.4355  -46.1802 H         1 UNK         0.0600 
    132 H132        6.2982  -14.4575  -47.3588 H         1 UNK         0.0800 
    133 H133        5.6187  -13.9431  -48.8739 H         1 UNK         0.0800 
    134 H134        5.1188  -16.3934  -50.0064 H         1 UNK         0.0800 
    135 H135        3.9501  -15.1027  -50.1180 H         1 UNK         0.0800 
    136 H136        1.5723  -15.5409  -50.2308 H         1 UNK         0.1150 
    137 H137        0.3182  -19.5791  -50.9281 H         1 UNK         0.1150 
    138 H138        4.3355  -18.7644  -49.6576 H         1 UNK         0.1150 
    139 H139        2.0925  -21.3267  -51.0771 H         1 UNK         0.0800 
    140 H140        3.7206  -20.9755  -50.5635 H         1 UNK         0.0800 
    141 H141        0.1677  -21.7093  -49.6285 H         1 UNK         0.0800 
    142 H142        0.2467  -20.4944  -48.3758 H         1 UNK         0.0800 
    143 H143        0.3624  -23.5011  -47.8282 H         1 UNK         0.0600 
    144 H144        0.6789  -21.3057  -46.0555 H         1 UNK         0.3000 
    145 H145       -0.4572  -22.9919  -43.0822 H         1 UNK         0.0600 
    146 H146        1.7583  -22.1977  -42.3270 H         1 UNK         0.0600 
    147 H147        2.2762  -21.9513  -43.9927 H         1 UNK         0.0600 
    148 H148        1.9439  -23.5740  -43.4033 H         1 UNK         0.0600 
    149 H149        0.4308  -20.3216  -43.4854 H         1 UNK         0.3000 
    150 H150       -2.7851  -18.9172  -44.2967 H         1 UNK         0.0600 
    151 H151       -2.6900  -19.0463  -41.8175 H         1 UNK         0.0600 
    152 H152       -2.1358  -17.4752  -42.3793 H         1 UNK         0.0600 
    153 H153       -0.9699  -18.6823  -41.8416 H         1 UNK         0.0600 
    154 H154       -0.2680  -17.6578  -44.0508 H         1 UNK         0.3000 
    155 H155        0.8781  -18.1750  -47.4157 H         1 UNK         0.0600 
    156 H156        1.0518  -15.7270  -47.2641 H         1 UNK         0.0600 
    157 H157       -0.6420  -16.1759  -47.3778 H         1 UNK         0.0600 
    158 H158        0.0254  -15.6959  -45.8295 H         1 UNK         0.0600 
    159 H159        2.0258  -16.8922  -45.1264 H         1 UNK         0.3000 
    160 H160        3.8345  -19.7336  -43.9071 H         1 UNK         0.0600 
    161 H161        5.6934  -18.1685  -44.2125 H         1 UNK         0.0600 
    162 H162        4.6971  -17.0854  -45.1807 H         1 UNK         0.0600 
    163 H163        5.1323  -18.6743  -45.7993 H         1 UNK         0.0600 
    164 H164        3.6267  -17.0179  -43.0066 H         1 UNK         0.3000 
    165 H165        0.8889  -17.4904  -40.7806 H         1 UNK         0.0600 
    166 H166        2.5459  -16.7275  -39.1112 H         1 UNK         0.0600 
    167 H167        2.8567  -18.4026  -39.5365 H         1 UNK         0.0600 
    168 H168        3.8764  -17.1301  -40.1976 H         1 UNK         0.0600 
    169 H169        2.5328  -15.2404  -41.1427 H         1 UNK         0.3000 
    170 H170        1.4553  -13.3585  -42.0082 H         1 UNK         0.0600 
    171 H171        2.3695  -14.3378  -44.7686 H         1 UNK         0.0600 
    172 H172        2.5796  -12.6921  -44.1688 H         1 UNK         0.0600 
    173 H173        3.3980  -14.0290  -43.3775 H         1 UNK         0.0600 
    174 H174        0.1172  -13.2115  -44.5626 H         1 UNK         0.3000 
    175 H175       -3.1383  -13.1365  -43.5194 H         1 UNK         0.0600 
    176 H176       -1.7370  -10.4176  -43.3138 H         1 UNK         0.0600 
    177 H177       -3.4433  -10.6691  -43.6844 H         1 UNK         0.0600 
    178 H178       -2.8124  -11.1160  -42.1089 H         1 UNK         0.0600 
    179 H179       -1.5804  -11.5698  -45.4691 H         1 UNK         0.3000 
    180 H180       -1.5485  -14.0315  -47.9220 H         1 UNK         0.0600 
    181 H181       -2.8981  -12.5487  -49.3722 H         1 UNK         0.0600 
    182 H182       -3.5223  -11.6897  -47.9639 H         1 UNK         0.0600 
    183 H183       -3.9436  -13.3764  -48.2307 H         1 UNK         0.0600 
    184 H184       -1.0467  -11.3194  -48.2948 H         1 UNK         0.3000 
    185 H185        1.3453  -10.8669  -48.5733 H         1 UNK         0.0600 
    186 H186        1.1066   -9.9836  -45.6342 H         1 UNK         0.0600 
    187 H187        1.8006   -9.0143  -46.9336 H         1 UNK         0.0600 
    188 H188        0.0941   -9.4229  -46.9596 H         1 UNK         0.0600 
    189 H189        3.0939  -11.2538  -46.2528 H         1 UNK         0.3000 
    190 H190       -1.9667  -20.9001  -46.9103 H         1 UNK         0.3000 
    191 H191       -4.1235  -21.7705  -48.4904 H         1 UNK         0.0600 
    192 H192       -4.1504  -20.3126  -45.7937 H         1 UNK         0.0600 
    193 H193       -5.5002  -20.4036  -46.9111 H         1 UNK         0.0600 
    194 H194       -4.0312  -19.5536  -47.3781 H         1 UNK         0.0600 
    195 H195       -3.1938  -22.7737  -45.1797 H         1 UNK         0.3000 
    196 H196       -5.3912  -24.5399  -44.7276 H         1 UNK         0.0600 
    197 H197       -3.9986  -23.6280  -42.8940 H         1 UNK         0.0600 
    198 H198       -2.5871  -24.4955  -43.4928 H         1 UNK         0.0600 
    199 H199       -3.9674  -25.3848  -42.8613 H         1 UNK         0.0600 
    200 H200       -2.1218  -25.0825  -46.1106 H         1 UNK         0.3000 
    201 H201       -2.3945  -27.9119  -46.4764 H         1 UNK         0.0600 
    202 H202       -0.1945  -26.7598  -46.4016 H         1 UNK         0.0600 
    203 H203       -0.5749  -25.8878  -47.8852 H         1 UNK         0.0600 
    204 H204       -0.3797  -27.6353  -47.9143 H         1 UNK         0.0600 
    205 H205       -3.2371  -25.1312  -48.4695 H         1 UNK         0.3000 
    206 H206       -4.5402  -24.7792  -50.1831 H         1 UNK         0.0600 
    207 H207       -5.5985  -27.6476  -49.8971 H         1 UNK         0.0600 
    208 H208       -6.2386  -26.2209  -49.0929 H         1 UNK         0.0600 
    209 H209       -6.3442  -26.3573  -50.8356 H         1 UNK         0.0600 
    210 H210       -4.9222  -27.5518  -51.9379 H         1 UNK         0.3000 
    211 H211       -4.2007  -28.2635  -53.9099 H         1 UNK         0.0600 
    212 H212       -1.4010  -27.8453  -52.7123 H         1 UNK         0.0600 
    213 H213       -1.7667  -28.7931  -54.1526 H         1 UNK         0.0600 
    214 H214       -2.3914  -29.2908  -52.5914 H         1 UNK         0.0600 
    215 H215       -1.2737  -26.4648  -54.2039 H         1 UNK         0.3000 
    216 H216       -2.1851  -24.9305  -56.4551 H         1 UNK         0.0600 
    217 H217        0.1239  -23.9813  -56.3532 H         1 UNK         0.0600 
    218 H218        0.1551  -25.7326  -56.2288 H         1 UNK         0.0600 
    219 H219        0.3820  -24.7409  -54.7872 H         1 UNK         0.0600 
    220 H220       -2.1989  -24.3120  -53.0096 H         1 UNK         0.3000 
    221 H221       -2.7802  -21.4024  -53.4020 H         1 UNK         0.0600 
    222 H222       -1.6872  -22.9211  -50.9877 H         1 UNK         0.0600 
    223 H223       -0.7629  -21.8570  -52.0430 H         1 UNK         0.0600 
    224 H224       -2.0349  -21.1938  -51.0301 H         1 UNK         0.0600 
    225 H225       -4.6403  -23.8290  -53.6791 H         1 UNK         0.3000 
    226 H226       -6.4350  -23.9335  -51.4998 H         1 UNK         0.0600 
    227 H227       -6.3697  -25.6632  -53.2514 H         1 UNK         0.0600 
    228 H228       -7.9805  -24.9754  -53.1903 H         1 UNK         0.0600 
    229 H229       -6.8768  -24.5023  -54.4770 H         1 UNK         0.0600 
    230 H230       -6.0512  -21.4058  -53.8075 H         1 UNK         0.3000 
    231 H231       -8.6413  -20.1571  -53.5748 H         1 UNK         0.0600 
    232 H232       -7.4344  -18.2093  -54.5729 H         1 UNK         0.0600 
    233 H233       -7.0809  -19.6851  -55.4556 H         1 UNK         0.0600 
    234 H234       -5.8925  -19.0212  -54.3331 H         1 UNK         0.0600 
    235 H235       -6.0254  -20.4966  -51.3626 H         1 UNK         0.3000 
    236 H236       -5.5549  -19.8059  -49.3646 H         1 UNK         0.0600 
    237 H237       -8.3370  -18.5393  -49.1952 H         1 UNK         0.0600 
    238 H238       -7.9602  -20.2274  -48.8484 H         1 UNK         0.0600 
    239 H239       -7.2941  -18.9501  -47.8446 H         1 UNK         0.0600 
    240 H240       -4.7372  -18.2487  -51.5487 H         1 UNK         0.3000 
    241 H241       -3.5096  -16.5083  -52.0410 H         1 UNK         0.0600 
    242 H242       -3.3164  -13.8232  -51.7816 H         1 UNK         0.3800 
    243 H243       -4.8826  -13.1071  -52.0120 H         1 UNK         0.3800 
    244 H244       -3.5091  -15.7774  -49.0677 H         1 UNK         0.0800 
    245 H245       -2.4388  -15.0871  -50.2436 H         1 UNK         0.0800 
    246 H246       -0.8908  -17.4887  -51.9482 H         1 UNK         0.0800 
    247 H247       -0.5426  -15.9403  -51.2230 H         1 UNK         0.0800 
@<TRIPOS>BOND
     1    1    2 1    
     2    1  127 1    
     3    1  128 1    
     4    1  129 1    
     5    2    3 2    
     6    2    4 am   BACKBONE|DICT|INTERRES
     7    4    5 1    
     8    4  130 1    
     9    5    6 1    
    10    5   65 1    
    11    5  131 1    
    12    6    7 1    
    13    6  132 1    
    14    6  133 1    
    15    7    8 1    
    16    8    9 1    
    17    8  134 1    
    18    8  135 1    
    19    9   10 ar   
    20    9   14 ar   
    21   10   11 ar   
    22   10  136 1    
    23   11   12 ar   
    24   11  126 1    
    25   12   13 ar   
    26   12  137 1    
    27   13   14 ar   
    28   13   15 1    
    29   14  138 1    
    30   15   16 1    
    31   15  139 1    
    32   15  140 1    
    33   16   17 1    
    34   17   18 1    
    35   17  141 1    
    36   17  142 1    
    37   18   19 1    
    38   18   67 1    
    39   18  143 1    
    40   19   20 am   BACKBONE|DICT|INTERRES
    41   19  144 1    
    42   20   21 2    
    43   20   22 1    
    44   22   23 1    
    45   22   24 1    
    46   22  145 1    
    47   23  146 1    
    48   23  147 1    
    49   23  148 1    
    50   24   25 am   BACKBONE|DICT|INTERRES
    51   24  149 1    
    52   25   26 2    
    53   25   27 1    
    54   27   28 1    
    55   27   29 1    
    56   27  150 1    
    57   28  151 1    
    58   28  152 1    
    59   28  153 1    
    60   29   30 am   BACKBONE|DICT|INTERRES
    61   29  154 1    
    62   30   31 2    
    63   30   32 1    
    64   32   33 1    
    65   32   34 1    
    66   32  155 1    
    67   33  156 1    
    68   33  157 1    
    69   33  158 1    
    70   34   35 am   BACKBONE|DICT|INTERRES
    71   34  159 1    
    72   35   36 2    
    73   35   37 1    
    74   37   38 1    
    75   37   39 1    
    76   37  160 1    
    77   38  161 1    
    78   38  162 1    
    79   38  163 1    
    80   39   40 am   BACKBONE|DICT|INTERRES
    81   39  164 1    
    82   40   41 2    
    83   40   42 1    
    84   42   43 1    
    85   42   44 1    
    86   42  165 1    
    87   43  166 1    
    88   43  167 1    
    89   43  168 1    
    90   44   45 am   BACKBONE|DICT|INTERRES
    91   44  169 1    
    92   45   46 2    
    93   45   47 1    
    94   47   48 1    
    95   47   49 1    
    96   47  170 1    
    97   48  171 1    
    98   48  172 1    
    99   48  173 1    
   100   49   50 am   BACKBONE|DICT|INTERRES
   101   49  174 1    
   102   50   51 2    
   103   50   52 1    
   104   52   53 1    
   105   52   54 1    
   106   52  175 1    
   107   53  176 1    
   108   53  177 1    
   109   53  178 1    
   110   54   55 am   BACKBONE|DICT|INTERRES
   111   54  179 1    
   112   55   56 2    
   113   55   57 1    
   114   57   58 1    
   115   57   59 1    
   116   57  180 1    
   117   58  181 1    
   118   58  182 1    
   119   58  183 1    
   120   59   60 am   BACKBONE|DICT|INTERRES
   121   59  184 1    
   122   60   61 2    
   123   60   62 1    
   124   62   63 1    
   125   62   64 1    
   126   62  185 1    
   127   63  186 1    
   128   63  187 1    
   129   63  188 1    
   130   64   65 am   BACKBONE|DICT|INTERRES
   131   64  189 1    
   132   65   66 2    
   133   67   68 2    
   134   67   69 am   BACKBONE|DICT|INTERRES
   135   69   70 1    
   136   69  190 1    
   137   70   71 1    
   138   70   72 1    
   139   70  191 1    
   140   71  192 1    
   141   71  193 1    
   142   71  194 1    
   143   72   73 2    
   144   72   74 am   BACKBONE|DICT|INTERRES
   145   74   75 1    
   146   74  195 1    
   147   75   76 1    
   148   75   77 1    
   149   75  196 1    
   150   76  197 1    
   151   76  198 1    
   152   76  199 1    
   153   77   78 2    
   154   77   79 am   BACKBONE|DICT|INTERRES
   155   79   80 1    
   156   79  200 1    
   157   80   81 1    
   158   80   82 1    
   159   80  201 1    
   160   81  202 1    
   161   81  203 1    
   162   81  204 1    
   163   82   83 2    
   164   82   84 am   BACKBONE|DICT|INTERRES
   165   84   85 1    
   166   84  205 1    
   167   85   86 1    
   168   85   87 1    
   169   85  206 1    
   170   86  207 1    
   171   86  208 1    
   172   86  209 1    
   173   87   88 2    
   174   87   89 am   BACKBONE|DICT|INTERRES
   175   89   90 1    
   176   89  210 1    
   177   90   91 1    
   178   90   92 1    
   179   90  211 1    
   180   91  212 1    
   181   91  213 1    
   182   91  214 1    
   183   92   93 2    
   184   92   94 am   BACKBONE|DICT|INTERRES
   185   94   95 1    
   186   94  215 1    
   187   95   96 1    
   188   95   97 1    
   189   95  216 1    
   190   96  217 1    
   191   96  218 1    
   192   96  219 1    
   193   97   98 2    
   194   97   99 am   BACKBONE|DICT|INTERRES
   195   99  100 1    
   196   99  220 1    
   197  100  101 1    
   198  100  102 1    
   199  100  221 1    
   200  101  222 1    
   201  101  223 1    
   202  101  224 1    
   203  102  103 2    
   204  102  104 am   BACKBONE|DICT|INTERRES
   205  104  105 1    
   206  104  225 1    
   207  105  106 1    
   208  105  107 1    
   209  105  226 1    
   210  106  227 1    
   211  106  228 1    
   212  106  229 1    
   213  107  108 2    
   214  107  109 am   BACKBONE|DICT|INTERRES
   215  109  110 1    
   216  109  230 1    
   217  110  111 1    
   218  110  112 1    
   219  110  231 1    
   220  111  232 1    
   221  111  233 1    
   222  111  234 1    
   223  112  113 2    
   224  112  114 am   BACKBONE|DICT|INTERRES
   225  114  115 1    
   226  114  235 1    
   227  115  116 1    
   228  115  117 1    
   229  115  236 1    
   230  116  237 1    
   231  116  238 1    
   232  116  239 1    
   233  117  118 2    
   234  117  119 am   BACKBONE|DICT|INTERRES
   235  119  120 1    
   236  119  240 1    
   237  120  121 1    
   238  120  124 1    
   239  120  241 1    
   240  121  122 am   BACKBONE|DICT|INTERRES
   241  121  123 2    
   242  122  242 1    
   243  122  243 1    
   244  124  125 1    
   245  124  244 1    
   246  124  245 1    
   247  125  126 1    
   248  126  246 1    
   249  126  247 1    
@<TRIPOS>SUBSTRUCTURE
     1 UNK         1 GROUP             0       ****    0 ROOT    
