@<TRIPOS>MOLECULE
3R540
247   249    1
SMALL
USER_CHARGES


@<TRIPOS>ATOM
      1 CA          3.5053  -16.0248  -47.2314 C.3       0 UNK        -0.1800 
      2 C           2.4168  -15.1827  -46.5840 C.2       0 UNK         0.5000 
      3 O           2.5259  -14.8471  -45.4057 O.2       0 UNK        -0.5000 
      4 N           1.3836  -14.8218  -47.3578 N.am      1 UNK        -0.5000 
      5 CA          0.1575  -14.1305  -46.9240 C.3       1 UNK         0.1400 
      6 C6         -0.8422  -13.9253  -48.0912 C.3       23 UNK        -0.0398 
      7 S7         -1.2892  -15.4897  -48.9196 S.3       23 UNK        -0.2404 
      8 C8         -0.3654  -15.3429  -50.4845 C.3       23 UNK        -0.0205 
      9 C9         -0.0109  -16.7109  -51.0449 C.ar      23 UNK        -0.0193 
     10 C10        -0.5582  -17.1623  -52.2496 C.ar      23 UNK        -0.1150 
     11 C11        -0.2076  -18.4166  -52.7602 C.ar      23 UNK        -0.0193 
     12 C12         0.6725  -19.2296  -52.0350 C.ar      23 UNK        -0.1150 
     13 C13         1.2119  -18.8018  -50.8168 C.ar      23 UNK        -0.0193 
     14 C14         0.8872  -17.5237  -50.3502 C.ar      23 UNK        -0.1150 
     15 C15         2.1370  -19.7418  -50.0378 C.3       23 UNK        -0.0205 
     16 S16         2.2579  -19.4371  -48.2331 S.3       23 UNK        -0.2404 
     17 C17         0.5200  -19.6058  -47.7071 C.3       23 UNK        -0.0398 
     18 CA          0.1820  -21.0392  -47.2375 C.3       11 UNK         0.1400 
     19 N           0.5625  -21.2802  -45.8456 N.am      11 UNK        -0.5000 
     20 C           0.5028  -22.4713  -45.2348 C.2       10 UNK         0.5000 
     21 O           0.1772  -23.5151  -45.8004 O.2       10 UNK        -0.5000 
     22 CA          0.7983  -22.4890  -43.7249 C.3       10 UNK         0.1400 
     23 CB          2.3093  -22.4217  -43.4580 C.3       10 UNK        -0.1800 
     24 N           0.1174  -21.4073  -43.0109 N.am      10 UNK        -0.5000 
     25 C          -1.2150  -21.2722  -42.9344 C.2       9 UNK         0.5000 
     26 O          -2.0133  -22.0730  -43.4225 O.2       9 UNK        -0.5000 
     27 CA         -1.7479  -20.0099  -42.2330 C.3       9 UNK         0.1400 
     28 CB         -1.6929  -20.1686  -40.7064 C.3       9 UNK        -0.1800 
     29 N          -1.0362  -18.7944  -42.6308 N.am      9 UNK        -0.5000 
     30 C          -1.0146  -18.2989  -43.8770 C.2       8 UNK         0.5000 
     31 O          -1.6189  -18.7985  -44.8236 O.2       8 UNK        -0.5000 
     32 CA         -0.1272  -17.0687  -44.1243 C.3       8 UNK         0.1400 
     33 CB         -0.8057  -15.7911  -43.6080 C.3       8 UNK        -0.1800 
     34 N           1.1920  -17.2055  -43.5149 N.am      8 UNK        -0.5000 
     35 C           2.0831  -18.1596  -43.8161 C.2       7 UNK         0.5000 
     36 O           1.9052  -19.0198  -44.6773 O.2       7 UNK        -0.5000 
     37 CA          3.3596  -18.1995  -42.9607 C.3       7 UNK         0.1400 
     38 CB          4.3741  -17.1439  -43.4250 C.3       7 UNK        -0.1800 
     39 N           3.0636  -18.0135  -41.5398 N.am      7 UNK        -0.5000 
     40 C           2.3865  -18.8922  -40.7862 C.2       6 UNK         0.5000 
     41 O           1.9742  -19.9757  -41.1995 O.2       6 UNK        -0.5000 
     42 CA          2.0877  -18.4689  -39.3369 C.3       6 UNK         0.1400 
     43 CB          3.2934  -18.7532  -38.4289 C.3       6 UNK        -0.1800 
     44 N           1.7230  -17.0553  -39.2324 N.am      6 UNK        -0.5000 
     45 C           0.5911  -16.5284  -39.7209 C.2       5 UNK         0.5000 
     46 O          -0.2841  -17.1878  -40.2808 O.2       5 UNK        -0.5000 
     47 CA          0.4392  -14.9992  -39.6076 C.3       5 UNK         0.1400 
     48 CB         -0.1189  -14.6097  -38.2307 C.3       5 UNK        -0.1800 
     49 N           1.6955  -14.2810  -39.8485 N.am      5 UNK        -0.5000 
     50 C           2.3580  -14.3046  -41.0116 C.2       4 UNK         0.5000 
     51 O           1.9732  -14.9303  -42.0009 O.2       4 UNK        -0.5000 
     52 CA          3.6958  -13.5596  -41.0668 C.3       4 UNK         0.1400 
     53 CB          4.8007  -14.4119  -40.4093 C.3       4 UNK        -0.1800 
     54 N           4.0104  -13.2994  -42.4683 N.am      4 UNK        -0.5000 
     55 C           5.0007  -12.5282  -42.9289 C.2       3 UNK         0.5000 
     56 O           5.7837  -11.9078  -42.2084 O.2       3 UNK        -0.5000 
     57 CA          5.1258  -12.4200  -44.4568 C.3       3 UNK         0.1400 
     58 CB          5.7673  -13.6862  -45.0462 C.3       3 UNK        -0.1800 
     59 N           3.8311  -12.1756  -45.0958 N.am      3 UNK        -0.5000 
     60 C           3.2544  -10.9661  -45.1700 C.2       2 UNK         0.5000 
     61 O           3.7533   -9.9533  -44.6766 O.2       2 UNK        -0.5000 
     62 CA          1.9213  -10.8384  -45.9353 C.3       2 UNK         0.1400 
     63 CB          2.0286   -9.7860  -47.0529 C.3       2 UNK        -0.1800 
     64 N           1.4977  -12.1038  -46.5363 N.am      2 UNK        -0.5000 
     65 C           0.3993  -12.7893  -46.1957 C.2       1 UNK         0.5000 
     66 O          -0.4099  -12.4116  -45.3477 O.2       1 UNK        -0.5000 
     67 C          -1.3035  -21.3542  -47.4923 C.2       11 UNK         0.5000 
     68 O          -1.6060  -22.0084  -48.4899 O.2       11 UNK        -0.5000 
     69 N          -2.2016  -20.9017  -46.6051 N.am      12 UNK        -0.5000 
     70 CA         -3.6461  -21.1318  -46.6919 C.3       12 UNK         0.1400 
     71 CB         -4.3774  -20.3286  -45.6073 C.3       12 UNK        -0.1800 
     72 C          -4.0204  -22.6193  -46.6237 C.2       12 UNK         0.5000 
     73 O          -4.8619  -23.0656  -47.4038 O.2       12 UNK        -0.5000 
     74 N          -3.3539  -23.3600  -45.7280 N.am      13 UNK        -0.5000 
     75 CA         -3.4673  -24.8122  -45.6075 C.3       13 UNK         0.1400 
     76 CB         -2.7381  -25.2745  -44.3368 C.3       13 UNK        -0.1800 
     77 C          -2.9332  -25.5577  -46.8457 C.2       13 UNK         0.5000 
     78 O          -3.5038  -26.5816  -47.2241 O.2       13 UNK        -0.5000 
     79 N          -1.8590  -25.0340  -47.4533 N.am      14 UNK        -0.5000 
     80 CA         -1.2500  -25.5759  -48.6650 C.3       14 UNK         0.1400 
     81 CB          0.1635  -24.9996  -48.8480 C.3       14 UNK        -0.1800 
     82 C          -2.1128  -25.3455  -49.9188 C.2       14 UNK         0.5000 
     83 O          -2.3989  -26.3114  -50.6284 O.2       14 UNK        -0.5000 
     84 N          -2.5052  -24.0889  -50.1774 N.am      15 UNK        -0.5000 
     85 CA         -3.2423  -23.7042  -51.3857 C.3       15 UNK         0.1400 
     86 CB         -2.3181  -23.7774  -52.6187 C.3       15 UNK        -0.1800 
     87 C          -3.9046  -22.3166  -51.3238 C.2       15 UNK         0.5000 
     88 O          -4.9113  -22.1176  -52.0021 O.2       15 UNK        -0.5000 
     89 N          -3.3542  -21.3643  -50.5545 N.am      16 UNK        -0.5000 
     90 CA         -3.7037  -19.9368  -50.6343 C.3       16 UNK         0.1400 
     91 CB         -2.6744  -19.0856  -49.8816 C.3       16 UNK        -0.1800 
     92 C          -5.1447  -19.5662  -50.2331 C.2       16 UNK         0.5000 
     93 O          -5.5703  -18.4439  -50.5062 O.2       16 UNK        -0.5000 
     94 N          -5.9063  -20.5169  -49.6766 N.am      17 UNK        -0.5000 
     95 CA         -7.3566  -20.4449  -49.4810 C.3       17 UNK         0.1400 
     96 CB         -7.7514  -21.4500  -48.3846 C.3       17 UNK        -0.1800 
     97 C          -8.1424  -20.6586  -50.8014 C.2       17 UNK         0.5000 
     98 O          -9.1309  -21.3940  -50.8193 O.2       17 UNK        -0.5000 
     99 N          -7.6823  -20.0070  -51.8802 N.am      18 UNK        -0.5000 
    100 CA        -8.2185  -19.9974  -53.2448 C.3       18 UNK         0.1400 
    101 CB        -9.5560  -19.2288  -53.2824 C.3       18 UNK        -0.1800 
    102 C         -8.3080  -21.3912  -53.9059 C.2       18 UNK         0.5000 
    103 O         -9.2485  -21.6469  -54.6616 O.2       18 UNK        -0.5000 
    104 N         -7.3365  -22.2667  -53.6215 N.am      19 UNK        -0.5000 
    105 CA        -7.2371  -23.6129  -54.1789 C.3       19 UNK         0.1400 
    106 CB        -7.1610  -24.6189  -53.0191 C.3       19 UNK        -0.1800 
    107 C         -5.9950  -23.7277  -55.0757 C.2       19 UNK         0.5000 
    108 O         -5.0395  -22.9639  -54.9196 O.2       19 UNK        -0.5000 
    109 N         -6.0254  -24.7081  -55.9895 N.am      20 UNK        -0.5000 
    110 CA        -4.9521  -25.0696  -56.9216 C.3       20 UNK         0.1400 
    111 CB        -3.8220  -25.7974  -56.1567 C.3       20 UNK        -0.1800 
    112 C         -4.4732  -23.8625  -57.7608 C.2       20 UNK         0.5000 
    113 O         -5.3061  -23.1498  -58.3264 O.2       20 UNK        -0.5000 
    114 N         -3.1542  -23.6347  -57.8077 N.am      21 UNK        -0.5000 
    115 CA        -2.5093  -22.5189  -58.5029 C.3       21 UNK         0.1400 
    116 CB        -0.9906  -22.7539  -58.5072 C.3       21 UNK        -0.1800 
    117 C         -2.8351  -21.1324  -57.9101 C.2       21 UNK         0.5000 
    118 O         -2.6839  -20.1326  -58.6139 O.2       21 UNK        -0.5000 
    119 N         -3.2734  -21.0897  -56.6455 N.am      22 UNK        -0.5000 
    120 CA        -3.6867  -19.8642  -55.9450 C.3       22 UNK         0.1400 
    121 C         -5.1786  -19.4849  -56.1872 C.2       22 UNK         0.5000 
    122 N         -5.9641  -20.2709  -56.9160 N.am      22 UNK        -0.7600 
    123 O         -5.6320  -18.4472  -55.7132 O.2       22 UNK        -0.5000 
    124 C124       -3.3657  -19.9134  -54.4280 C.3       23 UNK        -0.0398 
    125 S125       -1.6572  -20.4357  -54.0410 S.3       23 UNK        -0.2404 
    126 C126       -0.7299  -18.8690  -54.1196 C.3       23 UNK        -0.0205 
    127 H127        3.5730  -16.9903  -46.7304 H         1 UNK         0.0600 
    128 H128        3.3078  -16.2045  -48.2881 H         1 UNK         0.0600 
    129 H129        4.4703  -15.5265  -47.1462 H         1 UNK         0.0600 
    130 H130        1.3743  -15.1258  -48.3192 H         1 UNK         0.3000 
    131 H131       -0.3224  -14.7894  -46.2010 H         1 UNK         0.0600 
    132 H132       -0.4465  -13.2186  -48.8228 H         1 UNK         0.0800 
    133 H133       -1.7686  -13.4831  -47.7196 H         1 UNK         0.0800 
    134 H134       -0.9603  -14.7692  -51.1968 H         1 UNK         0.0800 
    135 H135        0.5577  -14.7828  -50.3313 H         1 UNK         0.0800 
    136 H136       -1.2400  -16.5287  -52.7992 H         1 UNK         0.1150 
    137 H137        0.9363  -20.2030  -52.4246 H         1 UNK         0.1150 
    138 H138        1.3062  -17.1627  -49.4235 H         1 UNK         0.1150 
    139 H139        1.8121  -20.7733  -50.1834 H         1 UNK         0.0800 
    140 H140        3.1374  -19.6705  -50.4661 H         1 UNK         0.0800 
    141 H141       -0.1169  -19.2971  -48.5330 H         1 UNK         0.0800 
    142 H142        0.3230  -18.8829  -46.9144 H         1 UNK         0.0800 
    143 H143        0.7486  -21.7433  -47.8505 H         1 UNK         0.0600 
    144 H144        0.8931  -20.4727  -45.3219 H         1 UNK         0.3000 
    145 H145        0.4261  -23.4350  -43.3264 H         1 UNK         0.0600 
    146 H146        2.5252  -22.5188  -42.3939 H         1 UNK         0.0600 
    147 H147        2.8329  -23.2289  -43.9716 H         1 UNK         0.0600 
    148 H148        2.7391  -21.4804  -43.8007 H         1 UNK         0.0600 
    149 H149        0.7095  -20.7243  -42.5484 H         1 UNK         0.3000 
    150 H150       -2.7939  -19.8888  -42.5214 H         1 UNK         0.0600 
    151 H151       -2.2268  -21.0644  -40.3869 H         1 UNK         0.0600 
    152 H152       -2.1561  -19.3182  -40.2057 H         1 UNK         0.0600 
    153 H153       -0.6673  -20.2502  -40.3458 H         1 UNK         0.0600 
    154 H154       -0.5457  -18.2938  -41.8957 H         1 UNK         0.3000 
    155 H155        0.0188  -16.9709  -45.2016 H         1 UNK         0.0600 
    156 H156       -1.0060  -15.8431  -42.5381 H         1 UNK         0.0600 
    157 H157       -1.7574  -15.6232  -44.1132 H         1 UNK         0.0600 
    158 H158       -0.1819  -14.9145  -43.7835 H         1 UNK         0.0600 
    159 H159        1.4522  -16.4898  -42.8404 H         1 UNK         0.3000 
    160 H160        3.8149  -19.1842  -43.0855 H         1 UNK         0.0600 
    161 H161        5.2975  -17.2007  -42.8488 H         1 UNK         0.0600 
    162 H162        3.9786  -16.1334  -43.3278 H         1 UNK         0.0600 
    163 H163        4.6356  -17.2910  -44.4733 H         1 UNK         0.0600 
    164 H164        3.3222  -17.1280  -41.1339 H         1 UNK         0.3000 
    165 H165        1.2449  -19.0661  -38.9821 H         1 UNK         0.0600 
    166 H166        3.0641  -18.5270  -37.3874 H         1 UNK         0.0600 
    167 H167        3.5775  -19.8053  -38.4768 H         1 UNK         0.0600 
    168 H168        4.1650  -18.1641  -38.7168 H         1 UNK         0.0600 
    169 H169        2.3868  -16.4419  -38.7837 H         1 UNK         0.3000 
    170 H170       -0.2785  -14.6824  -40.3673 H         1 UNK         0.0600 
    171 H171       -1.0635  -15.1190  -38.0348 H         1 UNK         0.0600 
    172 H172        0.5691  -14.8726  -37.4262 H         1 UNK         0.0600 
    173 H173       -0.3111  -13.5382  -38.1720 H         1 UNK         0.0600 
    174 H174        2.0714  -13.7520  -39.0747 H         1 UNK         0.3000 
    175 H175        3.5920  -12.6082  -40.5417 H         1 UNK         0.0600 
    176 H176        4.9615  -15.3461  -40.9481 H         1 UNK         0.0600 
    177 H177        5.7515  -13.8808  -40.3763 H         1 UNK         0.0600 
    178 H178        4.5450  -14.6655  -39.3799 H         1 UNK         0.0600 
    179 H179        3.3884  -13.7647  -43.1212 H         1 UNK         0.3000 
    180 H180        5.7918  -11.5831  -44.6788 H         1 UNK         0.0600 
    181 H181        5.1653  -14.5741  -44.8555 H         1 UNK         0.0600 
    182 H182        6.7520  -13.8613  -44.6112 H         1 UNK         0.0600 
    183 H183        5.8998  -13.5952  -46.1242 H         1 UNK         0.0600 
    184 H184        3.3227  -12.9902  -45.4222 H         1 UNK         0.3000 
    185 H185        1.1821  -10.4882  -45.2123 H         1 UNK         0.0600 
    186 H186        2.2966   -8.8081  -46.6510 H         1 UNK         0.0600 
    187 H187        2.7852  -10.0578  -47.7899 H         1 UNK         0.0600 
    188 H188        1.0788   -9.6694  -47.5752 H         1 UNK         0.0600 
    189 H189        2.1067  -12.4930  -47.2420 H         1 UNK         0.3000 
    190 H190       -1.8866  -20.3115  -45.8376 H         1 UNK         0.3000 
    191 H191       -3.9833  -20.7625  -47.6589 H         1 UNK         0.0600 
    192 H192       -4.0532  -20.6145  -44.6067 H         1 UNK         0.0600 
    193 H193       -5.4550  -20.4872  -45.6624 H         1 UNK         0.0600 
    194 H194       -4.2011  -19.2593  -45.7245 H         1 UNK         0.0600 
    195 H195       -2.7109  -22.8975  -45.0914 H         1 UNK         0.3000 
    196 H196       -4.5259  -25.0585  -45.5021 H         1 UNK         0.0600 
    197 H197       -1.6762  -25.0289  -44.3705 H         1 UNK         0.0600 
    198 H198       -2.8230  -26.3542  -44.2077 H         1 UNK         0.0600 
    199 H199       -3.1604  -24.8055  -43.4479 H         1 UNK         0.0600 
    200 H200       -1.4173  -24.2178  -47.0467 H         1 UNK         0.3000 
    201 H201       -1.1455  -26.6548  -48.5311 H         1 UNK         0.0600 
    202 H202        0.1523  -23.9174  -48.9713 H         1 UNK         0.0600 
    203 H203        0.6444  -25.4231  -49.7305 H         1 UNK         0.0600 
    204 H204        0.7963  -25.2307  -47.9910 H         1 UNK         0.0600 
    205 H205       -2.2453  -23.3509  -49.5268 H         1 UNK         0.3000 
    206 H206       -4.0541  -24.4205  -51.5246 H         1 UNK         0.0600 
    207 H207       -2.0052  -24.7992  -52.8308 H         1 UNK         0.0600 
    208 H208       -2.8212  -23.4092  -53.5132 H         1 UNK         0.0600 
    209 H209       -1.4210  -23.1735  -52.4785 H         1 UNK         0.0600 
    210 H210       -2.5639  -21.5950  -49.9594 H         1 UNK         0.3000 
    211 H211       -3.6144  -19.6616  -51.6842 H         1 UNK         0.0600 
    212 H212       -2.7464  -19.1999  -48.8026 H         1 UNK         0.0600 
    213 H213       -2.8155  -18.0264  -50.1000 H         1 UNK         0.0600 
    214 H214       -1.6635  -19.3417  -50.1932 H         1 UNK         0.0600 
    215 H215       -5.4894  -21.4277  -49.5443 H         1 UNK         0.3000 
    216 H216       -7.6100  -19.4462  -49.1198 H         1 UNK         0.0600 
    217 H217       -8.8161  -21.3880  -48.1568 H         1 UNK         0.0600 
    218 H218       -7.2118  -21.2543  -47.4579 H         1 UNK         0.0600 
    219 H219       -7.5359  -22.4760  -48.6857 H         1 UNK         0.0600 
    220 H220       -6.8722  -19.4165  -51.7308 H         1 UNK         0.3000 
    221 H221       -7.5019  -19.4332  -53.8427 H         1 UNK         0.0600 
    222 H222      -10.3407  -19.7587  -52.7414 H         1 UNK         0.0600 
    223 H223       -9.4538  -18.2379  -52.8399 H         1 UNK         0.0600 
    224 H224       -9.9006  -19.0889  -54.3076 H         1 UNK         0.0600 
    225 H225       -6.5481  -21.9869  -53.0426 H         1 UNK         0.3000 
    226 H226       -8.1149  -23.8505  -54.7829 H         1 UNK         0.0600 
    227 H227       -8.0448  -24.5523  -52.3843 H         1 UNK         0.0600 
    228 H228       -7.1015  -25.6433  -53.3884 H         1 UNK         0.0600 
    229 H229       -6.2877  -24.4451  -52.3913 H         1 UNK         0.0600 
    230 H230       -6.8659  -25.2629  -56.0666 H         1 UNK         0.3000 
    231 H231       -5.3823  -25.7781  -57.6307 H         1 UNK         0.0600 
    232 H232       -4.2159  -26.6491  -55.6020 H         1 UNK         0.0600 
    233 H233       -3.3248  -25.1432  -55.4393 H         1 UNK         0.0600 
    234 H234       -3.0658  -26.1883  -56.8386 H         1 UNK         0.0600 
    235 H235       -2.5439  -24.2565  -57.2978 H         1 UNK         0.3000 
    236 H236       -2.8597  -22.5210  -59.5371 H         1 UNK         0.0600 
    237 H237       -0.5856  -22.7778  -57.4946 H         1 UNK         0.0600 
    238 H238       -0.7371  -23.6956  -58.9944 H         1 UNK         0.0600 
    239 H239       -0.4733  -21.9605  -59.0484 H         1 UNK         0.0600 
    240 H240       -3.4271  -21.9531  -56.1398 H         1 UNK         0.3000 
    241 H241       -3.1086  -19.0336  -56.3537 H         1 UNK         0.0600 
    242 H242       -6.9212  -20.0034  -57.0788 H         1 UNK         0.3800 
    243 H243       -5.6109  -21.1348  -57.3055 H         1 UNK         0.3800 
    244 H244       -3.5524  -18.9429  -53.9653 H         1 UNK         0.0800 
    245 H245       -4.0390  -20.6167  -53.9385 H         1 UNK         0.0800 
    246 H246       -1.3432  -18.0935  -54.5804 H         1 UNK         0.0800 
    247 H247        0.1227  -19.0099  -54.7851 H         1 UNK         0.0800 
@<TRIPOS>BOND
     1    1    2 1    
     2    1  127 1    
     3    1  128 1    
     4    1  129 1    
     5    2    3 2    
     6    2    4 am   BACKBONE|DICT|INTERRES
     7    4    5 1    
     8    4  130 1    
     9    5    6 1    
    10    5   65 1    
    11    5  131 1    
    12    6    7 1    
    13    6  132 1    
    14    6  133 1    
    15    7    8 1    
    16    8    9 1    
    17    8  134 1    
    18    8  135 1    
    19    9   10 ar   
    20    9   14 ar   
    21   10   11 ar   
    22   10  136 1    
    23   11   12 ar   
    24   11  126 1    
    25   12   13 ar   
    26   12  137 1    
    27   13   14 ar   
    28   13   15 1    
    29   14  138 1    
    30   15   16 1    
    31   15  139 1    
    32   15  140 1    
    33   16   17 1    
    34   17   18 1    
    35   17  141 1    
    36   17  142 1    
    37   18   19 1    
    38   18   67 1    
    39   18  143 1    
    40   19   20 am   BACKBONE|DICT|INTERRES
    41   19  144 1    
    42   20   21 2    
    43   20   22 1    
    44   22   23 1    
    45   22   24 1    
    46   22  145 1    
    47   23  146 1    
    48   23  147 1    
    49   23  148 1    
    50   24   25 am   BACKBONE|DICT|INTERRES
    51   24  149 1    
    52   25   26 2    
    53   25   27 1    
    54   27   28 1    
    55   27   29 1    
    56   27  150 1    
    57   28  151 1    
    58   28  152 1    
    59   28  153 1    
    60   29   30 am   BACKBONE|DICT|INTERRES
    61   29  154 1    
    62   30   31 2    
    63   30   32 1    
    64   32   33 1    
    65   32   34 1    
    66   32  155 1    
    67   33  156 1    
    68   33  157 1    
    69   33  158 1    
    70   34   35 am   BACKBONE|DICT|INTERRES
    71   34  159 1    
    72   35   36 2    
    73   35   37 1    
    74   37   38 1    
    75   37   39 1    
    76   37  160 1    
    77   38  161 1    
    78   38  162 1    
    79   38  163 1    
    80   39   40 am   BACKBONE|DICT|INTERRES
    81   39  164 1    
    82   40   41 2    
    83   40   42 1    
    84   42   43 1    
    85   42   44 1    
    86   42  165 1    
    87   43  166 1    
    88   43  167 1    
    89   43  168 1    
    90   44   45 am   BACKBONE|DICT|INTERRES
    91   44  169 1    
    92   45   46 2    
    93   45   47 1    
    94   47   48 1    
    95   47   49 1    
    96   47  170 1    
    97   48  171 1    
    98   48  172 1    
    99   48  173 1    
   100   49   50 am   BACKBONE|DICT|INTERRES
   101   49  174 1    
   102   50   51 2    
   103   50   52 1    
   104   52   53 1    
   105   52   54 1    
   106   52  175 1    
   107   53  176 1    
   108   53  177 1    
   109   53  178 1    
   110   54   55 am   BACKBONE|DICT|INTERRES
   111   54  179 1    
   112   55   56 2    
   113   55   57 1    
   114   57   58 1    
   115   57   59 1    
   116   57  180 1    
   117   58  181 1    
   118   58  182 1    
   119   58  183 1    
   120   59   60 am   BACKBONE|DICT|INTERRES
   121   59  184 1    
   122   60   61 2    
   123   60   62 1    
   124   62   63 1    
   125   62   64 1    
   126   62  185 1    
   127   63  186 1    
   128   63  187 1    
   129   63  188 1    
   130   64   65 am   BACKBONE|DICT|INTERRES
   131   64  189 1    
   132   65   66 2    
   133   67   68 2    
   134   67   69 am   BACKBONE|DICT|INTERRES
   135   69   70 1    
   136   69  190 1    
   137   70   71 1    
   138   70   72 1    
   139   70  191 1    
   140   71  192 1    
   141   71  193 1    
   142   71  194 1    
   143   72   73 2    
   144   72   74 am   BACKBONE|DICT|INTERRES
   145   74   75 1    
   146   74  195 1    
   147   75   76 1    
   148   75   77 1    
   149   75  196 1    
   150   76  197 1    
   151   76  198 1    
   152   76  199 1    
   153   77   78 2    
   154   77   79 am   BACKBONE|DICT|INTERRES
   155   79   80 1    
   156   79  200 1    
   157   80   81 1    
   158   80   82 1    
   159   80  201 1    
   160   81  202 1    
   161   81  203 1    
   162   81  204 1    
   163   82   83 2    
   164   82   84 am   BACKBONE|DICT|INTERRES
   165   84   85 1    
   166   84  205 1    
   167   85   86 1    
   168   85   87 1    
   169   85  206 1    
   170   86  207 1    
   171   86  208 1    
   172   86  209 1    
   173   87   88 2    
   174   87   89 am   BACKBONE|DICT|INTERRES
   175   89   90 1    
   176   89  210 1    
   177   90   91 1    
   178   90   92 1    
   179   90  211 1    
   180   91  212 1    
   181   91  213 1    
   182   91  214 1    
   183   92   93 2    
   184   92   94 am   BACKBONE|DICT|INTERRES
   185   94   95 1    
   186   94  215 1    
   187   95   96 1    
   188   95   97 1    
   189   95  216 1    
   190   96  217 1    
   191   96  218 1    
   192   96  219 1    
   193   97   98 2    
   194   97   99 am   BACKBONE|DICT|INTERRES
   195   99  100 1    
   196   99  220 1    
   197  100  101 1    
   198  100  102 1    
   199  100  221 1    
   200  101  222 1    
   201  101  223 1    
   202  101  224 1    
   203  102  103 2    
   204  102  104 am   BACKBONE|DICT|INTERRES
   205  104  105 1    
   206  104  225 1    
   207  105  106 1    
   208  105  107 1    
   209  105  226 1    
   210  106  227 1    
   211  106  228 1    
   212  106  229 1    
   213  107  108 2    
   214  107  109 am   BACKBONE|DICT|INTERRES
   215  109  110 1    
   216  109  230 1    
   217  110  111 1    
   218  110  112 1    
   219  110  231 1    
   220  111  232 1    
   221  111  233 1    
   222  111  234 1    
   223  112  113 2    
   224  112  114 am   BACKBONE|DICT|INTERRES
   225  114  115 1    
   226  114  235 1    
   227  115  116 1    
   228  115  117 1    
   229  115  236 1    
   230  116  237 1    
   231  116  238 1    
   232  116  239 1    
   233  117  118 2    
   234  117  119 am   BACKBONE|DICT|INTERRES
   235  119  120 1    
   236  119  240 1    
   237  120  121 1    
   238  120  124 1    
   239  120  241 1    
   240  121  122 am   BACKBONE|DICT|INTERRES
   241  121  123 2    
   242  122  242 1    
   243  122  243 1    
   244  124  125 1    
   245  124  244 1    
   246  124  245 1    
   247  125  126 1    
   248  126  246 1    
   249  126  247 1    
@<TRIPOS>SUBSTRUCTURE
     1 UNK         1 GROUP             0       ****    0 ROOT    
