@<TRIPOS>MOLECULE
3R540
247   249    1
SMALL
USER_CHARGES


@<TRIPOS>ATOM
      1 CA          2.8883  -15.9002  -47.0421 C.3       0 UNK        -0.1800 
      2 C           2.3528  -14.7838  -46.1584 C.2       0 UNK         0.5000 
      3 O           2.9372  -14.4918  -45.1161 O.2       0 UNK        -0.5000 
      4 N           1.2513  -14.1464  -46.5756 N.am      1 UNK        -0.5000 
      5 CA          0.5080  -13.1361  -45.8059 C.3       1 UNK         0.1400 
      6 C6         -0.8314  -12.7470  -46.4798 C.3       23 UNK        -0.0398 
      7 S7         -1.8917  -14.1973  -46.8036 S.3       23 UNK        -0.2404 
      8 C8         -1.9800  -14.1973  -48.6207 C.3       23 UNK        -0.0205 
      9 C9         -2.3335  -15.5817  -49.1367 C.ar      23 UNK        -0.0193 
     10 C10        -3.6608  -16.0212  -49.1401 C.ar      23 UNK        -0.1150 
     11 C11        -3.9874  -17.3083  -49.5816 C.ar      23 UNK        -0.0193 
     12 C12        -2.9601  -18.1572  -50.0091 C.ar      23 UNK        -0.1150 
     13 C13        -1.6298  -17.7286  -50.0180 C.ar      23 UNK        -0.0193 
     14 C14        -1.3252  -16.4329  -49.5934 C.ar      23 UNK        -0.1150 
     15 C15        -0.5378  -18.6761  -50.4994 C.3       23 UNK        -0.0205 
     16 S16         0.9306  -18.7642  -49.4156 S.3       23 UNK        -0.2404 
     17 C17         0.2375  -18.9606  -47.7373 C.3       23 UNK        -0.0398 
     18 CA         -0.1483  -20.4191  -47.3793 C.3       11 UNK         0.1400 
     19 N           0.1412  -20.7361  -45.9770 N.am      11 UNK        -0.5000 
     20 C           0.0580  -21.9581  -45.4321 C.2       10 UNK         0.5000 
     21 O          -0.2425  -22.9702  -46.0641 O.2       10 UNK        -0.5000 
     22 CA          0.3018  -22.0610  -43.9152 C.3       10 UNK         0.1400 
     23 CB          1.8030  -22.0217  -43.5931 C.3       10 UNK        -0.1800 
     24 N          -0.3958  -21.0177  -43.1623 N.am      10 UNK        -0.5000 
     25 C          -1.7296  -20.8899  -43.1112 C.2       9 UNK         0.5000 
     26 O          -2.5116  -21.6664  -43.6590 O.2       9 UNK        -0.5000 
     27 CA         -2.2860  -19.6663  -42.3622 C.3       9 UNK         0.1400 
     28 CB         -2.2991  -19.9094  -40.8458 C.3       9 UNK        -0.1800 
     29 N          -1.5505  -18.4371  -42.6549 N.am      9 UNK        -0.5000 
     30 C          -1.4476  -17.8744  -43.8682 C.2       8 UNK         0.5000 
     31 O          -1.9733  -18.3243  -44.8850 O.2       8 UNK        -0.5000 
     32 CA         -0.5596  -16.6228  -43.9626 C.3       8 UNK         0.1400 
     33 CB         -1.2704  -15.4249  -43.3055 C.3       8 UNK        -0.1800 
     34 N           0.7504  -16.8348  -43.3417 N.am      8 UNK        -0.5000 
     35 C           1.6227  -17.7976  -43.6793 C.2       7 UNK         0.5000 
     36 O           1.4495  -18.5824  -44.6094 O.2       7 UNK        -0.5000 
     37 CA          2.8645  -17.9658  -42.7871 C.3       7 UNK         0.1400 
     38 CB          3.9891  -17.0033  -43.1901 C.3       7 UNK        -0.1800 
     39 N           2.5454  -17.7896  -41.3725 N.am      7 UNK        -0.5000 
     40 C           1.8038  -18.6439  -40.6534 C.2       6 UNK         0.5000 
     41 O           1.3583  -19.7039  -41.0936 O.2       6 UNK        -0.5000 
     42 CA          1.4673  -18.2090  -39.2156 C.3       6 UNK         0.1400 
     43 CB          2.6238  -18.5424  -38.2615 C.3       6 UNK        -0.1800 
     44 N           1.1640  -16.7786  -39.1324 N.am      6 UNK        -0.5000 
     45 C           0.0794  -16.2080  -39.6764 C.2       5 UNK         0.5000 
     46 O          -0.8105  -16.8444  -40.2404 O.2       5 UNK        -0.5000 
     47 CA          0.0002  -14.6691  -39.6196 C.3       5 UNK         0.1400 
     48 CB         -0.6893  -14.2123  -38.3256 C.3       5 UNK        -0.1800 
     49 N           1.3126  -14.0214  -39.7271 N.am      5 UNK        -0.5000 
     50 C           2.0883  -14.0633  -40.8184 C.2       4 UNK         0.5000 
     51 O           1.7634  -14.6293  -41.8625 O.2       4 UNK        -0.5000 
     52 CA          3.4821  -13.4361  -40.6969 C.3       4 UNK         0.1400 
     53 CB          4.3990  -14.3673  -39.8746 C.3       4 UNK        -0.1800 
     54 N           4.0434  -13.2222  -42.0310 N.am      4 UNK        -0.5000 
     55 C           5.1548  -12.5235  -42.2942 C.2       3 UNK         0.5000 
     56 O           5.7961  -11.9110  -41.4390 O.2       3 UNK        -0.5000 
     57 CA          5.6393  -12.5026  -43.7520 C.3       3 UNK         0.1400 
     58 CB          6.1733  -13.8780  -44.1842 C.3       3 UNK        -0.1800 
     59 N           4.5919  -12.0640  -44.6725 N.am      3 UNK        -0.5000 
     60 C           4.3448  -10.7777  -44.9629 C.2       2 UNK         0.5000 
     61 O           4.9428   -9.8371  -44.4381 O.2       2 UNK        -0.5000 
     62 CA          3.2839  -10.4712  -46.0398 C.3       2 UNK         0.1400 
     63 CB          3.9630  -10.1240  -47.3741 C.3       2 UNK        -0.1800 
     64 N           2.3502  -11.5725  -46.2649 N.am      2 UNK        -0.5000 
     65 C           1.3256  -11.8741  -45.4577 C.2       1 UNK         0.5000 
     66 O           1.0226  -11.2108  -44.4653 O.2       1 UNK        -0.5000 
     67 C          -1.6201  -20.7111  -47.7377 C.2       11 UNK         0.5000 
     68 O          -1.8841  -21.2854  -48.7920 O.2       11 UNK        -0.5000 
     69 N          -2.5451  -20.3372  -46.8414 N.am      12 UNK        -0.5000 
     70 CA         -3.9798  -20.5720  -46.9852 C.3       12 UNK         0.1400 
     71 CB         -4.7451  -19.7860  -45.9109 C.3       12 UNK        -0.1800 
     72 C          -4.3611  -22.0635  -46.9543 C.2       12 UNK         0.5000 
     73 O          -5.2529  -22.4723  -47.6983 O.2       12 UNK        -0.5000 
     74 N          -3.6867  -22.8430  -46.0977 N.am      13 UNK        -0.5000 
     75 CA         -3.8640  -24.2902  -45.9792 C.3       13 UNK         0.1400 
     76 CB         -3.2243  -24.7737  -44.6685 C.3       13 UNK        -0.1800 
     77 C          -3.2890  -25.0643  -47.1804 C.2       13 UNK         0.5000 
     78 O          -3.8810  -26.0604  -47.5995 O.2       13 UNK        -0.5000 
     79 N          -2.1459  -24.6037  -47.7026 N.am      14 UNK        -0.5000 
     80 CA         -1.4792  -25.1564  -48.8796 C.3       14 UNK         0.1400 
     81 CB         -0.0429  -24.6095  -48.9284 C.3       14 UNK        -0.1800 
     82 C          -2.2172  -24.8192  -50.1891 C.2       14 UNK         0.5000 
     83 O          -2.9909  -23.8607  -50.2433 O.2       14 UNK        -0.5000 
     84 N          -1.9188  -25.5915  -51.2438 N.am      15 UNK        -0.5000 
     85 CA         -2.3415  -25.2992  -52.6168 C.3       15 UNK         0.1400 
     86 CB         -2.2011  -26.5602  -53.4813 C.3       15 UNK        -0.1800 
     87 C          -1.5401  -24.1348  -53.2291 C.2       15 UNK         0.5000 
     88 O          -2.0925  -23.3730  -54.0260 O.2       15 UNK        -0.5000 
     89 N          -0.2635  -24.0085  -52.8304 N.am      16 UNK        -0.5000 
     90 CA          0.6613  -22.9004  -53.1154 C.3       16 UNK         0.1400 
     91 CB          0.2099  -21.6438  -52.3442 C.3       16 UNK        -0.1800 
     92 C           0.8876  -22.6156  -54.6182 C.2       16 UNK         0.5000 
     93 O           1.2148  -21.4866  -54.9860 O.2       16 UNK        -0.5000 
     94 N           0.6741  -23.6412  -55.4573 N.am      17 UNK        -0.5000 
     95 CA          0.6532  -23.6214  -56.9268 C.3       17 UNK         0.1400 
     96 CB          2.0288  -23.2206  -57.4995 C.3       17 UNK        -0.1800 
     97 C          -0.5011  -22.7921  -57.5398 C.2       17 UNK         0.5000 
     98 O          -0.5325  -22.6165  -58.7590 O.2       17 UNK        -0.5000 
     99 N          -1.4385  -22.3214  -56.7068 N.am      18 UNK        -0.5000 
    100 CA        -2.6488  -21.6118  -57.1121 C.3       18 UNK         0.1400 
    101 CB        -2.9690  -20.5195  -56.0788 C.3       18 UNK        -0.1800 
    102 C         -3.8130  -22.6028  -57.2564 C.2       18 UNK         0.5000 
    103 O         -4.4714  -22.6159  -58.2971 O.2       18 UNK        -0.5000 
    104 N         -4.0060  -23.4371  -56.2219 N.am      19 UNK        -0.5000 
    105 CA        -4.9704  -24.5389  -56.1274 C.3       19 UNK         0.1400 
    106 CB        -4.5110  -25.7120  -57.0177 C.3       19 UNK        -0.1800 
    107 C         -6.4370  -24.1239  -56.3897 C.2       19 UNK         0.5000 
    108 O         -7.1847  -24.8696  -57.0267 O.2       19 UNK        -0.5000 
    109 N         -6.8187  -22.9395  -55.8970 N.am      20 UNK        -0.5000 
    110 CA        -8.1712  -22.3903  -55.9732 C.3       20 UNK         0.1400 
    111 CB        -8.0676  -20.9013  -56.3624 C.3       20 UNK        -0.1800 
    112 C         -8.8780  -22.6426  -54.6263 C.2       20 UNK         0.5000 
    113 O         -8.8728  -23.7767  -54.1423 O.2       20 UNK        -0.5000 
    114 N         -9.4329  -21.5879  -54.0099 N.am      21 UNK        -0.5000 
    115 CA        -9.8812  -21.5883  -52.6104 C.3       21 UNK         0.1400 
    116 CB       -10.6859  -20.3078  -52.3404 C.3       21 UNK        -0.1800 
    117 C         -8.7006  -21.7076  -51.6204 C.2       21 UNK         0.5000 
    118 O         -8.8799  -22.1787  -50.4972 O.2       21 UNK        -0.5000 
    119 N         -7.5152  -21.3081  -52.0853 N.am      22 UNK        -0.5000 
    120 CA        -6.2018  -21.5103  -51.4797 C.3       22 UNK         0.1400 
    121 C         -5.1318  -21.6647  -52.5951 C.2       22 UNK         0.5000 
    122 N         -3.9131  -22.0407  -52.2475 N.am      22 UNK        -0.7600 
    123 O         -5.3988  -21.4749  -53.7824 O.2       22 UNK        -0.5000 
    124 C124       -5.8498  -20.4271  -50.4278 C.3       23 UNK        -0.0398 
    125 S125       -5.9600  -18.7043  -51.0360 S.3       23 UNK        -0.2404 
    126 C126       -5.4461  -17.7638  -49.5569 C.3       23 UNK        -0.0205 
    127 H127        3.9082  -15.6756  -47.3537 H         1 UNK         0.0600 
    128 H128        2.8983  -16.8401  -46.4907 H         1 UNK         0.0600 
    129 H129        2.2791  -16.0388  -47.9358 H         1 UNK         0.0600 
    130 H130        0.8179  -14.4308  -47.4414 H         1 UNK         0.3000 
    131 H131        0.2746  -13.6000  -44.8503 H         1 UNK         0.0600 
    132 H132       -1.3954  -12.0696  -45.8359 H         1 UNK         0.0800 
    133 H133       -0.6521  -12.2008  -47.4074 H         1 UNK         0.0800 
    134 H134       -2.7248  -13.4708  -48.9492 H         1 UNK         0.0800 
    135 H135       -1.0267  -13.8770  -49.0436 H         1 UNK         0.0800 
    136 H136       -4.4383  -15.3599  -48.7839 H         1 UNK         0.1150 
    137 H137       -3.1896  -19.1580  -50.3419 H         1 UNK         0.1150 
    138 H138       -0.2979  -16.0970  -49.5973 H         1 UNK         0.1150 
    139 H139       -0.9373  -19.6827  -50.6188 H         1 UNK         0.0800 
    140 H140       -0.2178  -18.3608  -51.4931 H         1 UNK         0.0800 
    141 H141       -0.5794  -18.2594  -47.5585 H         1 UNK         0.0800 
    142 H142        1.0374  -18.6224  -47.0811 H         1 UNK         0.0800 
    143 H143        0.4697  -21.0960  -47.9734 H         1 UNK         0.0600 
    144 H144        0.4292  -19.9582  -45.3878 H         1 UNK         0.3000 
    145 H145       -0.0883  -23.0252  -43.5826 H         1 UNK         0.0600 
    146 H146        1.9807  -22.1562  -42.5260 H         1 UNK         0.0600 
    147 H147        2.3340  -22.8187  -44.1150 H         1 UNK         0.0600 
    148 H148        2.2563  -21.0765  -43.8906 H         1 UNK         0.0600 
    149 H149        0.1805  -20.3598  -42.6481 H         1 UNK         0.3000 
    150 H150       -3.3167  -19.5185  -42.6904 H         1 UNK         0.0600 
    151 H151       -2.8642  -20.8091  -40.5994 H         1 UNK         0.0600 
    152 H152       -2.7649  -19.0770  -40.3179 H         1 UNK         0.0600 
    153 H153       -1.2918  -20.0340  -40.4479 H         1 UNK         0.0600 
    154 H154       -1.1072  -17.9745  -41.8670 H         1 UNK         0.3000 
    155 H155       -0.3875  -16.3941  -45.0163 H         1 UNK         0.0600 
    156 H156       -2.0820  -15.0663  -43.9382 H         1 UNK         0.0600 
    157 H157       -0.5955  -14.5906  -43.1283 H         1 UNK         0.0600 
    158 H158       -1.7137  -15.6823  -42.3448 H         1 UNK         0.0600 
    159 H159        1.0224  -16.1719  -42.6209 H         1 UNK         0.3000 
    160 H160        3.2339  -18.9839  -42.9261 H         1 UNK         0.0600 
    161 H161        4.8996  -17.2000  -42.6241 H         1 UNK         0.0600 
    162 H162        3.7091  -15.9655  -43.0200 H         1 UNK         0.0600 
    163 H163        4.2334  -17.1073  -44.2478 H         1 UNK         0.0600 
    164 H164        2.8322  -16.9219  -40.9476 H         1 UNK         0.3000 
    165 H165        0.5854  -18.7676  -38.8944 H         1 UNK         0.0600 
    166 H166        2.3656  -18.3009  -37.2302 H         1 UNK         0.0600 
    167 H167        2.8619  -19.6064  -38.2952 H         1 UNK         0.0600 
    168 H168        3.5314  -17.9944  -38.5177 H         1 UNK         0.0600 
    169 H169        1.8413  -16.1902  -38.6711 H         1 UNK         0.3000 
    170 H170       -0.6086  -14.3387  -40.4636 H         1 UNK         0.0600 
    171 H171       -1.6782  -14.6630  -38.2309 H         1 UNK         0.0600 
    172 H172       -0.1150  -14.4916  -37.4414 H         1 UNK         0.0600 
    173 H173       -0.8243  -13.1307  -38.3114 H         1 UNK         0.0600 
    174 H174        1.6466  -13.5413  -38.9036 H         1 UNK         0.3000 
    175 H175        3.3830  -12.4718  -40.1946 H         1 UNK         0.0600 
    176 H176        5.3760  -13.9178  -39.6990 H         1 UNK         0.0600 
    177 H177        3.9731  -14.5828  -38.8941 H         1 UNK         0.0600 
    178 H178        4.5594  -15.3200  -40.3807 H         1 UNK         0.0600 
    179 H179        3.5314  -13.6706  -42.7836 H         1 UNK         0.3000 
    180 H180        6.4780  -11.8050  -43.8093 H         1 UNK         0.0600 
    181 H181        5.3954  -14.6398  -44.1798 H         1 UNK         0.0600 
    182 H182        6.9652  -14.2163  -43.5149 H         1 UNK         0.0600 
    183 H183        6.5925  -13.8376  -45.1896 H         1 UNK         0.0600 
    184 H184        4.0128  -12.7913  -45.0789 H         1 UNK         0.3000 
    185 H185        2.7218   -9.5955  -45.7080 H         1 UNK         0.0600 
    186 H186        3.2288   -9.8419  -48.1291 H         1 UNK         0.0600 
    187 H187        4.6467   -9.2820  -47.2579 H         1 UNK         0.0600 
    188 H188        4.5401  -10.9640  -47.7627 H         1 UNK         0.0600 
    189 H189        2.5353  -12.1760  -47.0528 H         1 UNK         0.3000 
    190 H190       -2.2528  -19.8110  -46.0215 H         1 UNK         0.3000 
    191 H191       -4.2724  -20.1738  -47.9544 H         1 UNK         0.0600 
    192 H192       -4.5479  -18.7167  -45.9912 H         1 UNK         0.0600 
    193 H193       -4.4674  -20.1039  -44.9058 H         1 UNK         0.0600 
    194 H194       -5.8214  -19.9271  -46.0160 H         1 UNK         0.0600 
    195 H195       -3.0180  -22.4121  -45.4674 H         1 UNK         0.3000 
    196 H196       -4.9345  -24.5000  -45.9303 H         1 UNK         0.0600 
    197 H197       -2.1553  -24.5594  -44.6399 H         1 UNK         0.0600 
    198 H198       -3.3485  -25.8503  -44.5457 H         1 UNK         0.0600 
    199 H199       -3.6841  -24.2922  -43.8052 H         1 UNK         0.0600 
    200 H200       -1.7151  -23.7862  -47.2855 H         1 UNK         0.3000 
    201 H201       -1.4379  -26.2423  -48.7740 H         1 UNK         0.0600 
    202 H202       -0.0326  -23.5236  -49.0344 H         1 UNK         0.0600 
    203 H203        0.5146  -25.0272  -49.7670 H         1 UNK         0.0600 
    204 H204        0.5054  -24.8608  -48.0202 H         1 UNK         0.0600 
    205 H205       -1.2987  -26.3786  -51.1180 H         1 UNK         0.3000 
    206 H206       -3.3947  -25.0096  -52.6070 H         1 UNK         0.0600 
    207 H207       -2.8197  -27.3712  -53.0966 H         1 UNK         0.0600 
    208 H208       -2.5210  -26.3680  -54.5061 H         1 UNK         0.0600 
    209 H209       -1.1700  -26.9135  -53.5197 H         1 UNK         0.0600 
    210 H210        0.0926  -24.7091  -52.1973 H         1 UNK         0.3000 
    211 H211        1.6317  -23.2010  -52.7179 H         1 UNK         0.0600 
    212 H212       -0.7286  -21.2477  -52.7336 H         1 UNK         0.0600 
    213 H213        0.9543  -20.8495  -52.4096 H         1 UNK         0.0600 
    214 H214        0.0655  -21.8631  -51.2857 H         1 UNK         0.0600 
    215 H215        0.4061  -24.5202  -55.0381 H         1 UNK         0.3000 
    216 H216        0.4647  -24.6521  -57.2303 H         1 UNK         0.0600 
    217 H217        2.8282  -23.8185  -57.0619 H         1 UNK         0.0600 
    218 H218        2.0633  -23.3765  -58.5783 H         1 UNK         0.0600 
    219 H219        2.2558  -22.1701  -57.3176 H         1 UNK         0.0600 
    220 H220       -1.3677  -22.5561  -55.7233 H         1 UNK         0.3000 
    221 H221       -2.4948  -21.1251  -58.0775 H         1 UNK         0.0600 
    222 H222       -3.0600  -20.9260  -55.0715 H         1 UNK         0.0600 
    223 H223       -2.1873  -19.7601  -56.0584 H         1 UNK         0.0600 
    224 H224       -3.9077  -20.0172  -56.3162 H         1 UNK         0.0600 
    225 H225       -3.4040  -23.3227  -55.4119 H         1 UNK         0.3000 
    226 H226       -4.9367  -24.8793  -55.0914 H         1 UNK         0.0600 
    227 H227       -3.4822  -25.9963  -56.7973 H         1 UNK         0.0600 
    228 H228       -5.1317  -26.5942  -56.8571 H         1 UNK         0.0600 
    229 H229       -4.5672  -25.4582  -58.0768 H         1 UNK         0.0600 
    230 H230       -6.1583  -22.4166  -55.3272 H         1 UNK         0.3000 
    231 H231       -8.7519  -22.9004  -56.7441 H         1 UNK         0.0600 
    232 H232       -7.5486  -20.7877  -57.3146 H         1 UNK         0.0600 
    233 H233       -7.5159  -20.3222  -55.6202 H         1 UNK         0.0600 
    234 H234       -9.0532  -20.4503  -56.4839 H         1 UNK         0.0600 
    235 H235       -9.4207  -20.6935  -54.4785 H         1 UNK         0.3000 
    236 H236      -10.5361  -22.4482  -52.4553 H         1 UNK         0.0600 
    237 H237      -11.0572  -20.2901  -51.3149 H         1 UNK         0.0600 
    238 H238      -10.0793  -19.4128  -52.4850 H         1 UNK         0.0600 
    239 H239      -11.5513  -20.2388  -52.9998 H         1 UNK         0.0600 
    240 H240       -7.4619  -20.9598  -53.0323 H         1 UNK         0.3000 
    241 H241       -6.2257  -22.4758  -50.9702 H         1 UNK         0.0600 
    242 H242       -3.6843  -22.3460  -51.3057 H         1 UNK         0.3800 
    243 H243       -3.2315  -22.1859  -52.9802 H         1 UNK         0.3800 
    244 H244       -4.8497  -20.6128  -50.0405 H         1 UNK         0.0800 
    245 H245       -6.5219  -20.5285  -49.5747 H         1 UNK         0.0800 
    246 H246       -6.0999  -16.8932  -49.4866 H         1 UNK         0.0800 
    247 H247       -5.6283  -18.3467  -48.6542 H         1 UNK         0.0800 
@<TRIPOS>BOND
     1    1    2 1    
     2    1  127 1    
     3    1  128 1    
     4    1  129 1    
     5    2    3 2    
     6    2    4 am   BACKBONE|DICT|INTERRES
     7    4    5 1    
     8    4  130 1    
     9    5    6 1    
    10    5   65 1    
    11    5  131 1    
    12    6    7 1    
    13    6  132 1    
    14    6  133 1    
    15    7    8 1    
    16    8    9 1    
    17    8  134 1    
    18    8  135 1    
    19    9   10 ar   
    20    9   14 ar   
    21   10   11 ar   
    22   10  136 1    
    23   11   12 ar   
    24   11  126 1    
    25   12   13 ar   
    26   12  137 1    
    27   13   14 ar   
    28   13   15 1    
    29   14  138 1    
    30   15   16 1    
    31   15  139 1    
    32   15  140 1    
    33   16   17 1    
    34   17   18 1    
    35   17  141 1    
    36   17  142 1    
    37   18   19 1    
    38   18   67 1    
    39   18  143 1    
    40   19   20 am   BACKBONE|DICT|INTERRES
    41   19  144 1    
    42   20   21 2    
    43   20   22 1    
    44   22   23 1    
    45   22   24 1    
    46   22  145 1    
    47   23  146 1    
    48   23  147 1    
    49   23  148 1    
    50   24   25 am   BACKBONE|DICT|INTERRES
    51   24  149 1    
    52   25   26 2    
    53   25   27 1    
    54   27   28 1    
    55   27   29 1    
    56   27  150 1    
    57   28  151 1    
    58   28  152 1    
    59   28  153 1    
    60   29   30 am   BACKBONE|DICT|INTERRES
    61   29  154 1    
    62   30   31 2    
    63   30   32 1    
    64   32   33 1    
    65   32   34 1    
    66   32  155 1    
    67   33  156 1    
    68   33  157 1    
    69   33  158 1    
    70   34   35 am   BACKBONE|DICT|INTERRES
    71   34  159 1    
    72   35   36 2    
    73   35   37 1    
    74   37   38 1    
    75   37   39 1    
    76   37  160 1    
    77   38  161 1    
    78   38  162 1    
    79   38  163 1    
    80   39   40 am   BACKBONE|DICT|INTERRES
    81   39  164 1    
    82   40   41 2    
    83   40   42 1    
    84   42   43 1    
    85   42   44 1    
    86   42  165 1    
    87   43  166 1    
    88   43  167 1    
    89   43  168 1    
    90   44   45 am   BACKBONE|DICT|INTERRES
    91   44  169 1    
    92   45   46 2    
    93   45   47 1    
    94   47   48 1    
    95   47   49 1    
    96   47  170 1    
    97   48  171 1    
    98   48  172 1    
    99   48  173 1    
   100   49   50 am   BACKBONE|DICT|INTERRES
   101   49  174 1    
   102   50   51 2    
   103   50   52 1    
   104   52   53 1    
   105   52   54 1    
   106   52  175 1    
   107   53  176 1    
   108   53  177 1    
   109   53  178 1    
   110   54   55 am   BACKBONE|DICT|INTERRES
   111   54  179 1    
   112   55   56 2    
   113   55   57 1    
   114   57   58 1    
   115   57   59 1    
   116   57  180 1    
   117   58  181 1    
   118   58  182 1    
   119   58  183 1    
   120   59   60 am   BACKBONE|DICT|INTERRES
   121   59  184 1    
   122   60   61 2    
   123   60   62 1    
   124   62   63 1    
   125   62   64 1    
   126   62  185 1    
   127   63  186 1    
   128   63  187 1    
   129   63  188 1    
   130   64   65 am   BACKBONE|DICT|INTERRES
   131   64  189 1    
   132   65   66 2    
   133   67   68 2    
   134   67   69 am   BACKBONE|DICT|INTERRES
   135   69   70 1    
   136   69  190 1    
   137   70   71 1    
   138   70   72 1    
   139   70  191 1    
   140   71  192 1    
   141   71  193 1    
   142   71  194 1    
   143   72   73 2    
   144   72   74 am   BACKBONE|DICT|INTERRES
   145   74   75 1    
   146   74  195 1    
   147   75   76 1    
   148   75   77 1    
   149   75  196 1    
   150   76  197 1    
   151   76  198 1    
   152   76  199 1    
   153   77   78 2    
   154   77   79 am   BACKBONE|DICT|INTERRES
   155   79   80 1    
   156   79  200 1    
   157   80   81 1    
   158   80   82 1    
   159   80  201 1    
   160   81  202 1    
   161   81  203 1    
   162   81  204 1    
   163   82   83 2    
   164   82   84 am   BACKBONE|DICT|INTERRES
   165   84   85 1    
   166   84  205 1    
   167   85   86 1    
   168   85   87 1    
   169   85  206 1    
   170   86  207 1    
   171   86  208 1    
   172   86  209 1    
   173   87   88 2    
   174   87   89 am   BACKBONE|DICT|INTERRES
   175   89   90 1    
   176   89  210 1    
   177   90   91 1    
   178   90   92 1    
   179   90  211 1    
   180   91  212 1    
   181   91  213 1    
   182   91  214 1    
   183   92   93 2    
   184   92   94 am   BACKBONE|DICT|INTERRES
   185   94   95 1    
   186   94  215 1    
   187   95   96 1    
   188   95   97 1    
   189   95  216 1    
   190   96  217 1    
   191   96  218 1    
   192   96  219 1    
   193   97   98 2    
   194   97   99 am   BACKBONE|DICT|INTERRES
   195   99  100 1    
   196   99  220 1    
   197  100  101 1    
   198  100  102 1    
   199  100  221 1    
   200  101  222 1    
   201  101  223 1    
   202  101  224 1    
   203  102  103 2    
   204  102  104 am   BACKBONE|DICT|INTERRES
   205  104  105 1    
   206  104  225 1    
   207  105  106 1    
   208  105  107 1    
   209  105  226 1    
   210  106  227 1    
   211  106  228 1    
   212  106  229 1    
   213  107  108 2    
   214  107  109 am   BACKBONE|DICT|INTERRES
   215  109  110 1    
   216  109  230 1    
   217  110  111 1    
   218  110  112 1    
   219  110  231 1    
   220  111  232 1    
   221  111  233 1    
   222  111  234 1    
   223  112  113 2    
   224  112  114 am   BACKBONE|DICT|INTERRES
   225  114  115 1    
   226  114  235 1    
   227  115  116 1    
   228  115  117 1    
   229  115  236 1    
   230  116  237 1    
   231  116  238 1    
   232  116  239 1    
   233  117  118 2    
   234  117  119 am   BACKBONE|DICT|INTERRES
   235  119  120 1    
   236  119  240 1    
   237  120  121 1    
   238  120  124 1    
   239  120  241 1    
   240  121  122 am   BACKBONE|DICT|INTERRES
   241  121  123 2    
   242  122  242 1    
   243  122  243 1    
   244  124  125 1    
   245  124  244 1    
   246  124  245 1    
   247  125  126 1    
   248  126  246 1    
   249  126  247 1    
@<TRIPOS>SUBSTRUCTURE
     1 UNK         1 GROUP             0       ****    0 ROOT    
