@<TRIPOS>MOLECULE
3R540
247   249    1
SMALL
USER_CHARGES


@<TRIPOS>ATOM
      1 CA         -2.6484  -12.1577  -48.5460 C.3       0 UNK        -0.1800 
      2 C          -1.1261  -12.1775  -48.5557 C.2       0 UNK         0.5000 
      3 O          -0.4984  -11.2060  -48.1332 O.2       0 UNK        -0.5000 
      4 N          -0.5336  -13.2729  -49.0456 N.am      1 UNK        -0.5000 
      5 CA          0.9122  -13.5106  -49.0431 C.3       1 UNK         0.1400 
      6 C6          1.2969  -14.5939  -50.0805 C.3       23 UNK        -0.0398 
      7 S7          3.0667  -14.5440  -50.5305 S.3       23 UNK        -0.2404 
      8 C8          3.0707  -15.4294  -52.1259 C.3       23 UNK        -0.0205 
      9 C9          2.4138  -16.8035  -52.0538 C.ar      23 UNK        -0.0193 
     10 C10         1.4418  -17.1629  -52.9911 C.ar      23 UNK        -0.1150 
     11 C11         0.8166  -18.4123  -52.9326 C.ar      23 UNK        -0.0193 
     12 C12         1.1636  -19.3033  -51.9089 C.ar      23 UNK        -0.1150 
     13 C13         2.1412  -18.9586  -50.9673 C.ar      23 UNK        -0.0193 
     14 C14         2.7729  -17.7163  -51.0584 C.ar      23 UNK        -0.1150 
     15 C15         2.5413  -19.9285  -49.8627 C.3       23 UNK        -0.0205 
     16 S16         2.1926  -19.2886  -48.1874 S.3       23 UNK        -0.2404 
     17 C17         0.3711  -19.3248  -48.1449 C.3       23 UNK        -0.0398 
     18 CA         -0.1696  -20.7044  -47.7026 C.3       11 UNK         0.1400 
     19 N           0.0415  -21.0014  -46.2855 N.am      11 UNK        -0.5000 
     20 C          -0.1638  -22.2131  -45.7502 C.2       10 UNK         0.5000 
     21 O          -0.4627  -23.2052  -46.4147 O.2       10 UNK        -0.5000 
     22 CA         -0.0867  -22.3314  -44.2186 C.3       10 UNK         0.1400 
     23 CB          1.3685  -22.4655  -43.7476 C.3       10 UNK        -0.1800 
     24 N          -0.7387  -21.2116  -43.5380 N.am      10 UNK        -0.5000 
     25 C          -2.0476  -20.9319  -43.6294 C.2       9 UNK         0.5000 
     26 O          -2.8530  -21.6251  -44.2528 O.2       9 UNK        -0.5000 
     27 CA         -2.5346  -19.6417  -42.9454 C.3       9 UNK         0.1400 
     28 CB         -2.7477  -19.8712  -41.4421 C.3       9 UNK        -0.1800 
     29 N          -1.6278  -18.5112  -43.1515 N.am      9 UNK        -0.5000 
     30 C          -1.3498  -17.9610  -44.3431 C.2       8 UNK         0.5000 
     31 O          -1.8660  -18.3224  -45.3998 O.2       8 UNK        -0.5000 
     32 CA         -0.2680  -16.8661  -44.3704 C.3       8 UNK         0.1400 
     33 CB         -0.8311  -15.5164  -43.9028 C.3       8 UNK        -0.1800 
     34 N           0.9000  -17.2202  -43.5654 N.am      8 UNK        -0.5000 
     35 C           1.6863  -18.2800  -43.8002 C.2       7 UNK         0.5000 
     36 O           1.5333  -19.0493  -44.7475 O.2       7 UNK        -0.5000 
     37 CA          2.7910  -18.5623  -42.7694 C.3       7 UNK         0.1400 
     38 CB          4.0199  -17.6774  -43.0181 C.3       7 UNK        -0.1800 
     39 N           2.3146  -18.3740  -41.3996 N.am      7 UNK        -0.5000 
     40 C           1.4320  -19.1799  -40.7929 C.2       6 UNK         0.5000 
     41 O           0.9562  -20.1888  -41.3128 O.2       6 UNK        -0.5000 
     42 CA          0.9750  -18.7633  -39.3835 C.3       6 UNK         0.1400 
     43 CB          1.9968  -19.2089  -38.3268 C.3       6 UNK        -0.1800 
     44 N           0.7548  -17.3207  -39.2701 N.am      6 UNK        -0.5000 
     45 C          -0.2142  -16.6523  -39.9113 C.2       5 UNK         0.5000 
     46 O          -1.0422  -17.1874  -40.6468 O.2       5 UNK        -0.5000 
     47 CA         -0.2353  -15.1236  -39.7351 C.3       5 UNK         0.1400 
     48 CB         -1.0295  -14.7358  -38.4790 C.3       5 UNK        -0.1800 
     49 N           1.1007  -14.5249  -39.6710 N.am      5 UNK        -0.5000 
     50 C           1.9997  -14.5647  -40.6626 C.2       4 UNK         0.5000 
     51 O           1.8273  -15.1684  -41.7238 O.2       4 UNK        -0.5000 
     52 CA          3.3319  -13.8431  -40.4126 C.3       4 UNK         0.1400 
     53 CB          4.4536  -14.8544  -40.1298 C.3       4 UNK        -0.1800 
     54 N           3.6912  -13.0324  -41.5729 N.am      4 UNK        -0.5000 
     55 C           3.1829  -11.8202  -41.8318 C.2       3 UNK         0.5000 
     56 O           2.4018  -11.2320  -41.0824 O.2       3 UNK        -0.5000 
     57 CA          3.6282  -11.1445  -43.1412 C.3       3 UNK         0.1400 
     58 CB          4.9004  -10.3138  -42.9106 C.3       3 UNK        -0.1800 
     59 N           3.8709  -12.1035  -44.2214 N.am      3 UNK        -0.5000 
     60 C           2.9046  -12.6668  -44.9584 C.2       2 UNK         0.5000 
     61 O           1.7052  -12.4372  -44.7950 O.2       2 UNK        -0.5000 
     62 CA          3.3840  -13.6347  -46.0578 C.3       2 UNK         0.1400 
     63 CB          3.4041  -15.0921  -45.5598 C.3       2 UNK        -0.1800 
     64 N           2.6442  -13.4860  -47.3163 N.am      2 UNK        -0.5000 
     65 C           1.3985  -13.8784  -47.6219 C.2       1 UNK         0.5000 
     66 O           0.6583  -14.5234  -46.8759 O.2       1 UNK        -0.5000 
     67 C          -1.6474  -20.8755  -48.0995 C.2       11 UNK         0.5000 
     68 O          -1.9236  -21.5531  -49.0882 O.2       11 UNK        -0.5000 
     69 N          -2.5675  -20.2849  -47.3240 N.am      12 UNK        -0.5000 
     70 CA         -4.0122  -20.3308  -47.5537 C.3       12 UNK         0.1400 
     71 CB         -4.7430  -19.5156  -46.4764 C.3       12 UNK        -0.1800 
     72 C          -4.5761  -21.7579  -47.6394 C.2       12 UNK         0.5000 
     73 O          -5.2528  -22.0770  -48.6197 O.2       12 UNK        -0.5000 
     74 N          -4.2725  -22.5720  -46.6215 N.am      13 UNK        -0.5000 
     75 CA         -4.7802  -23.9301  -46.4739 C.3       13 UNK         0.1400 
     76 CB         -4.8856  -24.2732  -44.9777 C.3       13 UNK        -0.1800 
     77 C          -3.9255  -24.9611  -47.2281 C.2       13 UNK         0.5000 
     78 O          -4.4161  -25.5752  -48.1753 O.2       13 UNK        -0.5000 
     79 N          -2.6809  -25.1675  -46.7750 N.am      14 UNK        -0.5000 
     80 CA         -1.8322  -26.2851  -47.1962 C.3       14 UNK         0.1400 
     81 CB         -0.7223  -26.5281  -46.1609 C.3       14 UNK        -0.1800 
     82 C          -1.2503  -26.1126  -48.6077 C.2       14 UNK         0.5000 
     83 O          -1.2273  -27.0830  -49.3661 O.2       14 UNK        -0.5000 
     84 N          -0.8207  -24.8897  -48.9524 N.am      15 UNK        -0.5000 
     85 CA         -0.3600  -24.5564  -50.3076 C.3       15 UNK         0.1400 
     86 CB          0.6664  -23.4145  -50.2625 C.3       15 UNK        -0.1800 
     87 C          -1.5232  -24.2124  -51.2597 C.2       15 UNK         0.5000 
     88 O          -1.2851  -24.0610  -52.4566 O.2       15 UNK        -0.5000 
     89 N          -2.7462  -24.1079  -50.7191 N.am      16 UNK        -0.5000 
     90 CA         -4.0130  -23.8525  -51.4048 C.3       16 UNK         0.1400 
     91 CB         -4.3292  -24.9776  -52.4150 C.3       16 UNK        -0.1800 
     92 C          -4.1115  -22.4472  -52.0305 C.2       16 UNK         0.5000 
     93 O          -4.7675  -22.2893  -53.0618 O.2       16 UNK        -0.5000 
     94 N          -3.4965  -21.4320  -51.4057 N.am      17 UNK        -0.5000 
     95 CA         -3.5588  -20.0363  -51.8555 C.3       17 UNK         0.1400 
     96 CB         -2.5488  -19.1716  -51.0870 C.3       17 UNK        -0.1800 
     97 C          -4.9688  -19.4252  -51.7731 C.2       17 UNK         0.5000 
     98 O          -5.2928  -18.5617  -52.5871 O.2       17 UNK        -0.5000 
     99 N          -5.7866  -19.8914  -50.8201 N.am      18 UNK        -0.5000 
    100 CA        -7.1850  -19.4818  -50.6900 C.3       18 UNK         0.1400 
    101 CB        -7.5822  -19.4972  -49.2063 C.3       18 UNK        -0.1800 
    102 C         -8.1221  -20.3862  -51.5088 C.2       18 UNK         0.5000 
    103 O         -9.1364  -19.9065  -52.0158 O.2       18 UNK        -0.5000 
    104 N         -7.7804  -21.6781  -51.6047 N.am      19 UNK        -0.5000 
    105 CA        -8.6279  -22.7075  -52.2036 C.3       19 UNK         0.1400 
    106 CB        -8.2973  -24.0621  -51.5586 C.3       19 UNK        -0.1800 
    107 C         -8.5162  -22.7932  -53.7363 C.2       19 UNK         0.5000 
    108 O         -9.5265  -23.0550  -54.3908 O.2       19 UNK        -0.5000 
    109 N         -7.3083  -22.6027  -54.2840 N.am      20 UNK        -0.5000 
    110 CA        -7.0044  -22.8365  -55.6995 C.3       20 UNK         0.1400 
    111 CB        -6.6048  -24.3130  -55.8909 C.3       20 UNK        -0.1800 
    112 C         -5.9310  -21.8756  -56.2445 C.2       20 UNK         0.5000 
    113 O         -5.3015  -22.1854  -57.2588 O.2       20 UNK        -0.5000 
    114 N         -5.7115  -20.7419  -55.5581 N.am      21 UNK        -0.5000 
    115 CA        -4.7210  -19.6996  -55.8738 C.3       21 UNK         0.1400 
    116 CB        -5.1523  -18.9212  -57.1343 C.3       21 UNK        -0.1800 
    117 C         -3.2700  -20.2291  -55.9675 C.2       21 UNK         0.5000 
    118 O         -2.4751  -19.6973  -56.7423 O.2       21 UNK        -0.5000 
    119 N         -2.9842  -21.2902  -55.1984 N.am      22 UNK        -0.5000 
    120 CA        -1.7732  -22.1287  -55.2090 C.3       22 UNK         0.1400 
    121 C         -1.3867  -22.7578  -56.5840 C.2       22 UNK         0.5000 
    122 N         -2.3109  -22.8853  -57.5308 N.am      22 UNK        -0.7600 
    123 O         -0.2520  -23.1814  -56.7879 O.2       22 UNK        -0.5000 
    124 C124       -0.5857  -21.5580  -54.3746 C.3       23 UNK        -0.0398 
    125 S125        0.2898  -20.1155  -55.0791 S.3       23 UNK        -0.2404 
    126 C126       -0.2417  -18.7721  -53.9706 C.3       23 UNK        -0.0205 
    127 H127       -3.0171  -11.3171  -49.1339 H         1 UNK         0.0600 
    128 H128       -3.0150  -12.0484  -47.5253 H         1 UNK         0.0600 
    129 H129       -3.0690  -13.0737  -48.9617 H         1 UNK         0.0600 
    130 H130       -1.1051  -14.0511  -49.3405 H         1 UNK         0.3000 
    131 H131        1.3919  -12.5744  -49.3386 H         1 UNK         0.0600 
    132 H132        0.7247  -14.4436  -50.9974 H         1 UNK         0.0800 
    133 H133        1.0399  -15.5935  -49.7238 H         1 UNK         0.0800 
    134 H134        2.5762  -14.8033  -52.8703 H         1 UNK         0.0800 
    135 H135        4.1018  -15.5498  -52.4602 H         1 UNK         0.0800 
    136 H136        1.1695  -16.4651  -53.7706 H         1 UNK         0.1150 
    137 H137        0.6811  -20.2685  -51.8539 H         1 UNK         0.1150 
    138 H138        3.5313  -17.4504  -50.3353 H         1 UNK         0.1150 
    139 H139        2.0498  -20.8919  -49.9932 H         1 UNK         0.0800 
    140 H140        3.6116  -20.1234  -49.9427 H         1 UNK         0.0800 
    141 H141        0.0016  -19.0507  -49.1344 H         1 UNK         0.0800 
    142 H142        0.0242  -18.5427  -47.4677 H         1 UNK         0.0800 
    143 H143        0.3872  -21.4609  -48.2529 H         1 UNK         0.0600 
    144 H144        0.3564  -20.2381  -45.6920 H         1 UNK         0.3000 
    145 H145       -0.6160  -23.2429  -43.9333 H         1 UNK         0.0600 
    146 H146        1.4211  -22.6212  -42.6700 H         1 UNK         0.0600 
    147 H147        1.8542  -23.3182  -44.2237 H         1 UNK         0.0600 
    148 H148        1.9553  -21.5792  -43.9869 H         1 UNK         0.0600 
    149 H149       -0.1467  -20.6199  -42.9645 H         1 UNK         0.3000 
    150 H150       -3.4980  -19.3761  -43.3838 H         1 UNK         0.0600 
    151 H151       -3.4271  -20.7061  -41.2663 H         1 UNK         0.0600 
    152 H152       -3.1841  -18.9919  -40.9680 H         1 UNK         0.0600 
    153 H153       -1.8109  -20.0955  -40.9315 H         1 UNK         0.0600 
    154 H154       -1.1977  -18.1194  -42.3182 H         1 UNK         0.3000 
    155 H155        0.0661  -16.7554  -45.4039 H         1 UNK         0.0600 
    156 H156       -1.6706  -15.2091  -44.5274 H         1 UNK         0.0600 
    157 H157       -0.0751  -14.7330  -43.9682 H         1 UNK         0.0600 
    158 H158       -1.1833  -15.5588  -42.8727 H         1 UNK         0.0600 
    159 H159        1.1260  -16.6025  -42.7906 H         1 UNK         0.3000 
    160 H160        3.0976  -19.6041  -42.8843 H         1 UNK         0.0600 
    161 H161        3.7819  -16.6210  -42.9012 H         1 UNK         0.0600 
    162 H162        4.4021  -17.8180  -44.0300 H         1 UNK         0.0600 
    163 H163        4.8277  -17.9192  -42.3275 H         1 UNK         0.0600 
    164 H164        2.6135  -17.5360  -40.9245 H         1 UNK         0.3000 
    165 H165        0.0289  -19.2684  -39.1778 H         1 UNK         0.0600 
    166 H166        1.6438  -18.9873  -37.3195 H         1 UNK         0.0600 
    167 H167        2.1686  -20.2848  -38.3804 H         1 UNK         0.0600 
    168 H168        2.9601  -18.7153  -38.4616 H         1 UNK         0.0600 
    169 H169        1.3925  -16.8023  -38.6843 H         1 UNK         0.3000 
    170 H170       -0.7456  -14.7001  -40.6025 H         1 UNK         0.0600 
    171 H171       -2.0369  -15.1534  -38.5101 H         1 UNK         0.0600 
    172 H172       -0.5507  -15.1010  -37.5696 H         1 UNK         0.0600 
    173 H173       -1.1309  -13.6537  -38.3946 H         1 UNK         0.0600 
    174 H174        1.3226  -14.0136  -38.8288 H         1 UNK         0.3000 
    175 H175        3.2320  -13.1942  -39.5396 H         1 UNK         0.0600 
    176 H176        4.6328  -15.5122  -40.9797 H         1 UNK         0.0600 
    177 H177        5.3902  -14.3461  -39.8999 H         1 UNK         0.0600 
    178 H178        4.2077  -15.4831  -39.2730 H         1 UNK         0.0600 
    179 H179        4.2845  -13.4660  -42.2635 H         1 UNK         0.3000 
    180 H180        2.8331  -10.4615  -43.4488 H         1 UNK         0.0600 
    181 H181        5.7424  -10.9386  -42.6101 H         1 UNK         0.0600 
    182 H182        4.7452   -9.5727  -42.1252 H         1 UNK         0.0600 
    183 H183        5.1874   -9.7734  -43.8128 H         1 UNK         0.0600 
    184 H184        4.8361  -12.3284  -44.4155 H         1 UNK         0.3000 
    185 H185        4.4118  -13.3669  -46.3082 H         1 UNK         0.0600 
    186 H186        4.1395  -15.2111  -44.7648 H         1 UNK         0.0600 
    187 H187        2.4385  -15.3975  -45.1566 H         1 UNK         0.0600 
    188 H188        3.6711  -15.7851  -46.3579 H         1 UNK         0.0600 
    189 H189        3.1456  -12.9728  -48.0278 H         1 UNK         0.3000 
    190 H190       -2.2570  -19.7164  -46.5385 H         1 UNK         0.3000 
    191 H191       -4.2088  -19.8487  -48.5095 H         1 UNK         0.0600 
    192 H192       -4.4435  -18.4679  -46.5047 H         1 UNK         0.0600 
    193 H193       -5.8231  -19.5492  -46.6215 H         1 UNK         0.0600 
    194 H194       -4.5397  -19.8946  -45.4759 H         1 UNK         0.0600 
    195 H195       -3.6966  -22.2145  -45.8626 H         1 UNK         0.3000 
    196 H196       -5.7901  -23.9761  -46.8880 H         1 UNK         0.0600 
    197 H197       -5.2530  -25.2901  -44.8342 H         1 UNK         0.0600 
    198 H198       -5.5803  -23.6026  -44.4717 H         1 UNK         0.0600 
    199 H199       -3.9238  -24.1954  -44.4695 H         1 UNK         0.0600 
    200 H200       -2.3003  -24.5546  -46.0670 H         1 UNK         0.3000 
    201 H201       -2.4564  -27.1815  -47.2129 H         1 UNK         0.0600 
    202 H202       -1.1367  -26.6735  -45.1632 H         1 UNK         0.0600 
    203 H203       -0.0141  -25.7019  -46.1139 H         1 UNK         0.0600 
    204 H204       -0.1538  -27.4251  -46.4093 H         1 UNK         0.0600 
    205 H205       -0.8443  -24.1465  -48.2611 H         1 UNK         0.3000 
    206 H206        0.1514  -25.4268  -50.7241 H         1 UNK         0.0600 
    207 H207        1.3365  -23.5006  -49.4069 H         1 UNK         0.0600 
    208 H208        1.2831  -23.4243  -51.1618 H         1 UNK         0.0600 
    209 H209        0.1834  -22.4403  -50.2319 H         1 UNK         0.0600 
    210 H210       -2.8146  -24.2297  -49.7186 H         1 UNK         0.3000 
    211 H211       -4.7812  -23.8873  -50.6316 H         1 UNK         0.0600 
    212 H212       -3.6312  -24.9816  -53.2523 H         1 UNK         0.0600 
    213 H213       -5.3280  -24.8669  -52.8360 H         1 UNK         0.0600 
    214 H214       -4.2873  -25.9567  -51.9378 H         1 UNK         0.0600 
    215 H215       -2.9567  -21.6192  -50.5613 H         1 UNK         0.3000 
    216 H216       -3.2649  -20.0189  -52.9031 H         1 UNK         0.0600 
    217 H217       -2.4537  -18.1872  -51.5467 H         1 UNK         0.0600 
    218 H218       -1.5603  -19.6277  -51.0848 H         1 UNK         0.0600 
    219 H219       -2.8454  -19.0088  -50.0536 H         1 UNK         0.0600 
    220 H220       -5.4576  -20.6173  -50.1948 H         1 UNK         0.3000 
    221 H221       -7.3090  -18.4591  -51.0530 H         1 UNK         0.0600 
    222 H222       -7.4800  -20.4902  -48.7674 H         1 UNK         0.0600 
    223 H223       -6.9661  -18.8069  -48.6307 H         1 UNK         0.0600 
    224 H224       -8.6202  -19.1879  -49.0775 H         1 UNK         0.0600 
    225 H225       -6.9304  -21.9881  -51.1606 H         1 UNK         0.3000 
    226 H226       -9.6704  -22.4814  -51.9679 H         1 UNK         0.0600 
    227 H227       -8.4960  -24.0453  -50.4868 H         1 UNK         0.0600 
    228 H228       -8.9045  -24.8601  -51.9881 H         1 UNK         0.0600 
    229 H229       -7.2521  -24.3329  -51.6984 H         1 UNK         0.0600 
    230 H230       -6.5046  -22.4175  -53.6878 H         1 UNK         0.3000 
    231 H231       -7.8955  -22.6431  -56.2998 H         1 UNK         0.0600 
    232 H232       -7.3843  -24.9854  -55.5325 H         1 UNK         0.0600 
    233 H233       -5.6857  -24.5481  -55.3529 H         1 UNK         0.0600 
    234 H234       -6.4401  -24.5467  -56.9433 H         1 UNK         0.0600 
    235 H235       -6.2678  -20.5799  -54.7309 H         1 UNK         0.3000 
    236 H236       -4.7290  -18.9963  -55.0430 H         1 UNK         0.0600 
    237 H237       -4.5067  -18.0587  -57.3036 H         1 UNK         0.0600 
    238 H238       -5.1085  -19.5436  -58.0286 H         1 UNK         0.0600 
    239 H239       -6.1710  -18.5461  -57.0361 H         1 UNK         0.0600 
    240 H240       -3.7310  -21.6428  -54.6082 H         1 UNK         0.3000 
    241 H241       -2.1019  -23.0076  -54.6558 H         1 UNK         0.0600 
    242 H242       -2.0605  -23.3049  -58.4118 H         1 UNK         0.3800 
    243 H243       -3.2606  -22.5615  -57.3830 H         1 UNK         0.3800 
    244 H244        0.1579  -22.3423  -54.2255 H         1 UNK         0.0800 
    245 H245       -0.9376  -21.3206  -53.3705 H         1 UNK         0.0800 
    246 H246       -1.1765  -19.0320  -53.4805 H         1 UNK         0.0800 
    247 H247       -0.4719  -17.9046  -54.5908 H         1 UNK         0.0800 
@<TRIPOS>BOND
     1    1    2 1    
     2    1  127 1    
     3    1  128 1    
     4    1  129 1    
     5    2    3 2    
     6    2    4 am   BACKBONE|DICT|INTERRES
     7    4    5 1    
     8    4  130 1    
     9    5    6 1    
    10    5   65 1    
    11    5  131 1    
    12    6    7 1    
    13    6  132 1    
    14    6  133 1    
    15    7    8 1    
    16    8    9 1    
    17    8  134 1    
    18    8  135 1    
    19    9   10 ar   
    20    9   14 ar   
    21   10   11 ar   
    22   10  136 1    
    23   11   12 ar   
    24   11  126 1    
    25   12   13 ar   
    26   12  137 1    
    27   13   14 ar   
    28   13   15 1    
    29   14  138 1    
    30   15   16 1    
    31   15  139 1    
    32   15  140 1    
    33   16   17 1    
    34   17   18 1    
    35   17  141 1    
    36   17  142 1    
    37   18   19 1    
    38   18   67 1    
    39   18  143 1    
    40   19   20 am   BACKBONE|DICT|INTERRES
    41   19  144 1    
    42   20   21 2    
    43   20   22 1    
    44   22   23 1    
    45   22   24 1    
    46   22  145 1    
    47   23  146 1    
    48   23  147 1    
    49   23  148 1    
    50   24   25 am   BACKBONE|DICT|INTERRES
    51   24  149 1    
    52   25   26 2    
    53   25   27 1    
    54   27   28 1    
    55   27   29 1    
    56   27  150 1    
    57   28  151 1    
    58   28  152 1    
    59   28  153 1    
    60   29   30 am   BACKBONE|DICT|INTERRES
    61   29  154 1    
    62   30   31 2    
    63   30   32 1    
    64   32   33 1    
    65   32   34 1    
    66   32  155 1    
    67   33  156 1    
    68   33  157 1    
    69   33  158 1    
    70   34   35 am   BACKBONE|DICT|INTERRES
    71   34  159 1    
    72   35   36 2    
    73   35   37 1    
    74   37   38 1    
    75   37   39 1    
    76   37  160 1    
    77   38  161 1    
    78   38  162 1    
    79   38  163 1    
    80   39   40 am   BACKBONE|DICT|INTERRES
    81   39  164 1    
    82   40   41 2    
    83   40   42 1    
    84   42   43 1    
    85   42   44 1    
    86   42  165 1    
    87   43  166 1    
    88   43  167 1    
    89   43  168 1    
    90   44   45 am   BACKBONE|DICT|INTERRES
    91   44  169 1    
    92   45   46 2    
    93   45   47 1    
    94   47   48 1    
    95   47   49 1    
    96   47  170 1    
    97   48  171 1    
    98   48  172 1    
    99   48  173 1    
   100   49   50 am   BACKBONE|DICT|INTERRES
   101   49  174 1    
   102   50   51 2    
   103   50   52 1    
   104   52   53 1    
   105   52   54 1    
   106   52  175 1    
   107   53  176 1    
   108   53  177 1    
   109   53  178 1    
   110   54   55 am   BACKBONE|DICT|INTERRES
   111   54  179 1    
   112   55   56 2    
   113   55   57 1    
   114   57   58 1    
   115   57   59 1    
   116   57  180 1    
   117   58  181 1    
   118   58  182 1    
   119   58  183 1    
   120   59   60 am   BACKBONE|DICT|INTERRES
   121   59  184 1    
   122   60   61 2    
   123   60   62 1    
   124   62   63 1    
   125   62   64 1    
   126   62  185 1    
   127   63  186 1    
   128   63  187 1    
   129   63  188 1    
   130   64   65 am   BACKBONE|DICT|INTERRES
   131   64  189 1    
   132   65   66 2    
   133   67   68 2    
   134   67   69 am   BACKBONE|DICT|INTERRES
   135   69   70 1    
   136   69  190 1    
   137   70   71 1    
   138   70   72 1    
   139   70  191 1    
   140   71  192 1    
   141   71  193 1    
   142   71  194 1    
   143   72   73 2    
   144   72   74 am   BACKBONE|DICT|INTERRES
   145   74   75 1    
   146   74  195 1    
   147   75   76 1    
   148   75   77 1    
   149   75  196 1    
   150   76  197 1    
   151   76  198 1    
   152   76  199 1    
   153   77   78 2    
   154   77   79 am   BACKBONE|DICT|INTERRES
   155   79   80 1    
   156   79  200 1    
   157   80   81 1    
   158   80   82 1    
   159   80  201 1    
   160   81  202 1    
   161   81  203 1    
   162   81  204 1    
   163   82   83 2    
   164   82   84 am   BACKBONE|DICT|INTERRES
   165   84   85 1    
   166   84  205 1    
   167   85   86 1    
   168   85   87 1    
   169   85  206 1    
   170   86  207 1    
   171   86  208 1    
   172   86  209 1    
   173   87   88 2    
   174   87   89 am   BACKBONE|DICT|INTERRES
   175   89   90 1    
   176   89  210 1    
   177   90   91 1    
   178   90   92 1    
   179   90  211 1    
   180   91  212 1    
   181   91  213 1    
   182   91  214 1    
   183   92   93 2    
   184   92   94 am   BACKBONE|DICT|INTERRES
   185   94   95 1    
   186   94  215 1    
   187   95   96 1    
   188   95   97 1    
   189   95  216 1    
   190   96  217 1    
   191   96  218 1    
   192   96  219 1    
   193   97   98 2    
   194   97   99 am   BACKBONE|DICT|INTERRES
   195   99  100 1    
   196   99  220 1    
   197  100  101 1    
   198  100  102 1    
   199  100  221 1    
   200  101  222 1    
   201  101  223 1    
   202  101  224 1    
   203  102  103 2    
   204  102  104 am   BACKBONE|DICT|INTERRES
   205  104  105 1    
   206  104  225 1    
   207  105  106 1    
   208  105  107 1    
   209  105  226 1    
   210  106  227 1    
   211  106  228 1    
   212  106  229 1    
   213  107  108 2    
   214  107  109 am   BACKBONE|DICT|INTERRES
   215  109  110 1    
   216  109  230 1    
   217  110  111 1    
   218  110  112 1    
   219  110  231 1    
   220  111  232 1    
   221  111  233 1    
   222  111  234 1    
   223  112  113 2    
   224  112  114 am   BACKBONE|DICT|INTERRES
   225  114  115 1    
   226  114  235 1    
   227  115  116 1    
   228  115  117 1    
   229  115  236 1    
   230  116  237 1    
   231  116  238 1    
   232  116  239 1    
   233  117  118 2    
   234  117  119 am   BACKBONE|DICT|INTERRES
   235  119  120 1    
   236  119  240 1    
   237  120  121 1    
   238  120  124 1    
   239  120  241 1    
   240  121  122 am   BACKBONE|DICT|INTERRES
   241  121  123 2    
   242  122  242 1    
   243  122  243 1    
   244  124  125 1    
   245  124  244 1    
   246  124  245 1    
   247  125  126 1    
   248  126  246 1    
   249  126  247 1    
@<TRIPOS>SUBSTRUCTURE
     1 UNK         1 GROUP             0       ****    0 ROOT    
