@<TRIPOS>MOLECULE
3R540
247   249    1
SMALL
USER_CHARGES


@<TRIPOS>ATOM
      1 CA         -2.3436  -13.6929  -47.1740 C.3       0 UNK        -0.1800 
      2 C          -1.4102  -12.8541  -48.0337 C.2       0 UNK         0.5000 
      3 O          -1.8563  -11.8977  -48.6668 O.2       0 UNK        -0.5000 
      4 N          -0.1222  -13.2132  -48.0638 N.am      1 UNK        -0.5000 
      5 CA          0.9185  -12.5480  -48.8562 C.3       1 UNK         0.1400 
      6 C6          2.2116  -13.3960  -48.9417 C.3       23 UNK        -0.0398 
      7 S7          1.9048  -15.0548  -49.6372 S.3       23 UNK        -0.2404 
      8 C8          2.0917  -16.1049  -48.1618 C.3       23 UNK        -0.0205 
      9 C9          1.1768  -17.3147  -48.2370 C.ar      23 UNK        -0.0193 
     10 C10        -0.0234  -17.3350  -47.5200 C.ar      23 UNK        -0.1150 
     11 C11        -0.8735  -18.4415  -47.5909 C.ar      23 UNK        -0.0193 
     12 C12        -0.5108  -19.5350  -48.3803 C.ar      23 UNK        -0.1150 
     13 C13         0.6914  -19.5316  -49.0917 C.ar      23 UNK        -0.0193 
     14 C14         1.5299  -18.4164  -49.0210 C.ar      23 UNK        -0.1150 
     15 C15         1.0848  -20.7424  -49.9228 C.3       23 UNK        -0.0205 
     16 S16         2.5130  -21.6428  -49.2323 S.3       23 UNK        -0.2404 
     17 C17         2.0345  -21.9209  -47.4940 C.3       23 UNK        -0.0398 
     18 CA          1.3044  -23.2638  -47.2486 C.3       11 UNK         0.1400 
     19 N           1.5467  -23.7458  -45.8895 N.am      11 UNK        -0.5000 
     20 C           1.3917  -25.0094  -45.4765 C.2       10 UNK         0.5000 
     21 O           1.0874  -25.9425  -46.2192 O.2       10 UNK        -0.5000 
     22 CA          1.5877  -25.2610  -43.9684 C.3       10 UNK         0.1400 
     23 CB          3.0571  -25.5867  -43.6620 C.3       10 UNK        -0.1800 
     24 N           1.1626  -24.1257  -43.1431 N.am      10 UNK        -0.5000 
     25 C          -0.1131  -23.7408  -43.0028 C.2       9 UNK         0.5000 
     26 O          -1.0585  -24.3203  -43.5352 O.2       9 UNK        -0.5000 
     27 CA         -0.3789  -22.4764  -42.1654 C.3       9 UNK         0.1400 
     28 CB         -0.4816  -22.8302  -40.6747 C.3       9 UNK        -0.1800 
     29 N           0.6040  -21.4030  -42.3382 N.am      9 UNK        -0.5000 
     30 C           0.9428  -20.8158  -43.4931 C.2       8 UNK         0.5000 
     31 O           0.5473  -21.2065  -44.5914 O.2       8 UNK        -0.5000 
     32 CA          1.8562  -19.5737  -43.3923 C.3       8 UNK         0.1400 
     33 CB          2.3511  -19.0983  -44.7710 C.3       8 UNK        -0.1800 
     34 N           1.1792  -18.4551  -42.7336 N.am      8 UNK        -0.5000 
     35 C           0.8792  -18.3675  -41.4303 C.2       7 UNK         0.5000 
     36 O           1.2221  -19.2134  -40.6020 O.2       7 UNK        -0.5000 
     37 CA          0.0646  -17.1441  -40.9577 C.3       7 UNK         0.1400 
     38 CB          0.9205  -16.2476  -40.0486 C.3       7 UNK        -0.1800 
     39 N          -0.4924  -16.3145  -42.0303 N.am      7 UNK        -0.5000 
     40 C          -1.4565  -16.6652  -42.8936 C.2       6 UNK         0.5000 
     41 O          -1.9767  -17.7803  -42.9100 O.2       6 UNK        -0.5000 
     42 CA         -1.9219  -15.5944  -43.9046 C.3       6 UNK         0.1400 
     43 CB         -3.4243  -15.3089  -43.7532 C.3       6 UNK        -0.1800 
     44 N          -1.1921  -14.3280  -43.7897 N.am      6 UNK        -0.5000 
     45 C           0.0147  -14.0759  -44.3082 C.2       5 UNK         0.5000 
     46 O           0.6356  -14.8842  -44.9985 O.2       5 UNK        -0.5000 
     47 CA          0.6035  -12.6822  -44.0075 C.3       5 UNK         0.1400 
     48 CB          2.0946  -12.5843  -44.3754 C.3       5 UNK        -0.1800 
     49 N          -0.1353  -11.6267  -44.7016 N.am      5 UNK        -0.5000 
     50 C          -1.3386  -11.1583  -44.3437 C.2       4 UNK         0.5000 
     51 O          -1.9458  -11.5598  -43.3479 O.2       4 UNK        -0.5000 
     52 CA         -1.9694  -10.0842  -45.2575 C.3       4 UNK         0.1400 
     53 CB         -3.2371   -9.4485  -44.6500 C.3       4 UNK        -0.1800 
     54 N          -1.0302   -9.0426  -45.6846 N.am      4 UNK        -0.5000 
     55 C          -0.3216   -8.2068  -44.9127 C.2       3 UNK         0.5000 
     56 O          -0.3430   -8.2309  -43.6807 O.2       3 UNK        -0.5000 
     57 CA          0.5530   -7.1660  -45.6511 C.3       3 UNK         0.1400 
     58 CB          1.4797   -6.3867  -44.6999 C.3       3 UNK        -0.1800 
     59 N           1.3710   -7.7674  -46.7062 N.am      3 UNK        -0.5000 
     60 C           0.9543   -8.1054  -47.9331 C.2       2 UNK         0.5000 
     61 O          -0.1960   -7.9171  -48.3326 O.2       2 UNK        -0.5000 
     62 CA          1.9658   -8.8195  -48.8573 C.3       2 UNK         0.1400 
     63 CB          3.4172   -8.8153  -48.3249 C.3       2 UNK        -0.1800 
     64 N           1.5528  -10.1937  -49.1693 N.am      2 UNK        -0.5000 
     65 C           1.2431  -11.1539  -48.2856 C.2       1 UNK         0.5000 
     66 O           1.2433  -10.9888  -47.0645 O.2       1 UNK        -0.5000 
     67 C          -0.2117  -23.1570  -47.5111 C.2       11 UNK         0.5000 
     68 O          -0.6812  -23.5756  -48.5678 O.2       11 UNK        -0.5000 
     69 N          -0.9558  -22.6417  -46.5206 N.am      12 UNK        -0.5000 
     70 CA         -2.4144  -22.5261  -46.5233 C.3       12 UNK         0.1400 
     71 CB         -2.8737  -21.8252  -45.2339 C.3       12 UNK        -0.1800 
     72 C          -3.1132  -23.8883  -46.6749 C.2       12 UNK         0.5000 
     73 O          -4.0145  -24.0215  -47.5038 O.2       12 UNK        -0.5000 
     74 N          -2.6447  -24.8794  -45.9019 N.am      13 UNK        -0.5000 
     75 CA         -3.1341  -26.2590  -45.8872 C.3       13 UNK         0.1400 
     76 CB         -2.4774  -27.0102  -44.7189 C.3       13 UNK        -0.1800 
     77 C          -2.9136  -27.0261  -47.2047 C.2       13 UNK         0.5000 
     78 O          -3.6543  -27.9723  -47.4752 O.2       13 UNK        -0.5000 
     79 N          -1.9230  -26.6102  -48.0075 N.am      14 UNK        -0.5000 
     80 CA         -1.6719  -27.1510  -49.3458 C.3       14 UNK         0.1400 
     81 CB         -0.2554  -26.7639  -49.7971 C.3       14 UNK        -0.1800 
     82 C          -2.7224  -26.6934  -50.3783 C.2       14 UNK         0.5000 
     83 O          -2.8817  -27.3547  -51.4056 O.2       14 UNK        -0.5000 
     84 N          -3.4279  -25.5898  -50.0819 N.am      15 UNK        -0.5000 
     85 CA         -4.5004  -24.9826  -50.8700 C.3       15 UNK         0.1400 
     86 CB         -5.7803  -25.8416  -50.7738 C.3       15 UNK        -0.1800 
     87 C          -4.0453  -24.6761  -52.3100 C.2       15 UNK         0.5000 
     88 O          -2.9950  -24.0574  -52.4851 O.2       15 UNK        -0.5000 
     89 N          -4.8077  -25.1291  -53.3141 N.am      16 UNK        -0.5000 
     90 CA         -4.5802  -24.8999  -54.7445 C.3       16 UNK         0.1400 
     91 CB         -5.7596  -25.4864  -55.5346 C.3       16 UNK        -0.1800 
     92 C          -3.2354  -25.4061  -55.3034 C.2       16 UNK         0.5000 
     93 O          -2.8456  -24.9785  -56.3904 O.2       16 UNK        -0.5000 
     94 N          -2.5324  -26.2693  -54.5578 N.am      17 UNK        -0.5000 
     95 CA         -1.1689  -26.6952  -54.8706 C.3       17 UNK         0.1400 
     96 CB         -0.8411  -27.9653  -54.0708 C.3       17 UNK        -0.1800 
     97 C          -0.1107  -25.6018  -54.6071 C.2       17 UNK         0.5000 
     98 O           1.0039  -25.7318  -55.1157 O.2       17 UNK        -0.5000 
     99 N          -0.4521  -24.5654  -53.8249 N.am      18 UNK        -0.5000 
    100 CA         0.4624  -23.4913  -53.4359 C.3       18 UNK         0.1400 
    101 CB         0.9192  -23.7199  -51.9883 C.3       18 UNK        -0.1800 
    102 C         -0.1525  -22.0913  -53.6082 C.2       18 UNK         0.5000 
    103 O          0.5236  -21.2059  -54.1335 O.2       18 UNK        -0.5000 
    104 N         -1.4063  -21.9016  -53.1789 N.am      19 UNK        -0.5000 
    105 CA        -2.1310  -20.6342  -53.2222 C.3       19 UNK         0.1400 
    106 CB        -1.5867  -19.6566  -52.1599 C.3       19 UNK        -0.1800 
    107 C         -3.6205  -20.9216  -52.9976 C.2       19 UNK         0.5000 
    108 O         -4.0516  -21.0384  -51.8487 O.2       19 UNK        -0.5000 
    109 N         -4.3896  -21.0413  -54.0881 N.am      20 UNK        -0.5000 
    110 CA        -5.8232  -21.3702  -54.0759 C.3       20 UNK         0.1400 
    111 CB        -6.3231  -21.4893  -55.5251 C.3       20 UNK        -0.1800 
    112 C         -6.7046  -20.3734  -53.2966 C.2       20 UNK         0.5000 
    113 O         -7.7471  -20.7638  -52.7711 O.2       20 UNK        -0.5000 
    114 N         -6.2624  -19.1122  -53.2291 N.am      21 UNK        -0.5000 
    115 CA        -6.9264  -18.0267  -52.5100 C.3       21 UNK         0.1400 
    116 CB        -6.5249  -16.6975  -53.1711 C.3       21 UNK        -0.1800 
    117 C         -6.6083  -17.9943  -51.0000 C.2       21 UNK         0.5000 
    118 O         -7.2157  -17.1891  -50.2923 O.2       21 UNK        -0.5000 
    119 N         -5.6618  -18.8209  -50.5320 N.am      22 UNK        -0.5000 
    120 CA        -5.1471  -18.7995  -49.1532 C.3       22 UNK         0.1400 
    121 C         -5.0941  -20.2028  -48.4869 C.2       22 UNK         0.5000 
    122 N         -4.8175  -21.2805  -49.2098 N.am      22 UNK        -0.7600 
    123 O         -5.3326  -20.3230  -47.2896 O.2       22 UNK        -0.5000 
    124 C124       -3.7773  -18.0742  -49.1000 C.3       23 UNK        -0.0398 
    125 S125       -3.4102  -17.3082  -47.4834 S.3       23 UNK        -0.2404 
    126 C126       -2.1778  -18.4635  -46.8087 C.3       23 UNK        -0.0205 
    127 H127       -3.2187  -13.9931  -47.7504 H         1 UNK         0.0600 
    128 H128       -2.6826  -13.1232  -46.3098 H         1 UNK         0.0600 
    129 H129       -1.8527  -14.5975  -46.8186 H         1 UNK         0.0600 
    130 H130        0.1915  -13.9909  -47.5015 H         1 UNK         0.3000 
    131 H131        0.5286  -12.4193  -49.8684 H         1 UNK         0.0600 
    132 H132        2.9430  -12.9038  -49.5852 H         1 UNK         0.0800 
    133 H133        2.6872  -13.4839  -47.9630 H         1 UNK         0.0800 
    134 H134        3.1305  -16.4267  -48.0759 H         1 UNK         0.0800 
    135 H135        1.8732  -15.5360  -47.2578 H         1 UNK         0.0800 
    136 H136       -0.3007  -16.4887  -46.9093 H         1 UNK         0.1150 
    137 H137       -1.1633  -20.3940  -48.4386 H         1 UNK         0.1150 
    138 H138        2.4598  -18.4086  -49.5721 H         1 UNK         0.1150 
    139 H139        0.2444  -21.4302  -50.0236 H         1 UNK         0.0800 
    140 H140        1.3301  -20.4171  -50.9347 H         1 UNK         0.0800 
    141 H141        2.9740  -21.9165  -46.9396 H         1 UNK         0.0800 
    142 H142        1.4761  -21.0741  -47.0954 H         1 UNK         0.0800 
    143 H143        1.7090  -24.0088  -47.9377 H         1 UNK         0.0600 
    144 H144        1.7185  -23.0343  -45.1926 H         1 UNK         0.3000 
    145 H145        0.9816  -26.1278  -43.6961 H         1 UNK         0.0600 
    146 H146        3.1940  -25.8389  -42.6103 H         1 UNK         0.0600 
    147 H147        3.3970  -26.4423  -44.2472 H         1 UNK         0.0600 
    148 H148        3.7137  -24.7476  -43.8953 H         1 UNK         0.0600 
    149 H149        1.8836  -23.5975  -42.6738 H         1 UNK         0.3000 
    150 H150       -1.3434  -22.0755  -42.4812 H         1 UNK         0.0600 
    151 H151       -1.2265  -23.6095  -40.5074 H         1 UNK         0.0600 
    152 H152       -0.7808  -21.9640  -40.0839 H         1 UNK         0.0600 
    153 H153        0.4687  -23.1927  -40.2809 H         1 UNK         0.0600 
    154 H154        0.9397  -20.9605  -41.4884 H         1 UNK         0.3000 
    155 H155        2.7294  -19.8525  -42.7991 H         1 UNK         0.0600 
    156 H156        3.0153  -18.2389  -44.6788 H         1 UNK         0.0600 
    157 H157        1.5232  -18.8112  -45.4208 H         1 UNK         0.0600 
    158 H158        2.9097  -19.8849  -45.2787 H         1 UNK         0.0600 
    159 H159        0.8419  -17.7219  -43.3396 H         1 UNK         0.3000 
    160 H160       -0.7704  -17.5290  -40.3689 H         1 UNK         0.0600 
    161 H161        1.7653  -15.8182  -40.5887 H         1 UNK         0.0600 
    162 H162        1.3226  -16.8113  -39.2056 H         1 UNK         0.0600 
    163 H163        0.3329  -15.4275  -39.6352 H         1 UNK         0.0600 
    164 H164       -0.1302  -15.3758  -42.0986 H         1 UNK         0.3000 
    165 H165       -1.7563  -16.0048  -44.9013 H         1 UNK         0.0600 
    166 H166       -3.6596  -14.9062  -42.7673 H         1 UNK         0.0600 
    167 H167       -3.7669  -14.5921  -44.4995 H         1 UNK         0.0600 
    168 H168       -4.0121  -16.2179  -43.8881 H         1 UNK         0.0600 
    169 H169       -1.6561  -13.5748  -43.2913 H         1 UNK         0.3000 
    170 H170        0.5214  -12.5138  -42.9317 H         1 UNK         0.0600 
    171 H171        2.6833  -13.3047  -43.8062 H         1 UNK         0.0600 
    172 H172        2.2669  -12.7870  -45.4326 H         1 UNK         0.0600 
    173 H173        2.4914  -11.5928  -44.1564 H         1 UNK         0.0600 
    174 H174        0.3039  -11.2676  -45.5486 H         1 UNK         0.3000 
    175 H175       -2.2737  -10.6028  -46.1665 H         1 UNK         0.0600 
    176 H176       -3.6806   -8.7237  -45.3327 H         1 UNK         0.0600 
    177 H177       -3.9956  -10.2053  -44.4461 H         1 UNK         0.0600 
    178 H178       -3.0236   -8.9377  -43.7105 H         1 UNK         0.0600 
    179 H179       -0.9160   -8.9386  -46.6871 H         1 UNK         0.3000 
    180 H180       -0.1305   -6.4463  -46.1063 H         1 UNK         0.0600 
    181 H181        2.0552   -5.6340  -45.2390 H         1 UNK         0.0600 
    182 H182        0.9064   -5.8642  -43.9330 H         1 UNK         0.0600 
    183 H183        2.1833   -7.0480  -44.1928 H         1 UNK         0.0600 
    184 H184        2.3131   -8.0190  -46.4445 H         1 UNK         0.3000 
    185 H185        1.9578   -8.2679  -49.7985 H         1 UNK         0.0600 
    186 H186        4.0976   -9.2548  -49.0544 H         1 UNK         0.0600 
    187 H187        3.7667   -7.7993  -48.1369 H         1 UNK         0.0600 
    188 H188        3.5203   -9.3834  -47.3995 H         1 UNK         0.0600 
    189 H189        1.4909  -10.4089  -50.1547 H         1 UNK         0.3000 
    190 H190       -0.4744  -22.2671  -45.7066 H         1 UNK         0.3000 
    191 H191       -2.6914  -21.9046  -47.3756 H         1 UNK         0.0600 
    192 H192       -3.9240  -21.5412  -45.3024 H         1 UNK         0.0600 
    193 H193       -2.3005  -20.9195  -45.0375 H         1 UNK         0.0600 
    194 H194       -2.7734  -22.4705  -44.3624 H         1 UNK         0.0600 
    195 H195       -1.9296  -24.6553  -45.2147 H         1 UNK         0.3000 
    196 H196       -4.2107  -26.2244  -45.7094 H         1 UNK         0.0600 
    197 H197       -2.8227  -28.0438  -44.6711 H         1 UNK         0.0600 
    198 H198       -2.7205  -26.5439  -43.7641 H         1 UNK         0.0600 
    199 H199       -1.3910  -27.0292  -44.8160 H         1 UNK         0.0600 
    200 H200       -1.3576  -25.8227  -47.7201 H         1 UNK         0.3000 
    201 H201       -1.7194  -28.2405  -49.2896 H         1 UNK         0.0600 
    202 H202        0.4920  -27.0701  -49.0648 H         1 UNK         0.0600 
    203 H203       -0.1589  -25.6897  -49.9455 H         1 UNK         0.0600 
    204 H204       -0.0022  -27.2451  -50.7420 H         1 UNK         0.0600 
    205 H205       -3.2148  -25.1124  -49.2145 H         1 UNK         0.3000 
    206 H206       -4.7115  -24.0170  -50.4095 H         1 UNK         0.0600 
    207 H207       -6.0613  -25.9974  -49.7319 H         1 UNK         0.0600 
    208 H208       -6.6254  -25.3523  -51.2595 H         1 UNK         0.0600 
    209 H209       -5.6506  -26.8248  -51.2279 H         1 UNK         0.0600 
    210 H210       -5.6287  -25.6670  -53.0774 H         1 UNK         0.3000 
    211 H211       -4.5708  -23.8219  -54.8963 H         1 UNK         0.0600 
    212 H212       -5.8411  -26.5645  -55.3912 H         1 UNK         0.0600 
    213 H213       -5.6460  -25.3047  -56.6042 H         1 UNK         0.0600 
    214 H214       -6.7031  -25.0326  -55.2303 H         1 UNK         0.0600 
    215 H215       -2.9071  -26.5653  -53.6651 H         1 UNK         0.3000 
    216 H216       -1.1224  -26.9469  -55.9322 H         1 UNK         0.0600 
    217 H217        0.1318  -28.3660  -54.3577 H         1 UNK         0.0600 
    218 H218       -1.5796  -28.7477  -54.2468 H         1 UNK         0.0600 
    219 H219       -0.8079  -27.7681  -52.9998 H         1 UNK         0.0600 
    220 H220       -1.3939  -24.5181  -53.4478 H         1 UNK         0.3000 
    221 H221        1.3521  -23.5127  -54.0686 H         1 UNK         0.0600 
    222 H222        0.0889  -23.6401  -51.2856 H         1 UNK         0.0600 
    223 H223        1.3701  -24.7046  -51.8651 H         1 UNK         0.0600 
    224 H224        1.6708  -22.9845  -51.7051 H         1 UNK         0.0600 
    225 H225       -1.9330  -22.6820  -52.7859 H         1 UNK         0.3000 
    226 H226       -2.0084  -20.1835  -54.2091 H         1 UNK         0.0600 
    227 H227       -0.5548  -19.3732  -52.3656 H         1 UNK         0.0600 
    228 H228       -2.1733  -18.7374  -52.1359 H         1 UNK         0.0600 
    229 H229       -1.6204  -20.0922  -51.1611 H         1 UNK         0.0600 
    230 H230       -3.9643  -20.9317  -54.9976 H         1 UNK         0.3000 
    231 H231       -5.9357  -22.3407  -53.5894 H         1 UNK         0.0600 
    232 H232       -7.3696  -21.7963  -55.5522 H         1 UNK         0.0600 
    233 H233       -5.7569  -22.2282  -56.0909 H         1 UNK         0.0600 
    234 H234       -6.2477  -20.5381  -56.0535 H         1 UNK         0.0600 
    235 H235       -5.3968  -18.8834  -53.6948 H         1 UNK         0.3000 
    236 H236       -8.0077  -18.1419  -52.6115 H         1 UNK         0.0600 
    237 H237       -5.4521  -16.5170  -53.0925 H         1 UNK         0.0600 
    238 H238       -6.7916  -16.6860  -54.2281 H         1 UNK         0.0600 
    239 H239       -7.0344  -15.8548  -52.7018 H         1 UNK         0.0600 
    240 H240       -5.2376  -19.4962  -51.1562 H         1 UNK         0.3000 
    241 H241       -5.8426  -18.2261  -48.5372 H         1 UNK         0.0600 
    242 H242       -4.8021  -22.1777  -48.7483 H         1 UNK         0.3800 
    243 H243       -4.5678  -21.2165  -50.1960 H         1 UNK         0.3800 
    244 H244       -2.9730  -18.7388  -49.4151 H         1 UNK         0.0800 
    245 H245       -3.7672  -17.2552  -49.8205 H         1 UNK         0.0800 
    246 H246       -1.9788  -18.2187  -45.7654 H         1 UNK         0.0800 
    247 H247       -2.6089  -19.4633  -46.8092 H         1 UNK         0.0800 
@<TRIPOS>BOND
     1    1    2 1    
     2    1  127 1    
     3    1  128 1    
     4    1  129 1    
     5    2    3 2    
     6    2    4 am   BACKBONE|DICT|INTERRES
     7    4    5 1    
     8    4  130 1    
     9    5    6 1    
    10    5   65 1    
    11    5  131 1    
    12    6    7 1    
    13    6  132 1    
    14    6  133 1    
    15    7    8 1    
    16    8    9 1    
    17    8  134 1    
    18    8  135 1    
    19    9   10 ar   
    20    9   14 ar   
    21   10   11 ar   
    22   10  136 1    
    23   11   12 ar   
    24   11  126 1    
    25   12   13 ar   
    26   12  137 1    
    27   13   14 ar   
    28   13   15 1    
    29   14  138 1    
    30   15   16 1    
    31   15  139 1    
    32   15  140 1    
    33   16   17 1    
    34   17   18 1    
    35   17  141 1    
    36   17  142 1    
    37   18   19 1    
    38   18   67 1    
    39   18  143 1    
    40   19   20 am   BACKBONE|DICT|INTERRES
    41   19  144 1    
    42   20   21 2    
    43   20   22 1    
    44   22   23 1    
    45   22   24 1    
    46   22  145 1    
    47   23  146 1    
    48   23  147 1    
    49   23  148 1    
    50   24   25 am   BACKBONE|DICT|INTERRES
    51   24  149 1    
    52   25   26 2    
    53   25   27 1    
    54   27   28 1    
    55   27   29 1    
    56   27  150 1    
    57   28  151 1    
    58   28  152 1    
    59   28  153 1    
    60   29   30 am   BACKBONE|DICT|INTERRES
    61   29  154 1    
    62   30   31 2    
    63   30   32 1    
    64   32   33 1    
    65   32   34 1    
    66   32  155 1    
    67   33  156 1    
    68   33  157 1    
    69   33  158 1    
    70   34   35 am   BACKBONE|DICT|INTERRES
    71   34  159 1    
    72   35   36 2    
    73   35   37 1    
    74   37   38 1    
    75   37   39 1    
    76   37  160 1    
    77   38  161 1    
    78   38  162 1    
    79   38  163 1    
    80   39   40 am   BACKBONE|DICT|INTERRES
    81   39  164 1    
    82   40   41 2    
    83   40   42 1    
    84   42   43 1    
    85   42   44 1    
    86   42  165 1    
    87   43  166 1    
    88   43  167 1    
    89   43  168 1    
    90   44   45 am   BACKBONE|DICT|INTERRES
    91   44  169 1    
    92   45   46 2    
    93   45   47 1    
    94   47   48 1    
    95   47   49 1    
    96   47  170 1    
    97   48  171 1    
    98   48  172 1    
    99   48  173 1    
   100   49   50 am   BACKBONE|DICT|INTERRES
   101   49  174 1    
   102   50   51 2    
   103   50   52 1    
   104   52   53 1    
   105   52   54 1    
   106   52  175 1    
   107   53  176 1    
   108   53  177 1    
   109   53  178 1    
   110   54   55 am   BACKBONE|DICT|INTERRES
   111   54  179 1    
   112   55   56 2    
   113   55   57 1    
   114   57   58 1    
   115   57   59 1    
   116   57  180 1    
   117   58  181 1    
   118   58  182 1    
   119   58  183 1    
   120   59   60 am   BACKBONE|DICT|INTERRES
   121   59  184 1    
   122   60   61 2    
   123   60   62 1    
   124   62   63 1    
   125   62   64 1    
   126   62  185 1    
   127   63  186 1    
   128   63  187 1    
   129   63  188 1    
   130   64   65 am   BACKBONE|DICT|INTERRES
   131   64  189 1    
   132   65   66 2    
   133   67   68 2    
   134   67   69 am   BACKBONE|DICT|INTERRES
   135   69   70 1    
   136   69  190 1    
   137   70   71 1    
   138   70   72 1    
   139   70  191 1    
   140   71  192 1    
   141   71  193 1    
   142   71  194 1    
   143   72   73 2    
   144   72   74 am   BACKBONE|DICT|INTERRES
   145   74   75 1    
   146   74  195 1    
   147   75   76 1    
   148   75   77 1    
   149   75  196 1    
   150   76  197 1    
   151   76  198 1    
   152   76  199 1    
   153   77   78 2    
   154   77   79 am   BACKBONE|DICT|INTERRES
   155   79   80 1    
   156   79  200 1    
   157   80   81 1    
   158   80   82 1    
   159   80  201 1    
   160   81  202 1    
   161   81  203 1    
   162   81  204 1    
   163   82   83 2    
   164   82   84 am   BACKBONE|DICT|INTERRES
   165   84   85 1    
   166   84  205 1    
   167   85   86 1    
   168   85   87 1    
   169   85  206 1    
   170   86  207 1    
   171   86  208 1    
   172   86  209 1    
   173   87   88 2    
   174   87   89 am   BACKBONE|DICT|INTERRES
   175   89   90 1    
   176   89  210 1    
   177   90   91 1    
   178   90   92 1    
   179   90  211 1    
   180   91  212 1    
   181   91  213 1    
   182   91  214 1    
   183   92   93 2    
   184   92   94 am   BACKBONE|DICT|INTERRES
   185   94   95 1    
   186   94  215 1    
   187   95   96 1    
   188   95   97 1    
   189   95  216 1    
   190   96  217 1    
   191   96  218 1    
   192   96  219 1    
   193   97   98 2    
   194   97   99 am   BACKBONE|DICT|INTERRES
   195   99  100 1    
   196   99  220 1    
   197  100  101 1    
   198  100  102 1    
   199  100  221 1    
   200  101  222 1    
   201  101  223 1    
   202  101  224 1    
   203  102  103 2    
   204  102  104 am   BACKBONE|DICT|INTERRES
   205  104  105 1    
   206  104  225 1    
   207  105  106 1    
   208  105  107 1    
   209  105  226 1    
   210  106  227 1    
   211  106  228 1    
   212  106  229 1    
   213  107  108 2    
   214  107  109 am   BACKBONE|DICT|INTERRES
   215  109  110 1    
   216  109  230 1    
   217  110  111 1    
   218  110  112 1    
   219  110  231 1    
   220  111  232 1    
   221  111  233 1    
   222  111  234 1    
   223  112  113 2    
   224  112  114 am   BACKBONE|DICT|INTERRES
   225  114  115 1    
   226  114  235 1    
   227  115  116 1    
   228  115  117 1    
   229  115  236 1    
   230  116  237 1    
   231  116  238 1    
   232  116  239 1    
   233  117  118 2    
   234  117  119 am   BACKBONE|DICT|INTERRES
   235  119  120 1    
   236  119  240 1    
   237  120  121 1    
   238  120  124 1    
   239  120  241 1    
   240  121  122 am   BACKBONE|DICT|INTERRES
   241  121  123 2    
   242  122  242 1    
   243  122  243 1    
   244  124  125 1    
   245  124  244 1    
   246  124  245 1    
   247  125  126 1    
   248  126  246 1    
   249  126  247 1    
@<TRIPOS>SUBSTRUCTURE
     1 UNK         1 GROUP             0       ****    0 ROOT    
