@<TRIPOS>MOLECULE
3R540
247   249    1
SMALL
USER_CHARGES


@<TRIPOS>ATOM
      1 CA          5.2118  -10.5073  -48.2971 C.3       0 UNK        -0.1800 
      2 C           4.2514  -11.6854  -48.2159 C.2       0 UNK         0.5000 
      3 O           3.2671  -11.6215  -47.4821 O.2       0 UNK        -0.5000 
      4 N           4.5381  -12.7593  -48.9615 N.am      1 UNK        -0.5000 
      5 CA          3.7121  -13.9646  -49.0704 C.3       1 UNK         0.1400 
      6 C6          4.5077  -15.0967  -49.7655 C.3       23 UNK        -0.0398 
      7 S7          3.7712  -16.7396  -49.5041 S.3       23 UNK        -0.2404 
      8 C8          3.6218  -17.3415  -51.2128 C.3       23 UNK        -0.0205 
      9 C9          2.8767  -18.6645  -51.2468 C.ar      23 UNK        -0.0193 
     10 C10         1.5517  -18.7151  -51.6876 C.ar      23 UNK        -0.1150 
     11 C11         0.8444  -19.9203  -51.6628 C.ar      23 UNK        -0.0193 
     12 C12         1.4762  -21.0820  -51.2159 C.ar      23 UNK        -0.1150 
     13 C13         2.7931  -21.0386  -50.7522 C.ar      23 UNK        -0.0193 
     14 C14         3.4972  -19.8320  -50.7919 C.ar      23 UNK        -0.1150 
     15 C15         3.4258  -22.2809  -50.1440 C.3       23 UNK        -0.0205 
     16 S16         3.6128  -22.1322  -48.3346 S.3       23 UNK        -0.2404 
     17 C17         1.8983  -21.8378  -47.7700 C.3       23 UNK        -0.0398 
     18 CA          1.2759  -23.0680  -47.0726 C.3       11 UNK         0.1400 
     19 N           2.0240  -23.4689  -45.8790 N.am      11 UNK        -0.5000 
     20 C           1.8939  -24.6443  -45.2514 C.2       10 UNK         0.5000 
     21 O           1.1361  -25.5386  -45.6233 O.2       10 UNK        -0.5000 
     22 CA          2.7237  -24.8337  -43.9681 C.3       10 UNK         0.1400 
     23 CB          4.1508  -25.2883  -44.3088 C.3       10 UNK        -0.1800 
     24 N           2.7833  -23.6184  -43.1538 N.am      10 UNK        -0.5000 
     25 C           1.7257  -23.0681  -42.5413 C.2       9 UNK         0.5000 
     26 O           0.5957  -23.5527  -42.5638 O.2       9 UNK        -0.5000 
     27 CA          1.9577  -21.7238  -41.8274 C.3       9 UNK         0.1400 
     28 CB          2.4402  -21.9544  -40.3877 C.3       9 UNK        -0.1800 
     29 N           2.8994  -20.8389  -42.5205 N.am      9 UNK        -0.5000 
     30 C           2.7419  -20.3775  -43.7684 C.2       8 UNK         0.5000 
     31 O           1.8166  -20.7140  -44.5110 O.2       8 UNK        -0.5000 
     32 CA          3.8331  -19.4194  -44.2834 C.3       8 UNK         0.1400 
     33 CB          4.9843  -20.2210  -44.9100 C.3       8 UNK        -0.1800 
     34 N           3.3363  -18.4601  -45.2724 N.am      8 UNK        -0.5000 
     35 C           2.3761  -17.5524  -45.0520 C.2       7 UNK         0.5000 
     36 O           1.7977  -17.4148  -43.9709 O.2       7 UNK        -0.5000 
     37 CA          1.9980  -16.6673  -46.2573 C.3       7 UNK         0.1400 
     38 CB          1.1372  -17.4631  -47.2550 C.3       7 UNK        -0.1800 
     39 N           1.2609  -15.4677  -45.8621 N.am      7 UNK        -0.5000 
     40 C           1.7397  -14.4550  -45.1243 C.2       6 UNK         0.5000 
     41 O           2.9315  -14.3136  -44.8486 O.2       6 UNK        -0.5000 
     42 CA          0.7001  -13.4607  -44.5646 C.3       6 UNK         0.1400 
     43 CB          0.4817  -12.2732  -45.5102 C.3       6 UNK        -0.1800 
     44 N          -0.5834  -14.1178  -44.3070 N.am      6 UNK        -0.5000 
     45 C          -0.8196  -14.8930  -43.2381 C.2       5 UNK         0.5000 
     46 O          -0.0319  -15.0036  -42.2969 O.2       5 UNK        -0.5000 
     47 CA         -2.1389  -15.6956  -43.2298 C.3       5 UNK         0.1400 
     48 CB         -2.6096  -16.0675  -41.8076 C.3       5 UNK        -0.1800 
     49 N          -3.2254  -15.0724  -43.9939 N.am      5 UNK        -0.5000 
     50 C          -3.8290  -13.8982  -43.7509 C.2       4 UNK         0.5000 
     51 O          -3.5262  -13.1439  -42.8250 O.2       4 UNK        -0.5000 
     52 CA         -4.9711  -13.5253  -44.7209 C.3       4 UNK         0.1400 
     53 CB         -5.3704  -12.0355  -44.6548 C.3       4 UNK        -0.1800 
     54 N          -4.6954  -13.9485  -46.1011 N.am      4 UNK        -0.5000 
     55 C          -3.7190  -13.4965  -46.9020 C.2       3 UNK         0.5000 
     56 O          -2.9390  -12.5929  -46.5931 O.2       3 UNK        -0.5000 
     57 CA         -3.6039  -14.2004  -48.2702 C.3       3 UNK         0.1400 
     58 CB         -4.8512  -13.9625  -49.1367 C.3       3 UNK        -0.1800 
     59 N          -2.4243  -13.7946  -49.0358 N.am      3 UNK        -0.5000 
     60 C          -1.1558  -14.0637  -48.7047 C.2       2 UNK         0.5000 
     61 O          -0.8369  -14.7757  -47.7477 O.2       2 UNK        -0.5000 
     62 CA         -0.0745  -13.4060  -49.5807 C.3       2 UNK         0.1400 
     63 CB         -0.2073  -11.8665  -49.5724 C.3       2 UNK        -0.1800 
     64 N           1.2549  -13.7938  -49.1129 N.am      2 UNK        -0.5000 
     65 C           2.3917  -13.6336  -49.8012 C.2       1 UNK         0.5000 
     66 O           2.4386  -13.2076  -50.9579 O.2       1 UNK        -0.5000 
     67 C          -0.2053  -22.8045  -46.7385 C.2       11 UNK         0.5000 
     68 O          -1.0788  -23.2014  -47.5078 O.2       11 UNK        -0.5000 
     69 N          -0.4565  -22.1673  -45.5860 N.am      12 UNK        -0.5000 
     70 CA         -1.7926  -21.8934  -45.0574 C.3       12 UNK         0.1400 
     71 CB         -1.6763  -20.9143  -43.8793 C.3       12 UNK        -0.1800 
     72 C          -2.5506  -23.1697  -44.6382 C.2       12 UNK         0.5000 
     73 O          -3.7725  -23.2203  -44.7769 O.2       12 UNK        -0.5000 
     74 N          -1.8204  -24.1737  -44.1331 N.am      13 UNK        -0.5000 
     75 CA         -2.3571  -25.4833  -43.7604 C.3       13 UNK         0.1400 
     76 CB         -1.3731  -26.1772  -42.8060 C.3       13 UNK        -0.1800 
     77 C          -2.6496  -26.3855  -44.9749 C.2       13 UNK         0.5000 
     78 O          -3.5422  -27.2313  -44.8958 O.2       13 UNK        -0.5000 
     79 N          -1.8865  -26.2118  -46.0618 N.am      14 UNK        -0.5000 
     80 CA         -2.0235  -26.9592  -47.3105 C.3       14 UNK         0.1400 
     81 CB         -0.7618  -26.7403  -48.1626 C.3       14 UNK        -0.1800 
     82 C          -3.2807  -26.5644  -48.1077 C.2       14 UNK         0.5000 
     83 O          -3.8387  -25.4823  -47.9128 O.2       14 UNK        -0.5000 
     84 N          -3.6639  -27.4351  -49.0524 N.am      15 UNK        -0.5000 
     85 CA         -4.7877  -27.2472  -49.9789 C.3       15 UNK         0.1400 
     86 CB         -4.9903  -28.5397  -50.7842 C.3       15 UNK        -0.1800 
     87 C          -4.6321  -26.0397  -50.9276 C.2       15 UNK         0.5000 
     88 O          -5.6303  -25.5633  -51.4690 O.2       15 UNK        -0.5000 
     89 N          -3.3954  -25.5413  -51.0800 N.am      16 UNK        -0.5000 
     90 CA         -3.0390  -24.3205  -51.8061 C.3       16 UNK         0.1400 
     91 CB         -1.5193  -24.1108  -51.7125 C.3       16 UNK        -0.1800 
     92 C          -3.7794  -23.0648  -51.3058 C.2       16 UNK         0.5000 
     93 O          -4.0664  -22.1791  -52.1094 O.2       16 UNK        -0.5000 
     94 N          -4.1296  -23.0370  -50.0104 N.am      17 UNK        -0.5000 
     95 CA         -4.8646  -21.9580  -49.3449 C.3       17 UNK         0.1400 
     96 CB         -4.8706  -22.2291  -47.8352 C.3       17 UNK        -0.1800 
     97 C          -6.2996  -21.7274  -49.8662 C.2       17 UNK         0.5000 
     98 O          -6.9185  -20.7280  -49.4988 O.2       17 UNK        -0.5000 
     99 N          -6.8095  -22.6313  -50.7154 N.am      18 UNK        -0.5000 
    100 CA        -8.0447  -22.4433  -51.4742 C.3       18 UNK         0.1400 
    101 CB        -8.4771  -23.7928  -52.0668 C.3       18 UNK        -0.1800 
    102 C         -7.9115  -21.3825  -52.5884 C.2       18 UNK         0.5000 
    103 O         -8.9252  -20.8080  -52.9888 O.2       18 UNK        -0.5000 
    104 N         -6.6852  -21.1397  -53.0760 N.am      19 UNK        -0.5000 
    105 CA        -6.3832  -20.1116  -54.0690 C.3       19 UNK         0.1400 
    106 CB        -5.0939  -20.4900  -54.8146 C.3       19 UNK        -0.1800 
    107 C         -6.2192  -18.7400  -53.3962 C.2       19 UNK         0.5000 
    108 O         -5.6910  -18.6552  -52.2849 O.2       19 UNK        -0.5000 
    109 N         -6.6058  -17.6762  -54.1116 N.am      20 UNK        -0.5000 
    110 CA        -6.5443  -16.2788  -53.6612 C.3       20 UNK         0.1400 
    111 CB        -7.2518  -15.3955  -54.7010 C.3       20 UNK        -0.1800 
    112 C         -5.1212  -15.7478  -53.3801 C.2       20 UNK         0.5000 
    113 O         -4.9803  -14.6973  -52.7545 O.2       20 UNK        -0.5000 
    114 N         -4.0965  -16.4792  -53.8367 N.am      21 UNK        -0.5000 
    115 CA        -2.6838  -16.2094  -53.5822 C.3       21 UNK         0.1400 
    116 CB        -1.8409  -17.0577  -54.5474 C.3       21 UNK        -0.1800 
    117 C         -2.2518  -16.4529  -52.1210 C.2       21 UNK         0.5000 
    118 O         -1.2351  -15.8941  -51.7106 O.2       21 UNK        -0.5000 
    119 N         -2.9989  -17.2694  -51.3644 N.am      22 UNK        -0.5000 
    120 CA        -2.6999  -17.5764  -49.9542 C.3       22 UNK         0.1400 
    121 C         -3.9217  -17.9790  -49.0820 C.2       22 UNK         0.5000 
    122 N         -5.1058  -18.2121  -49.6294 N.am      22 UNK        -0.7600 
    123 O         -3.8016  -18.0448  -47.8621 O.2       22 UNK        -0.5000 
    124 C124       -1.4936  -18.5349  -49.7719 C.3       23 UNK        -0.0398 
    125 S125       -1.6974  -20.1452  -50.6074 S.3       23 UNK        -0.2404 
    126 C126       -0.6197  -19.9647  -52.0631 C.3       23 UNK        -0.0205 
    127 H127        6.0408  -10.7048  -48.9771 H         1 UNK         0.0600 
    128 H128        5.6244  -10.2913  -47.3116 H         1 UNK         0.0600 
    129 H129        4.6866   -9.6196  -48.6499 H         1 UNK         0.0600 
    130 H130        5.3479  -12.7308  -49.5642 H         1 UNK         0.3000 
    131 H131        3.4798  -14.2851  -48.0522 H         1 UNK         0.0600 
    132 H132        4.6309  -14.8948  -50.8311 H         1 UNK         0.0800 
    133 H133        5.5173  -15.1440  -49.3548 H         1 UNK         0.0800 
    134 H134        3.1039  -16.5953  -51.8180 H         1 UNK         0.0800 
    135 H135        4.6151  -17.4660  -51.6464 H         1 UNK         0.0800 
    136 H136        1.0596  -17.8101  -52.0168 H         1 UNK         0.1150 
    137 H137        0.9189  -22.0075  -51.1743 H         1 UNK         0.1150 
    138 H138        4.5116  -19.7908  -50.4206 H         1 UNK         0.1150 
    139 H139        2.8345  -23.1697  -50.3701 H         1 UNK         0.0800 
    140 H140        4.4074  -22.4419  -50.5915 H         1 UNK         0.0800 
    141 H141        1.2732  -21.5330  -48.6075 H         1 UNK         0.0800 
    142 H142        1.9151  -20.9796  -47.0973 H         1 UNK         0.0800 
    143 H143        1.3029  -23.9009  -47.7789 H         1 UNK         0.0600 
    144 H144        2.6295  -22.7675  -45.4790 H         1 UNK         0.3000 
    145 H145        2.2466  -25.6171  -43.3754 H         1 UNK         0.0600 
    146 H146        4.7246  -25.4965  -43.4056 H         1 UNK         0.0600 
    147 H147        4.1367  -26.2037  -44.9020 H         1 UNK         0.0600 
    148 H148        4.6892  -24.5333  -44.8831 H         1 UNK         0.0600 
    149 H149        3.6764  -23.1537  -43.0853 H         1 UNK         0.3000 
    150 H150        0.9968  -21.2075  -41.7840 H         1 UNK         0.0600 
    151 H151        3.4194  -22.4341  -40.3623 H         1 UNK         0.0600 
    152 H152        1.7464  -22.5950  -39.8414 H         1 UNK         0.0600 
    153 H153        2.5114  -21.0146  -39.8398 H         1 UNK         0.0600 
    154 H154        3.6960  -20.5284  -41.9830 H         1 UNK         0.3000 
    155 H155        4.2210  -18.8497  -43.4366 H         1 UNK         0.0600 
    156 H156        4.6503  -20.7932  -45.7761 H         1 UNK         0.0600 
    157 H157        5.4088  -20.9268  -44.1949 H         1 UNK         0.0600 
    158 H158        5.7926  -19.5650  -45.2336 H         1 UNK         0.0600 
    159 H159        3.7349  -18.5305  -46.1968 H         1 UNK         0.3000 
    160 H160        2.9203  -16.3505  -46.7452 H         1 UNK         0.0600 
    161 H161        0.1956  -17.7824  -46.8065 H         1 UNK         0.0600 
    162 H162        1.6551  -18.3580  -47.6026 H         1 UNK         0.0600 
    163 H163        0.9031  -16.8688  -48.1384 H         1 UNK         0.0600 
    164 H164        0.2745  -15.4622  -46.0904 H         1 UNK         0.3000 
    165 H165        1.0889  -13.0664  -43.6233 H         1 UNK         0.0600 
    166 H166       -0.2740  -11.5907  -45.1209 H         1 UNK         0.0600 
    167 H167        1.4016  -11.7022  -45.6325 H         1 UNK         0.0600 
    168 H168        0.1599  -12.5974  -46.4975 H         1 UNK         0.0600 
    169 H169       -1.2875  -14.0427  -45.0283 H         1 UNK         0.3000 
    170 H170       -1.9115  -16.6294  -43.7464 H         1 UNK         0.0600 
    171 H171       -1.8628  -16.6740  -41.2939 H         1 UNK         0.0600 
    172 H172       -2.7885  -15.1832  -41.1955 H         1 UNK         0.0600 
    173 H173       -3.5312  -16.6488  -41.8362 H         1 UNK         0.0600 
    174 H174       -3.5506  -15.6028  -44.7897 H         1 UNK         0.3000 
    175 H175       -5.8367  -14.1042  -44.3956 H         1 UNK         0.0600 
    176 H176       -6.1720  -11.8103  -45.3581 H         1 UNK         0.0600 
    177 H177       -5.7303  -11.7733  -43.6592 H         1 UNK         0.0600 
    178 H178       -4.5313  -11.3766  -44.8792 H         1 UNK         0.0600 
    179 H179       -5.2909  -14.6878  -46.4480 H         1 UNK         0.3000 
    180 H180       -3.5241  -15.2669  -48.0628 H         1 UNK         0.0600 
    181 H181       -4.9760  -12.9071  -49.3816 H         1 UNK         0.0600 
    182 H182       -5.7605  -14.2938  -48.6343 H         1 UNK         0.0600 
    183 H183       -4.7864  -14.5197  -50.0712 H         1 UNK         0.0600 
    184 H184       -2.5980  -13.1850  -49.8206 H         1 UNK         0.3000 
    185 H185       -0.2051  -13.7709  -50.6003 H         1 UNK         0.0600 
    186 H186       -1.1820  -11.5448  -49.9395 H         1 UNK         0.0600 
    187 H187       -0.0844  -11.4584  -48.5690 H         1 UNK         0.0600 
    188 H188        0.5379  -11.3954  -50.2130 H         1 UNK         0.0600 
    189 H189        1.2654  -14.1969  -48.1850 H         1 UNK         0.3000 
    190 H190        0.3300  -21.8193  -45.0441 H         1 UNK         0.3000 
    191 H191       -2.3691  -21.4051  -45.8453 H         1 UNK         0.0600 
    192 H192       -1.1718  -19.9946  -44.1773 H         1 UNK         0.0600 
    193 H193       -2.6622  -20.6390  -43.5026 H         1 UNK         0.0600 
    194 H194       -1.1178  -21.3490  -43.0503 H         1 UNK         0.0600 
    195 H195       -0.8340  -24.0189  -43.9558 H         1 UNK         0.3000 
    196 H196       -3.2973  -25.3337  -43.2255 H         1 UNK         0.0600 
    197 H197       -1.7458  -27.1560  -42.5016 H         1 UNK         0.0600 
    198 H198       -1.2240  -25.5905  -41.8994 H         1 UNK         0.0600 
    199 H199       -0.3985  -26.3259  -43.2727 H         1 UNK         0.0600 
    200 H200       -1.1726  -25.4963  -46.0413 H         1 UNK         0.3000 
    201 H201       -2.0952  -28.0207  -47.0643 H         1 UNK         0.0600 
    202 H202       -0.8024  -27.3143  -49.0889 H         1 UNK         0.0600 
    203 H203       -0.6344  -25.6918  -48.4327 H         1 UNK         0.0600 
    204 H204        0.1335  -27.0597  -47.6294 H         1 UNK         0.0600 
    205 H205       -3.1457  -28.2958  -49.1571 H         1 UNK         0.3000 
    206 H206       -5.6842  -27.0715  -49.3809 H         1 UNK         0.0600 
    207 H207       -5.1916  -29.3868  -50.1282 H         1 UNK         0.0600 
    208 H208       -5.8393  -28.4487  -51.4632 H         1 UNK         0.0600 
    209 H209       -4.1131  -28.7800  -51.3862 H         1 UNK         0.0600 
    210 H210       -2.6441  -26.0058  -50.5935 H         1 UNK         0.3000 
    211 H211       -3.3071  -24.4679  -52.8540 H         1 UNK         0.0600 
    212 H212       -1.1964  -23.9666  -50.6801 H         1 UNK         0.0600 
    213 H213       -1.2133  -23.2288  -52.2762 H         1 UNK         0.0600 
    214 H214       -0.9745  -24.9617  -52.1215 H         1 UNK         0.0600 
    215 H215       -3.8734  -23.8225  -49.4235 H         1 UNK         0.3000 
    216 H216       -4.3142  -21.0331  -49.5199 H         1 UNK         0.0600 
    217 H217       -5.3157  -21.3984  -47.2862 H         1 UNK         0.0600 
    218 H218       -3.8560  -22.3605  -47.4610 H         1 UNK         0.0600 
    219 H219       -5.4343  -23.1300  -47.5900 H         1 UNK         0.0600 
    220 H220       -6.2535  -23.4441  -50.9511 H         1 UNK         0.3000 
    221 H221       -8.8236  -22.1071  -50.7867 H         1 UNK         0.0600 
    222 H222       -7.7372  -24.1775  -52.7700 H         1 UNK         0.0600 
    223 H223       -8.6171  -24.5408  -51.2862 H         1 UNK         0.0600 
    224 H224       -9.4227  -23.6999  -52.6025 H         1 UNK         0.0600 
    225 H225       -5.8816  -21.5948  -52.6531 H         1 UNK         0.3000 
    226 H226       -7.1988  -20.0625  -54.7938 H         1 UNK         0.0600 
    227 H227       -4.8926  -19.7906  -55.6269 H         1 UNK         0.0600 
    228 H228       -4.2262  -20.4798  -54.1536 H         1 UNK         0.0600 
    229 H229       -5.1683  -21.4850  -55.2535 H         1 UNK         0.0600 
    230 H230       -7.0039  -17.8267  -55.0277 H         1 UNK         0.3000 
    231 H231       -7.0978  -16.2110  -52.7224 H         1 UNK         0.0600 
    232 H232       -6.7548  -15.4406  -55.6708 H         1 UNK         0.0600 
    233 H233       -7.2632  -14.3510  -54.3864 H         1 UNK         0.0600 
    234 H234       -8.2892  -15.7011  -54.8392 H         1 UNK         0.0600 
    235 H235       -4.3113  -17.3223  -54.3468 H         1 UNK         0.3000 
    236 H236       -2.4937  -15.1566  -53.8013 H         1 UNK         0.0600 
    237 H237       -2.0289  -16.7752  -55.5833 H         1 UNK         0.0600 
    238 H238       -0.7740  -16.9217  -54.3639 H         1 UNK         0.0600 
    239 H239       -2.0614  -18.1208  -54.4473 H         1 UNK         0.0600 
    240 H240       -3.8197  -17.7093  -51.7603 H         1 UNK         0.3000 
    241 H241       -2.3883  -16.6330  -49.5085 H         1 UNK         0.0600 
    242 H242       -5.2532  -18.2669  -50.6351 H         1 UNK         0.3800 
    243 H243       -5.8658  -18.4892  -49.0287 H         1 UNK         0.3800 
    244 H244       -1.3116  -18.7259  -48.7133 H         1 UNK         0.0800 
    245 H245       -0.5876  -18.0459  -50.1258 H         1 UNK         0.0800 
    246 H246       -0.7889  -20.8045  -52.7380 H         1 UNK         0.0800 
    247 H247       -0.8979  -19.0673  -52.6130 H         1 UNK         0.0800 
@<TRIPOS>BOND
     1    1    2 1    
     2    1  127 1    
     3    1  128 1    
     4    1  129 1    
     5    2    3 2    
     6    2    4 am   BACKBONE|DICT|INTERRES
     7    4    5 1    
     8    4  130 1    
     9    5    6 1    
    10    5   65 1    
    11    5  131 1    
    12    6    7 1    
    13    6  132 1    
    14    6  133 1    
    15    7    8 1    
    16    8    9 1    
    17    8  134 1    
    18    8  135 1    
    19    9   10 ar   
    20    9   14 ar   
    21   10   11 ar   
    22   10  136 1    
    23   11   12 ar   
    24   11  126 1    
    25   12   13 ar   
    26   12  137 1    
    27   13   14 ar   
    28   13   15 1    
    29   14  138 1    
    30   15   16 1    
    31   15  139 1    
    32   15  140 1    
    33   16   17 1    
    34   17   18 1    
    35   17  141 1    
    36   17  142 1    
    37   18   19 1    
    38   18   67 1    
    39   18  143 1    
    40   19   20 am   BACKBONE|DICT|INTERRES
    41   19  144 1    
    42   20   21 2    
    43   20   22 1    
    44   22   23 1    
    45   22   24 1    
    46   22  145 1    
    47   23  146 1    
    48   23  147 1    
    49   23  148 1    
    50   24   25 am   BACKBONE|DICT|INTERRES
    51   24  149 1    
    52   25   26 2    
    53   25   27 1    
    54   27   28 1    
    55   27   29 1    
    56   27  150 1    
    57   28  151 1    
    58   28  152 1    
    59   28  153 1    
    60   29   30 am   BACKBONE|DICT|INTERRES
    61   29  154 1    
    62   30   31 2    
    63   30   32 1    
    64   32   33 1    
    65   32   34 1    
    66   32  155 1    
    67   33  156 1    
    68   33  157 1    
    69   33  158 1    
    70   34   35 am   BACKBONE|DICT|INTERRES
    71   34  159 1    
    72   35   36 2    
    73   35   37 1    
    74   37   38 1    
    75   37   39 1    
    76   37  160 1    
    77   38  161 1    
    78   38  162 1    
    79   38  163 1    
    80   39   40 am   BACKBONE|DICT|INTERRES
    81   39  164 1    
    82   40   41 2    
    83   40   42 1    
    84   42   43 1    
    85   42   44 1    
    86   42  165 1    
    87   43  166 1    
    88   43  167 1    
    89   43  168 1    
    90   44   45 am   BACKBONE|DICT|INTERRES
    91   44  169 1    
    92   45   46 2    
    93   45   47 1    
    94   47   48 1    
    95   47   49 1    
    96   47  170 1    
    97   48  171 1    
    98   48  172 1    
    99   48  173 1    
   100   49   50 am   BACKBONE|DICT|INTERRES
   101   49  174 1    
   102   50   51 2    
   103   50   52 1    
   104   52   53 1    
   105   52   54 1    
   106   52  175 1    
   107   53  176 1    
   108   53  177 1    
   109   53  178 1    
   110   54   55 am   BACKBONE|DICT|INTERRES
   111   54  179 1    
   112   55   56 2    
   113   55   57 1    
   114   57   58 1    
   115   57   59 1    
   116   57  180 1    
   117   58  181 1    
   118   58  182 1    
   119   58  183 1    
   120   59   60 am   BACKBONE|DICT|INTERRES
   121   59  184 1    
   122   60   61 2    
   123   60   62 1    
   124   62   63 1    
   125   62   64 1    
   126   62  185 1    
   127   63  186 1    
   128   63  187 1    
   129   63  188 1    
   130   64   65 am   BACKBONE|DICT|INTERRES
   131   64  189 1    
   132   65   66 2    
   133   67   68 2    
   134   67   69 am   BACKBONE|DICT|INTERRES
   135   69   70 1    
   136   69  190 1    
   137   70   71 1    
   138   70   72 1    
   139   70  191 1    
   140   71  192 1    
   141   71  193 1    
   142   71  194 1    
   143   72   73 2    
   144   72   74 am   BACKBONE|DICT|INTERRES
   145   74   75 1    
   146   74  195 1    
   147   75   76 1    
   148   75   77 1    
   149   75  196 1    
   150   76  197 1    
   151   76  198 1    
   152   76  199 1    
   153   77   78 2    
   154   77   79 am   BACKBONE|DICT|INTERRES
   155   79   80 1    
   156   79  200 1    
   157   80   81 1    
   158   80   82 1    
   159   80  201 1    
   160   81  202 1    
   161   81  203 1    
   162   81  204 1    
   163   82   83 2    
   164   82   84 am   BACKBONE|DICT|INTERRES
   165   84   85 1    
   166   84  205 1    
   167   85   86 1    
   168   85   87 1    
   169   85  206 1    
   170   86  207 1    
   171   86  208 1    
   172   86  209 1    
   173   87   88 2    
   174   87   89 am   BACKBONE|DICT|INTERRES
   175   89   90 1    
   176   89  210 1    
   177   90   91 1    
   178   90   92 1    
   179   90  211 1    
   180   91  212 1    
   181   91  213 1    
   182   91  214 1    
   183   92   93 2    
   184   92   94 am   BACKBONE|DICT|INTERRES
   185   94   95 1    
   186   94  215 1    
   187   95   96 1    
   188   95   97 1    
   189   95  216 1    
   190   96  217 1    
   191   96  218 1    
   192   96  219 1    
   193   97   98 2    
   194   97   99 am   BACKBONE|DICT|INTERRES
   195   99  100 1    
   196   99  220 1    
   197  100  101 1    
   198  100  102 1    
   199  100  221 1    
   200  101  222 1    
   201  101  223 1    
   202  101  224 1    
   203  102  103 2    
   204  102  104 am   BACKBONE|DICT|INTERRES
   205  104  105 1    
   206  104  225 1    
   207  105  106 1    
   208  105  107 1    
   209  105  226 1    
   210  106  227 1    
   211  106  228 1    
   212  106  229 1    
   213  107  108 2    
   214  107  109 am   BACKBONE|DICT|INTERRES
   215  109  110 1    
   216  109  230 1    
   217  110  111 1    
   218  110  112 1    
   219  110  231 1    
   220  111  232 1    
   221  111  233 1    
   222  111  234 1    
   223  112  113 2    
   224  112  114 am   BACKBONE|DICT|INTERRES
   225  114  115 1    
   226  114  235 1    
   227  115  116 1    
   228  115  117 1    
   229  115  236 1    
   230  116  237 1    
   231  116  238 1    
   232  116  239 1    
   233  117  118 2    
   234  117  119 am   BACKBONE|DICT|INTERRES
   235  119  120 1    
   236  119  240 1    
   237  120  121 1    
   238  120  124 1    
   239  120  241 1    
   240  121  122 am   BACKBONE|DICT|INTERRES
   241  121  123 2    
   242  122  242 1    
   243  122  243 1    
   244  124  125 1    
   245  124  244 1    
   246  124  245 1    
   247  125  126 1    
   248  126  246 1    
   249  126  247 1    
@<TRIPOS>SUBSTRUCTURE
     1 UNK         1 GROUP             0       ****    0 ROOT    
