@<TRIPOS>MOLECULE
3R540
247   249    1
SMALL
USER_CHARGES


@<TRIPOS>ATOM
      1 CA         -1.9826  -11.1445  -44.4317 C.3       0 UNK        -0.1800 
      2 C          -1.3251  -11.5197  -45.7518 C.2       0 UNK         0.5000 
      3 O          -0.6665  -10.6785  -46.3621 O.2       0 UNK        -0.5000 
      4 N          -1.4758  -12.7796  -46.1852 N.am      1 UNK        -0.5000 
      5 CA         -0.9563  -13.3145  -47.4554 C.3       1 UNK         0.1400 
      6 C6         -1.4680  -14.7507  -47.7273 C.3       23 UNK        -0.0398 
      7 S7         -0.9603  -15.9844  -46.4730 S.3       23 UNK        -0.2404 
      8 C8         -1.9995  -17.4132  -46.9121 C.3       23 UNK        -0.0205 
      9 C9         -1.7918  -17.8568  -48.3533 C.ar      23 UNK        -0.0193 
     10 C10        -2.6890  -17.4587  -49.3484 C.ar      23 UNK        -0.1150 
     11 C11        -2.4836  -17.8325  -50.6786 C.ar      23 UNK        -0.0193 
     12 C12        -1.3888  -18.6394  -51.0043 C.ar      23 UNK        -0.1150 
     13 C13        -0.4802  -19.0399  -50.0214 C.ar      23 UNK        -0.0193 
     14 C14        -0.6895  -18.6436  -48.6966 C.ar      23 UNK        -0.1150 
     15 C15         0.7544  -19.8415  -50.4136 C.3       23 UNK        -0.0205 
     16 S16         0.5126  -21.6386  -50.2478 S.3       23 UNK        -0.2404 
     17 C17         0.9548  -21.8880  -48.4921 C.3       23 UNK        -0.0398 
     18 CA          0.2092  -23.0400  -47.7782 C.3       11 UNK         0.1400 
     19 N           0.6163  -23.1515  -46.3762 N.am      11 UNK        -0.5000 
     20 C           0.4352  -24.2422  -45.6182 C.2       10 UNK         0.5000 
     21 O          -0.0502  -25.2905  -46.0388 O.2       10 UNK        -0.5000 
     22 CA          0.8191  -24.1350  -44.1305 C.3       10 UNK         0.1400 
     23 CB          2.2991  -24.4905  -43.9293 C.3       10 UNK        -0.1800 
     24 N           0.5584  -22.8085  -43.5709 N.am      10 UNK        -0.5000 
     25 C          -0.6588  -22.2602  -43.4476 C.2       9 UNK         0.5000 
     26 O          -1.7005  -22.8469  -43.7365 O.2       9 UNK        -0.5000 
     27 CA         -0.7185  -20.7950  -42.9771 C.3       9 UNK         0.1400 
     28 CB         -0.8951  -20.7228  -41.4538 C.3       9 UNK        -0.1800 
     29 N           0.4582  -20.0127  -43.3614 N.am      9 UNK        -0.5000 
     30 C           0.8481  -19.7545  -44.6162 C.2       8 UNK         0.5000 
     31 O           0.2487  -20.1875  -45.6024 O.2       8 UNK        -0.5000 
     32 CA          2.1265  -18.9007  -44.7878 C.3       8 UNK         0.1400 
     33 CB          2.3046  -18.3754  -46.2230 C.3       8 UNK        -0.1800 
     34 N           2.1823  -17.7691  -43.8578 N.am      8 UNK        -0.5000 
     35 C           2.5386  -17.8326  -42.5669 C.2       7 UNK         0.5000 
     36 O           2.8983  -18.8738  -42.0168 O.2       7 UNK        -0.5000 
     37 CA          2.4298  -16.5375  -41.7361 C.3       7 UNK         0.1400 
     38 CB          3.7924  -15.8294  -41.6775 C.3       7 UNK        -0.1800 
     39 N           1.4151  -15.5925  -42.2155 N.am      7 UNK        -0.5000 
     40 C           0.1021  -15.8468  -42.3207 C.2       6 UNK         0.5000 
     41 O          -0.4132  -16.9237  -42.0171 O.2       6 UNK        -0.5000 
     42 CA         -0.7601  -14.6903  -42.8661 C.3       6 UNK         0.1400 
     43 CB         -2.2613  -15.0412  -42.9511 C.3       6 UNK        -0.1800 
     44 N          -0.5432  -13.4351  -42.1359 N.am      6 UNK        -0.5000 
     45 C          -0.7936  -13.2014  -40.8380 C.2       5 UNK         0.5000 
     46 O          -1.2761  -14.0328  -40.0671 O.2       5 UNK        -0.5000 
     47 CA         -0.4422  -11.7848  -40.3302 C.3       5 UNK         0.1400 
     48 CB         -0.4577  -11.6778  -38.7909 C.3       5 UNK        -0.1800 
     49 N           0.8238  -11.2626  -40.8629 N.am      5 UNK        -0.5000 
     50 C           2.0439  -11.8046  -40.7404 C.2       4 UNK         0.5000 
     51 O           2.2541  -12.8989  -40.2165 O.2       4 UNK        -0.5000 
     52 CA          3.2188  -10.9837  -41.3156 C.3       4 UNK         0.1400 
     53 CB          4.5791  -11.6769  -41.1168 C.3       4 UNK        -0.1800 
     54 N           3.0575  -10.6924  -42.7398 N.am      4 UNK        -0.5000 
     55 C           2.2517   -9.7769  -43.2881 C.2       3 UNK         0.5000 
     56 O           1.4919   -9.0646  -42.6306 O.2       3 UNK        -0.5000 
     57 CA          2.2657   -9.6589  -44.8249 C.3       3 UNK         0.1400 
     58 CB          3.4424   -8.7911  -45.3095 C.3       3 UNK        -0.1800 
     59 N           2.2129  -10.9494  -45.5278 N.am      3 UNK        -0.5000 
     60 C           3.1297  -11.9297  -45.5847 C.2       2 UNK         0.5000 
     61 O           4.2312  -11.8602  -45.0380 O.2       2 UNK        -0.5000 
     62 CA          2.7321  -13.2249  -46.3223 C.3       2 UNK         0.1400 
     63 CB          3.2392  -14.4763  -45.5833 C.3       2 UNK        -0.1800 
     64 N           1.2798  -13.3330  -46.4554 N.am      2 UNK        -0.5000 
     65 C           0.5823  -13.2310  -47.5927 C.2       1 UNK         0.5000 
     66 O           1.0900  -13.0553  -48.7007 O.2       1 UNK        -0.5000 
     67 C          -1.3247  -22.9309  -47.8848 C.2       11 UNK         0.5000 
     68 O          -1.9202  -23.6073  -48.7234 O.2       11 UNK        -0.5000 
     69 N          -1.9489  -22.1337  -47.0054 N.am      12 UNK        -0.5000 
     70 CA         -3.4066  -22.0176  -46.9080 C.3       12 UNK         0.1400 
     71 CB         -3.7787  -20.9270  -45.8940 C.3       12 UNK        -0.1800 
     72 C          -4.0918  -23.3554  -46.5623 C.2       12 UNK         0.5000 
     73 O          -5.1321  -23.6707  -47.1394 O.2       12 UNK        -0.5000 
     74 N          -3.4776  -24.1205  -45.6516 N.am      13 UNK        -0.5000 
     75 CA         -3.9351  -25.4344  -45.2156 C.3       13 UNK         0.1400 
     76 CB         -3.3213  -25.7533  -43.8409 C.3       13 UNK        -0.1800 
     77 C          -3.6347  -26.5440  -46.2415 C.2       13 UNK         0.5000 
     78 O          -4.5635  -27.0792  -46.8472 O.2       13 UNK        -0.5000 
     79 N          -2.3535  -26.9103  -46.3830 N.am      14 UNK        -0.5000 
     80 CA         -1.9206  -28.1361  -47.0572 C.3       14 UNK         0.1400 
     81 CB         -0.5469  -28.5615  -46.5153 C.3       14 UNK        -0.1800 
     82 C          -1.8801  -28.0120  -48.5867 C.2       14 UNK         0.5000 
     83 O          -2.2315  -28.9702  -49.2759 O.2       14 UNK        -0.5000 
     84 N          -1.4677  -26.8423  -49.0933 N.am      15 UNK        -0.5000 
     85 CA         -1.4223  -26.5487  -50.5303 C.3       15 UNK         0.1400 
     86 CB         -0.2226  -25.6362  -50.8377 C.3       15 UNK        -0.1800 
     87 C          -2.7397  -25.9375  -51.0455 C.2       15 UNK         0.5000 
     88 O          -2.8303  -25.6274  -52.2338 O.2       15 UNK        -0.5000 
     89 N          -3.7246  -25.7592  -50.1512 N.am      16 UNK        -0.5000 
     90 CA         -5.0553  -25.1945  -50.3886 C.3       16 UNK         0.1400 
     91 CB         -5.8988  -26.1541  -51.2541 C.3       16 UNK        -0.1800 
     92 C          -5.0015  -23.7628  -50.9587 C.2       16 UNK         0.5000 
     93 O          -5.7494  -23.4417  -51.8818 O.2       16 UNK        -0.5000 
     94 N          -4.0869  -22.9411  -50.4222 N.am      17 UNK        -0.5000 
     95 CA         -3.7839  -21.5691  -50.8443 C.3       17 UNK         0.1400 
     96 CB         -5.0039  -20.6505  -50.6209 C.3       17 UNK        -0.1800 
     97 C          -3.2324  -21.5369  -52.2845 C.2       17 UNK         0.5000 
     98 O          -3.6778  -20.7396  -53.1131 O.2       17 UNK        -0.5000 
     99 N          -2.2919  -22.4567  -52.5501 N.am      18 UNK        -0.5000 
    100 CA        -1.6744  -22.7560  -53.8442 C.3       18 UNK         0.1400 
    101 CB        -0.7626  -21.5969  -54.2929 C.3       18 UNK        -0.1800 
    102 C         -2.7345  -23.1452  -54.8937 C.2       18 UNK         0.5000 
    103 O         -2.8727  -22.4756  -55.9190 O.2       18 UNK        -0.5000 
    104 N         -3.5079  -24.1931  -54.5700 N.am      19 UNK        -0.5000 
    105 CA        -4.6368  -24.7405  -55.3347 C.3       19 UNK         0.1400 
    106 CB        -4.1255  -25.4459  -56.6074 C.3       19 UNK        -0.1800 
    107 C         -5.7340  -23.6932  -55.6302 C.2       19 UNK         0.5000 
    108 O         -6.3247  -23.6990  -56.7114 O.2       19 UNK        -0.5000 
    109 N         -5.9452  -22.7855  -54.6668 N.am      20 UNK        -0.5000 
    110 CA        -6.8137  -21.6051  -54.6840 C.3       20 UNK         0.1400 
    111 CB        -8.2939  -22.0209  -54.8017 C.3       20 UNK        -0.1800 
    112 C         -6.4295  -20.5245  -55.7207 C.2       20 UNK         0.5000 
    113 O         -7.1623  -19.5431  -55.8563 O.2       20 UNK        -0.5000 
    114 N         -5.3031  -20.6936  -56.4272 N.am      21 UNK        -0.5000 
    115 CA        -4.8233  -19.7661  -57.4511 C.3       21 UNK         0.1400 
    116 CB        -4.0475  -20.5534  -58.5186 C.3       21 UNK        -0.1800 
    117 C         -3.9464  -18.6486  -56.8618 C.2       21 UNK         0.5000 
    118 O         -3.8228  -17.5934  -57.4847 O.2       21 UNK        -0.5000 
    119 N         -3.3561  -18.8917  -55.6830 N.am      22 UNK        -0.5000 
    120 CA        -2.4604  -17.9702  -54.9661 C.3       22 UNK         0.1400 
    121 C         -1.0979  -17.6887  -55.6757 C.2       22 UNK         0.5000 
    122 N         -0.6507  -18.5378  -56.5936 N.am      22 UNK        -0.7600 
    123 O         -0.4205  -16.7077  -55.3823 O.2       22 UNK        -0.5000 
    124 C124       -3.2035  -16.6901  -54.4810 C.3       23 UNK        -0.0398 
    125 S125       -2.6351  -16.1224  -52.8428 S.3       23 UNK        -0.2404 
    126 C126       -3.4331  -17.3555  -51.7667 C.3       23 UNK        -0.0205 
    127 H127       -2.5381  -11.9762  -44.0006 H         1 UNK         0.0600 
    128 H128       -2.6772  -10.3186  -44.5840 H         1 UNK         0.0600 
    129 H129       -1.2282  -10.8246  -43.7130 H         1 UNK         0.0600 
    130 H130       -2.0366  -13.4248  -45.6479 H         1 UNK         0.3000 
    131 H131       -1.3632  -12.6767  -48.2432 H         1 UNK         0.0600 
    132 H132       -1.1262  -15.0882  -48.7076 H         1 UNK         0.0800 
    133 H133       -2.5573  -14.7418  -47.7809 H         1 UNK         0.0800 
    134 H134       -3.0475  -17.1696  -46.7313 H         1 UNK         0.0800 
    135 H135       -1.7535  -18.2354  -46.2390 H         1 UNK         0.0800 
    136 H136       -3.5347  -16.8373  -49.0899 H         1 UNK         0.1150 
    137 H137       -1.2251  -18.9314  -52.0312 H         1 UNK         0.1150 
    138 H138        0.0137  -18.9217  -47.9282 H         1 UNK         0.1150 
    139 H139        1.0148  -19.6266  -51.4512 H         1 UNK         0.0800 
    140 H140        1.6139  -19.5238  -49.8212 H         1 UNK         0.0800 
    141 H141        2.0293  -22.0702  -48.4475 H         1 UNK         0.0800 
    142 H142        0.7940  -20.9594  -47.9529 H         1 UNK         0.0800 
    143 H143        0.4982  -23.9671  -48.2776 H         1 UNK         0.0600 
    144 H144        0.9498  -22.3041  -45.9373 H         1 UNK         0.3000 
    145 H145        0.2150  -24.8586  -43.5792 H         1 UNK         0.0600 
    146 H146        2.5637  -24.4936  -42.8717 H         1 UNK         0.0600 
    147 H147        2.9569  -23.7852  -44.4387 H         1 UNK         0.0600 
    148 H148        2.5178  -25.4851  -44.3205 H         1 UNK         0.0600 
    149 H149        1.3608  -22.2582  -43.3025 H         1 UNK         0.3000 
    150 H150       -1.5894  -20.3329  -43.4456 H         1 UNK         0.0600 
    151 H151       -1.7800  -21.2759  -41.1361 H         1 UNK         0.0600 
    152 H152       -1.0202  -19.6917  -41.1216 H         1 UNK         0.0600 
    153 H153       -0.0367  -21.1431  -40.9285 H         1 UNK         0.0600 
    154 H154        1.0214  -19.6355  -42.6091 H         1 UNK         0.3000 
    155 H155        2.9691  -19.5628  -44.5792 H         1 UNK         0.0600 
    156 H156        2.3142  -19.1916  -46.9459 H         1 UNK         0.0600 
    157 H157        3.2505  -17.8448  -46.3311 H         1 UNK         0.0600 
    158 H158        1.5038  -17.6918  -46.5038 H         1 UNK         0.0600 
    159 H159        1.8541  -16.8847  -44.2140 H         1 UNK         0.3000 
    160 H160        2.1521  -16.8269  -40.7206 H         1 UNK         0.0600 
    161 H161        4.1049  -15.4683  -42.6577 H         1 UNK         0.0600 
    162 H162        4.5686  -16.5049  -41.3153 H         1 UNK         0.0600 
    163 H163        3.7671  -14.9788  -40.9972 H         1 UNK         0.0600 
    164 H164        1.7403  -14.6576  -42.4090 H         1 UNK         0.3000 
    165 H165       -0.4132  -14.5130  -43.8839 H         1 UNK         0.0600 
    166 H166       -2.8418  -14.2210  -43.3699 H         1 UNK         0.0600 
    167 H167       -2.4205  -15.9091  -43.5924 H         1 UNK         0.0600 
    168 H168       -2.6802  -15.2809  -41.9736 H         1 UNK         0.0600 
    169 H169       -0.1186  -12.6835  -42.6576 H         1 UNK         0.3000 
    170 H170       -1.2260  -11.1283  -40.7107 H         1 UNK         0.0600 
    171 H171        0.2745  -12.3433  -38.3321 H         1 UNK         0.0600 
    172 H172       -0.2378  -10.6615  -38.4642 H         1 UNK         0.0600 
    173 H173       -1.4368  -11.9408  -38.3887 H         1 UNK         0.0600 
    174 H174        0.7707  -10.3695  -41.3450 H         1 UNK         0.3000 
    175 H175        3.2452  -10.0388  -40.7691 H         1 UNK         0.0600 
    176 H176        4.6322  -12.6214  -41.6598 H         1 UNK         0.0600 
    177 H177        5.3967  -11.0457  -41.4654 H         1 UNK         0.0600 
    178 H178        4.7627  -11.8900  -40.0629 H         1 UNK         0.0600 
    179 H179        3.6354  -11.2303  -43.3807 H         1 UNK         0.3000 
    180 H180        1.3471   -9.1396  -45.1027 H         1 UNK         0.0600 
    181 H181        4.4082   -9.2201  -45.0418 H         1 UNK         0.0600 
    182 H182        3.3970   -7.7957  -44.8661 H         1 UNK         0.0600 
    183 H183        3.4191   -8.6657  -46.3920 H         1 UNK         0.0600 
    184 H184        1.3352  -11.1100  -46.0103 H         1 UNK         0.3000 
    185 H185        3.2070  -13.1913  -47.3046 H         1 UNK         0.0600 
    186 H186        2.8444  -14.5303  -44.5693 H         1 UNK         0.0600 
    187 H187        2.9445  -15.3849  -46.1077 H         1 UNK         0.0600 
    188 H188        4.3278  -14.4832  -45.5150 H         1 UNK         0.0600 
    189 H189        0.7590  -13.4661  -45.6030 H         1 UNK         0.3000 
    190 H190       -1.3945  -21.5971  -46.3504 H         1 UNK         0.3000 
    191 H191       -3.7786  -21.6994  -47.8822 H         1 UNK         0.0600 
    192 H192       -3.3570  -19.9649  -46.1800 H         1 UNK         0.0600 
    193 H193       -3.4267  -21.1662  -44.8912 H         1 UNK         0.0600 
    194 H194       -4.8608  -20.8017  -45.8387 H         1 UNK         0.0600 
    195 H195       -2.6618  -23.7447  -45.1775 H         1 UNK         0.3000 
    196 H196       -5.0190  -25.3946  -45.0866 H         1 UNK         0.0600 
    197 H197       -3.6503  -25.0341  -43.0906 H         1 UNK         0.0600 
    198 H198       -2.2313  -25.7289  -43.8634 H         1 UNK         0.0600 
    199 H199       -3.6229  -26.7433  -43.4963 H         1 UNK         0.0600 
    200 H200       -1.6191  -26.3561  -45.9513 H         1 UNK         0.3000 
    201 H201       -2.6298  -28.9296  -46.8110 H         1 UNK         0.0600 
    202 H202       -0.5686  -28.6798  -45.4319 H         1 UNK         0.0600 
    203 H203        0.2283  -27.8343  -46.7584 H         1 UNK         0.0600 
    204 H204       -0.2406  -29.5179  -46.9408 H         1 UNK         0.0600 
    205 H205       -1.2218  -26.0918  -48.4616 H         1 UNK         0.3000 
    206 H206       -1.2684  -27.4765  -51.0849 H         1 UNK         0.0600 
    207 H207        0.7010  -26.0430  -50.4260 H         1 UNK         0.0600 
    208 H208       -0.3549  -24.6326  -50.4399 H         1 UNK         0.0600 
    209 H209       -0.0792  -25.5360  -51.9142 H         1 UNK         0.0600 
    210 H210       -3.5297  -26.0223  -49.1958 H         1 UNK         0.3000 
    211 H211       -5.5379  -25.1192  -49.4136 H         1 UNK         0.0600 
    212 H212       -5.4984  -26.2485  -52.2637 H         1 UNK         0.0600 
    213 H213       -6.9268  -25.8007  -51.3416 H         1 UNK         0.0600 
    214 H214       -5.9358  -27.1505  -50.8138 H         1 UNK         0.0600 
    215 H215       -3.4613  -23.3237  -49.7160 H         1 UNK         0.3000 
    216 H216       -2.9789  -21.2144  -50.1986 H         1 UNK         0.0600 
    217 H217       -4.7356  -19.6044  -50.7453 H         1 UNK         0.0600 
    218 H218       -5.3999  -20.7596  -49.6114 H         1 UNK         0.0600 
    219 H219       -5.8117  -20.8630  -51.3211 H         1 UNK         0.0600 
    220 H220       -2.0346  -23.0805  -51.7987 H         1 UNK         0.3000 
    221 H221       -1.0440  -23.6338  -53.6946 H         1 UNK         0.0600 
    222 H222       -1.3291  -20.6889  -54.4882 H         1 UNK         0.0600 
    223 H223       -0.0149  -21.3673  -53.5337 H         1 UNK         0.0600 
    224 H224       -0.2305  -21.8524  -55.2096 H         1 UNK         0.0600 
    225 H225       -3.3110  -24.6697  -53.6902 H         1 UNK         0.3000 
    226 H226       -5.1000  -25.4955  -54.6982 H         1 UNK         0.0600 
    227 H227       -3.3662  -26.1899  -56.3668 H         1 UNK         0.0600 
    228 H228       -4.9356  -25.9653  -57.1205 H         1 UNK         0.0600 
    229 H229       -3.6902  -24.7382  -57.3137 H         1 UNK         0.0600 
    230 H230       -5.4525  -22.9193  -53.7891 H         1 UNK         0.3000 
    231 H231       -6.6815  -21.1359  -53.7082 H         1 UNK         0.0600 
    232 H232       -8.9545  -21.1651  -54.6591 H         1 UNK         0.0600 
    233 H233       -8.5557  -22.7597  -54.0441 H         1 UNK         0.0600 
    234 H234       -8.5193  -22.4466  -55.7797 H         1 UNK         0.0600 
    235 H235       -4.7209  -21.5033  -56.2426 H         1 UNK         0.3000 
    236 H236       -5.6774  -19.2942  -57.9415 H         1 UNK         0.0600 
    237 H237       -3.1473  -21.0129  -58.1101 H         1 UNK         0.0600 
    238 H238       -4.6617  -21.3448  -58.9488 H         1 UNK         0.0600 
    239 H239       -3.7385  -19.9004  -59.3357 H         1 UNK         0.0600 
    240 H240       -3.5283  -19.7790  -55.2257 H         1 UNK         0.3000 
    241 H241       -2.1753  -18.5388  -54.0836 H         1 UNK         0.0600 
    242 H242        0.2316  -18.3578  -57.0461 H         1 UNK         0.3800 
    243 H243       -1.1877  -19.3517  -56.8455 H         1 UNK         0.3800 
    244 H244       -4.2766  -16.8727  -54.4047 H         1 UNK         0.0800 
    245 H245       -3.0974  -15.8778  -55.2019 H         1 UNK         0.0800 
    246 H246       -3.7628  -18.2133  -52.3518 H         1 UNK         0.0800 
    247 H247       -4.3351  -16.9188  -51.3356 H         1 UNK         0.0800 
@<TRIPOS>BOND
     1    1    2 1    
     2    1  127 1    
     3    1  128 1    
     4    1  129 1    
     5    2    3 2    
     6    2    4 am   BACKBONE|DICT|INTERRES
     7    4    5 1    
     8    4  130 1    
     9    5    6 1    
    10    5   65 1    
    11    5  131 1    
    12    6    7 1    
    13    6  132 1    
    14    6  133 1    
    15    7    8 1    
    16    8    9 1    
    17    8  134 1    
    18    8  135 1    
    19    9   10 ar   
    20    9   14 ar   
    21   10   11 ar   
    22   10  136 1    
    23   11   12 ar   
    24   11  126 1    
    25   12   13 ar   
    26   12  137 1    
    27   13   14 ar   
    28   13   15 1    
    29   14  138 1    
    30   15   16 1    
    31   15  139 1    
    32   15  140 1    
    33   16   17 1    
    34   17   18 1    
    35   17  141 1    
    36   17  142 1    
    37   18   19 1    
    38   18   67 1    
    39   18  143 1    
    40   19   20 am   BACKBONE|DICT|INTERRES
    41   19  144 1    
    42   20   21 2    
    43   20   22 1    
    44   22   23 1    
    45   22   24 1    
    46   22  145 1    
    47   23  146 1    
    48   23  147 1    
    49   23  148 1    
    50   24   25 am   BACKBONE|DICT|INTERRES
    51   24  149 1    
    52   25   26 2    
    53   25   27 1    
    54   27   28 1    
    55   27   29 1    
    56   27  150 1    
    57   28  151 1    
    58   28  152 1    
    59   28  153 1    
    60   29   30 am   BACKBONE|DICT|INTERRES
    61   29  154 1    
    62   30   31 2    
    63   30   32 1    
    64   32   33 1    
    65   32   34 1    
    66   32  155 1    
    67   33  156 1    
    68   33  157 1    
    69   33  158 1    
    70   34   35 am   BACKBONE|DICT|INTERRES
    71   34  159 1    
    72   35   36 2    
    73   35   37 1    
    74   37   38 1    
    75   37   39 1    
    76   37  160 1    
    77   38  161 1    
    78   38  162 1    
    79   38  163 1    
    80   39   40 am   BACKBONE|DICT|INTERRES
    81   39  164 1    
    82   40   41 2    
    83   40   42 1    
    84   42   43 1    
    85   42   44 1    
    86   42  165 1    
    87   43  166 1    
    88   43  167 1    
    89   43  168 1    
    90   44   45 am   BACKBONE|DICT|INTERRES
    91   44  169 1    
    92   45   46 2    
    93   45   47 1    
    94   47   48 1    
    95   47   49 1    
    96   47  170 1    
    97   48  171 1    
    98   48  172 1    
    99   48  173 1    
   100   49   50 am   BACKBONE|DICT|INTERRES
   101   49  174 1    
   102   50   51 2    
   103   50   52 1    
   104   52   53 1    
   105   52   54 1    
   106   52  175 1    
   107   53  176 1    
   108   53  177 1    
   109   53  178 1    
   110   54   55 am   BACKBONE|DICT|INTERRES
   111   54  179 1    
   112   55   56 2    
   113   55   57 1    
   114   57   58 1    
   115   57   59 1    
   116   57  180 1    
   117   58  181 1    
   118   58  182 1    
   119   58  183 1    
   120   59   60 am   BACKBONE|DICT|INTERRES
   121   59  184 1    
   122   60   61 2    
   123   60   62 1    
   124   62   63 1    
   125   62   64 1    
   126   62  185 1    
   127   63  186 1    
   128   63  187 1    
   129   63  188 1    
   130   64   65 am   BACKBONE|DICT|INTERRES
   131   64  189 1    
   132   65   66 2    
   133   67   68 2    
   134   67   69 am   BACKBONE|DICT|INTERRES
   135   69   70 1    
   136   69  190 1    
   137   70   71 1    
   138   70   72 1    
   139   70  191 1    
   140   71  192 1    
   141   71  193 1    
   142   71  194 1    
   143   72   73 2    
   144   72   74 am   BACKBONE|DICT|INTERRES
   145   74   75 1    
   146   74  195 1    
   147   75   76 1    
   148   75   77 1    
   149   75  196 1    
   150   76  197 1    
   151   76  198 1    
   152   76  199 1    
   153   77   78 2    
   154   77   79 am   BACKBONE|DICT|INTERRES
   155   79   80 1    
   156   79  200 1    
   157   80   81 1    
   158   80   82 1    
   159   80  201 1    
   160   81  202 1    
   161   81  203 1    
   162   81  204 1    
   163   82   83 2    
   164   82   84 am   BACKBONE|DICT|INTERRES
   165   84   85 1    
   166   84  205 1    
   167   85   86 1    
   168   85   87 1    
   169   85  206 1    
   170   86  207 1    
   171   86  208 1    
   172   86  209 1    
   173   87   88 2    
   174   87   89 am   BACKBONE|DICT|INTERRES
   175   89   90 1    
   176   89  210 1    
   177   90   91 1    
   178   90   92 1    
   179   90  211 1    
   180   91  212 1    
   181   91  213 1    
   182   91  214 1    
   183   92   93 2    
   184   92   94 am   BACKBONE|DICT|INTERRES
   185   94   95 1    
   186   94  215 1    
   187   95   96 1    
   188   95   97 1    
   189   95  216 1    
   190   96  217 1    
   191   96  218 1    
   192   96  219 1    
   193   97   98 2    
   194   97   99 am   BACKBONE|DICT|INTERRES
   195   99  100 1    
   196   99  220 1    
   197  100  101 1    
   198  100  102 1    
   199  100  221 1    
   200  101  222 1    
   201  101  223 1    
   202  101  224 1    
   203  102  103 2    
   204  102  104 am   BACKBONE|DICT|INTERRES
   205  104  105 1    
   206  104  225 1    
   207  105  106 1    
   208  105  107 1    
   209  105  226 1    
   210  106  227 1    
   211  106  228 1    
   212  106  229 1    
   213  107  108 2    
   214  107  109 am   BACKBONE|DICT|INTERRES
   215  109  110 1    
   216  109  230 1    
   217  110  111 1    
   218  110  112 1    
   219  110  231 1    
   220  111  232 1    
   221  111  233 1    
   222  111  234 1    
   223  112  113 2    
   224  112  114 am   BACKBONE|DICT|INTERRES
   225  114  115 1    
   226  114  235 1    
   227  115  116 1    
   228  115  117 1    
   229  115  236 1    
   230  116  237 1    
   231  116  238 1    
   232  116  239 1    
   233  117  118 2    
   234  117  119 am   BACKBONE|DICT|INTERRES
   235  119  120 1    
   236  119  240 1    
   237  120  121 1    
   238  120  124 1    
   239  120  241 1    
   240  121  122 am   BACKBONE|DICT|INTERRES
   241  121  123 2    
   242  122  242 1    
   243  122  243 1    
   244  124  125 1    
   245  124  244 1    
   246  124  245 1    
   247  125  126 1    
   248  126  246 1    
   249  126  247 1    
@<TRIPOS>SUBSTRUCTURE
     1 UNK         1 GROUP             0       ****    0 ROOT    
