@<TRIPOS>MOLECULE
3R540
247   249    1
SMALL
USER_CHARGES


@<TRIPOS>ATOM
      1 CA         -0.5858  -13.3529  -48.8430 C.3       0 UNK        -0.1800 
      2 C           0.7444  -12.6362  -49.0034 C.2       0 UNK         0.5000 
      3 O           0.8736  -11.4843  -48.5910 O.2       0 UNK        -0.5000 
      4 N           1.7364  -13.3199  -49.5868 N.am      1 UNK        -0.5000 
      5 CA          3.0865  -12.8110  -49.8678 C.3       1 UNK         0.1400 
      6 C6          3.9113  -13.7907  -50.7440 C.3       23 UNK        -0.0398 
      7 S7          3.8691  -15.5270  -50.1569 S.3       23 UNK        -0.2404 
      8 C8          3.1350  -16.3989  -51.5790 C.3       23 UNK        -0.0205 
      9 C9          2.1270  -17.4474  -51.1355 C.ar      23 UNK        -0.0193 
     10 C10         0.7586  -17.1611  -51.1671 C.ar      23 UNK        -0.1150 
     11 C11        -0.1776  -18.1298  -50.7964 C.ar      23 UNK        -0.0193 
     12 C12         0.2635  -19.3897  -50.3830 C.ar      23 UNK        -0.1150 
     13 C13         1.6284  -19.6912  -50.3517 C.ar      23 UNK        -0.0193 
     14 C14         2.5560  -18.7149  -50.7282 C.ar      23 UNK        -0.1150 
     15 C15         2.0938  -21.0856  -49.9535 C.3       23 UNK        -0.0205 
     16 S16         2.8206  -21.1518  -48.2821 S.3       23 UNK        -0.2404 
     17 C17         1.4389  -20.6195  -47.2176 C.3       23 UNK        -0.0398 
     18 CA          0.6088  -21.7872  -46.6309 C.3       11 UNK         0.1400 
     19 N          -0.1118  -21.3822  -45.4217 N.am      11 UNK        -0.5000 
     20 C          -0.7012  -22.2230  -44.5603 C.2       10 UNK         0.5000 
     21 O          -0.6498  -23.4482  -44.6592 O.2       10 UNK        -0.5000 
     22 CA         -1.5195  -21.5860  -43.4208 C.3       10 UNK         0.1400 
     23 CB         -0.6328  -21.3388  -42.1939 C.3       10 UNK        -0.1800 
     24 N          -2.1544  -20.3285  -43.8191 N.am      10 UNK        -0.5000 
     25 C          -3.1587  -20.2412  -44.7023 C.2       9 UNK         0.5000 
     26 O          -3.6780  -21.2178  -45.2419 O.2       9 UNK        -0.5000 
     27 CA         -3.6116  -18.8223  -45.0949 C.3       9 UNK         0.1400 
     28 CB         -4.5426  -18.2333  -44.0251 C.3       9 UNK        -0.1800 
     29 N          -2.4912  -17.9051  -45.3205 N.am      9 UNK        -0.5000 
     30 C          -1.5377  -18.0775  -46.2448 C.2       8 UNK         0.5000 
     31 O          -1.4963  -19.0445  -47.0022 O.2       8 UNK        -0.5000 
     32 CA         -0.4052  -17.0473  -46.2827 C.3       8 UNK         0.1400 
     33 CB         -0.8907  -15.5976  -46.1026 C.3       8 UNK        -0.1800 
     34 N           0.5517  -17.3969  -45.2385 N.am      8 UNK        -0.5000 
     35 C           1.8831  -17.3095  -45.3552 C.2       7 UNK         0.5000 
     36 O           2.4527  -16.8606  -46.3496 O.2       7 UNK        -0.5000 
     37 CA          2.7037  -17.8393  -44.1637 C.3       7 UNK         0.1400 
     38 CB          4.1480  -17.3132  -44.0906 C.3       7 UNK        -0.1800 
     39 N           2.0161  -17.5688  -42.9048 N.am      7 UNK        -0.5000 
     40 C           1.9705  -18.4078  -41.8632 C.2       6 UNK         0.5000 
     41 O           2.5734  -19.4809  -41.8290 O.2       6 UNK        -0.5000 
     42 CA          1.0948  -18.0054  -40.6578 C.3       6 UNK         0.1400 
     43 CB          1.9772  -17.5573  -39.4825 C.3       6 UNK        -0.1800 
     44 N           0.1143  -16.9521  -40.9324 N.am      6 UNK        -0.5000 
     45 C          -0.8901  -17.0158  -41.8166 C.2       5 UNK         0.5000 
     46 O          -1.1064  -17.9814  -42.5514 O.2       5 UNK        -0.5000 
     47 CA         -1.7605  -15.7536  -41.9501 C.3       5 UNK         0.1400 
     48 CB         -2.9309  -15.8069  -40.9578 C.3       5 UNK        -0.1800 
     49 N          -1.0336  -14.4897  -41.7749 N.am      5 UNK        -0.5000 
     50 C           0.0344  -14.0936  -42.4820 C.2       4 UNK         0.5000 
     51 O           0.6180  -14.7975  -43.3099 O.2       4 UNK        -0.5000 
     52 CA          0.5537  -12.6791  -42.2064 C.3       4 UNK         0.1400 
     53 CB          1.7577  -12.7140  -41.2502 C.3       4 UNK        -0.1800 
     54 N           0.9461  -12.0877  -43.4796 N.am      4 UNK        -0.5000 
     55 C           0.9386  -10.7819  -43.7734 C.2       3 UNK         0.5000 
     56 O           0.6013   -9.9108  -42.9693 O.2       3 UNK        -0.5000 
     57 CA          1.3622  -10.3865  -45.2081 C.3       3 UNK         0.1400 
     58 CB          1.9126   -8.9478  -45.2970 C.3       3 UNK        -0.1800 
     59 N           2.2886  -11.3377  -45.8349 N.am      3 UNK        -0.5000 
     60 C           3.5168  -11.6777  -45.4117 C.2       2 UNK         0.5000 
     61 O           4.0687  -11.1773  -44.4311 O.2       2 UNK        -0.5000 
     62 CA          4.2448  -12.7923  -46.1872 C.3       2 UNK         0.1400 
     63 CB          4.2581  -14.0793  -45.3553 C.3       2 UNK        -0.1800 
     64 N           3.6375  -13.0883  -47.4852 N.am      2 UNK        -0.5000 
     65 C           3.8681  -12.3894  -48.6039 C.2       1 UNK         0.5000 
     66 O           4.6433  -11.4337  -48.6625 O.2       1 UNK        -0.5000 
     67 C          -0.3646  -22.3866  -47.6650 C.2       11 UNK         0.5000 
     68 O          -0.0962  -23.4583  -48.2048 O.2       11 UNK        -0.5000 
     69 N          -1.5039  -21.7141  -47.8808 N.am      12 UNK        -0.5000 
     70 CA         -2.5946  -22.1732  -48.7390 C.3       12 UNK         0.1400 
     71 CB         -3.6485  -21.0653  -48.8688 C.3       12 UNK        -0.1800 
     72 C          -3.2297  -23.4836  -48.2423 C.2       12 UNK         0.5000 
     73 O          -3.5189  -24.3579  -49.0587 O.2       12 UNK        -0.5000 
     74 N          -3.3926  -23.6178  -46.9183 N.am      13 UNK        -0.5000 
     75 CA         -3.8542  -24.8414  -46.2618 C.3       13 UNK         0.1400 
     76 CB         -4.1187  -24.5700  -44.7737 C.3       13 UNK        -0.1800 
     77 C          -2.8717  -26.0130  -46.4448 C.2       13 UNK         0.5000 
     78 O          -3.3036  -27.1105  -46.7981 O.2       13 UNK        -0.5000 
     79 N          -1.5683  -25.7533  -46.2600 N.am      14 UNK        -0.5000 
     80 CA         -0.4855  -26.7148  -46.4961 C.3       14 UNK         0.1400 
     81 CB          0.8430  -26.1289  -45.9948 C.3       14 UNK        -0.1800 
     82 C          -0.3717  -27.1448  -47.9725 C.2       14 UNK         0.5000 
     83 O          -0.0766  -28.3080  -48.2479 O.2       14 UNK        -0.5000 
     84 N          -0.6583  -26.2126  -48.8904 N.am      15 UNK        -0.5000 
     85 CA         -0.7591  -26.4363  -50.3334 C.3       15 UNK         0.1400 
     86 CB         -0.5971  -25.0870  -51.0558 C.3       15 UNK        -0.1800 
     87 C          -2.0695  -27.1306  -50.7660 C.2       15 UNK         0.5000 
     88 O          -2.2517  -27.3551  -51.9618 O.2       15 UNK        -0.5000 
     89 N          -2.9703  -27.4346  -49.8180 N.am      16 UNK        -0.5000 
     90 CA         -4.2802  -28.0679  -50.0103 C.3       16 UNK         0.1400 
     91 CB         -4.1172  -29.5289  -50.4790 C.3       16 UNK        -0.1800 
     92 C          -5.2180  -27.2400  -50.9147 C.2       16 UNK         0.5000 
     93 O          -5.9363  -27.7990  -51.7450 O.2       16 UNK        -0.5000 
     94 N          -5.1700  -25.9119  -50.7378 N.am      17 UNK        -0.5000 
     95 CA         -5.9159  -24.8726  -51.4528 C.3       17 UNK         0.1400 
     96 CB         -7.4395  -25.0611  -51.3027 C.3       17 UNK        -0.1800 
     97 C          -5.4877  -24.6700  -52.9211 C.2       17 UNK         0.5000 
     98 O          -6.1437  -23.9078  -53.6324 O.2       17 UNK        -0.5000 
     99 N          -4.3715  -25.2816  -53.3510 N.am      18 UNK        -0.5000 
    100 CA        -3.8034  -25.1220  -54.6971 C.3       18 UNK         0.1400 
    101 CB        -2.6794  -26.1465  -54.9062 C.3       18 UNK        -0.1800 
    102 C         -3.2900  -23.6956  -54.9844 C.2       18 UNK         0.5000 
    103 O         -3.1949  -23.3057  -56.1483 O.2       18 UNK        -0.5000 
    104 N         -3.0016  -22.9353  -53.9188 N.am      19 UNK        -0.5000 
    105 CA        -2.6484  -21.5156  -53.9611 C.3       19 UNK         0.1400 
    106 CB        -1.9412  -21.1519  -52.6471 C.3       19 UNK        -0.1800 
    107 C         -3.8588  -20.5846  -54.2064 C.2       19 UNK         0.5000 
    108 O         -3.6542  -19.3872  -54.4093 O.2       19 UNK        -0.5000 
    109 N         -5.0819  -21.1392  -54.1860 N.am      20 UNK        -0.5000 
    110 CA        -6.3714  -20.4710  -54.3766 C.3       20 UNK         0.1400 
    111 CB        -6.4892  -19.9040  -55.8102 C.3       20 UNK        -0.1800 
    112 C         -6.6776  -19.4481  -53.2605 C.2       20 UNK         0.5000 
    113 O         -6.3116  -19.6796  -52.1052 O.2       20 UNK        -0.5000 
    114 N         -7.3823  -18.3630  -53.6080 N.am      21 UNK        -0.5000 
    115 CA        -7.7722  -17.2758  -52.7123 C.3       21 UNK         0.1400 
    116 CB        -8.8924  -16.4596  -53.3804 C.3       21 UNK        -0.1800 
    117 C         -6.5580  -16.4014  -52.3471 C.2       21 UNK         0.5000 
    118 O         -6.2433  -15.4495  -53.0644 O.2       21 UNK        -0.5000 
    119 N         -5.8781  -16.7752  -51.2594 N.am      22 UNK        -0.5000 
    120 CA        -4.7010  -16.0897  -50.7132 C.3       22 UNK         0.1400 
    121 C         -5.0245  -14.6691  -50.1701 C.2       22 UNK         0.5000 
    122 N         -4.1675  -13.6889  -50.4207 N.am      22 UNK        -0.7600 
    123 O         -6.0306  -14.4584  -49.4960 O.2       22 UNK        -0.5000 
    124 C124       -4.0171  -16.9718  -49.6374 C.3       23 UNK        -0.0398 
    125 S125       -2.2153  -16.7165  -49.5625 S.3       23 UNK        -0.2404 
    126 C126       -1.6656  -17.8330  -50.8860 C.3       23 UNK        -0.0205 
    127 H127       -1.2851  -13.0232  -49.6106 H         1 UNK         0.0600 
    128 H128       -1.0204  -13.1322  -47.8684 H         1 UNK         0.0600 
    129 H129       -0.4648  -14.4324  -48.9268 H         1 UNK         0.0600 
    130 H130        1.5782  -14.2770  -49.8693 H         1 UNK         0.3000 
    131 H131        2.9535  -11.8968  -50.4505 H         1 UNK         0.0600 
    132 H132        3.5409  -13.7392  -51.7677 H         1 UNK         0.0800 
    133 H133        4.9537  -13.4733  -50.8107 H         1 UNK         0.0800 
    134 H134        3.9320  -16.8706  -52.1557 H         1 UNK         0.0800 
    135 H135        2.6476  -15.6986  -52.2580 H         1 UNK         0.0800 
    136 H136        0.4171  -16.1888  -51.4931 H         1 UNK         0.1150 
    137 H137       -0.4585  -20.1428  -50.1007 H         1 UNK         0.1150 
    138 H138        3.6123  -18.9440  -50.7104 H         1 UNK         0.1150 
    139 H139        1.2730  -21.8002  -50.0241 H         1 UNK         0.0800 
    140 H140        2.8433  -21.4259  -50.6694 H         1 UNK         0.0800 
    141 H141        0.8152  -19.8912  -47.7335 H         1 UNK         0.0800 
    142 H142        1.9026  -20.0696  -46.3997 H         1 UNK         0.0800 
    143 H143        1.3012  -22.5789  -46.3357 H         1 UNK         0.0600 
    144 H144       -0.2724  -20.3943  -45.3020 H         1 UNK         0.3000 
    145 H145       -2.3049  -22.2890  -43.1366 H         1 UNK         0.0600 
    146 H146       -1.2046  -20.9100  -41.3707 H         1 UNK         0.0600 
    147 H147       -0.1903  -22.2694  -41.8366 H         1 UNK         0.0600 
    148 H148        0.1825  -20.6560  -42.4277 H         1 UNK         0.0600 
    149 H149       -1.7939  -19.4757  -43.3964 H         1 UNK         0.3000 
    150 H150       -4.1694  -18.9002  -46.0305 H         1 UNK         0.0600 
    151 H151       -5.4040  -18.8815  -43.8586 H         1 UNK         0.0600 
    152 H152       -4.9243  -17.2578  -44.3266 H         1 UNK         0.0600 
    153 H153       -4.0321  -18.1144  -43.0690 H         1 UNK         0.0600 
    154 H154       -2.4380  -17.1034  -44.7126 H         1 UNK         0.3000 
    155 H155        0.0637  -17.1321  -47.2661 H         1 UNK         0.0600 
    156 H156       -1.3058  -15.4193  -45.1125 H         1 UNK         0.0600 
    157 H157       -1.6625  -15.3504  -46.8319 H         1 UNK         0.0600 
    158 H158       -0.0684  -14.8959  -46.2418 H         1 UNK         0.0600 
    159 H159        0.1604  -17.7645  -44.3802 H         1 UNK         0.3000 
    160 H160        2.7564  -18.9182  -44.3232 H         1 UNK         0.0600 
    161 H161        4.1753  -16.2744  -43.7670 H         1 UNK         0.0600 
    162 H162        4.6559  -17.3848  -45.0530 H         1 UNK         0.0600 
    163 H163        4.7333  -17.8914  -43.3758 H         1 UNK         0.0600 
    164 H164        1.5004  -16.6951  -42.8648 H         1 UNK         0.3000 
    165 H165        0.5422  -18.8963  -40.3527 H         1 UNK         0.0600 
    166 H166        1.3798  -17.3597  -38.5922 H         1 UNK         0.0600 
    167 H167        2.7023  -18.3286  -39.2194 H         1 UNK         0.0600 
    168 H168        2.5346  -16.6509  -39.7225 H         1 UNK         0.0600 
    169 H169        0.2171  -16.0994  -40.4024 H         1 UNK         0.3000 
    170 H170       -2.1777  -15.7527  -42.9575 H         1 UNK         0.0600 
    171 H171       -3.4960  -16.7338  -41.0643 H         1 UNK         0.0600 
    172 H172       -2.5856  -15.7516  -39.9246 H         1 UNK         0.0600 
    173 H173       -3.6270  -14.9845  -41.1238 H         1 UNK         0.0600 
    174 H174       -1.4285  -13.8472  -41.1030 H         1 UNK         0.3000 
    175 H175       -0.2497  -12.0889  -41.7605 H         1 UNK         0.0600 
    176 H176        2.5851  -13.2887  -41.6690 H         1 UNK         0.0600 
    177 H177        2.1233  -11.7089  -41.0397 H         1 UNK         0.0600 
    178 H178        1.4883  -13.1690  -40.2964 H         1 UNK         0.0600 
    179 H179        1.2008  -12.7590  -44.1921 H         1 UNK         0.3000 
    180 H180        0.4508  -10.4225  -45.8063 H         1 UNK         0.0600 
    181 H181        2.7900   -8.8089  -44.6648 H         1 UNK         0.0600 
    182 H182        1.1638   -8.2212  -44.9799 H         1 UNK         0.0600 
    183 H183        2.1924   -8.6965  -46.3201 H         1 UNK         0.0600 
    184 H184        1.9489  -11.7647  -46.6877 H         1 UNK         0.3000 
    185 H185        5.2783  -12.4731  -46.3379 H         1 UNK         0.0600 
    186 H186        4.7648  -13.9239  -44.4020 H         1 UNK         0.0600 
    187 H187        3.2464  -14.4244  -45.1374 H         1 UNK         0.0600 
    188 H188        4.7827  -14.8802  -45.8767 H         1 UNK         0.0600 
    189 H189        3.0078  -13.8775  -47.5281 H         1 UNK         0.3000 
    190 H190       -1.6279  -20.8077  -47.4334 H         1 UNK         0.3000 
    191 H191       -2.1740  -22.3620  -49.7278 H         1 UNK         0.0600 
    192 H192       -4.1355  -20.8565  -47.9161 H         1 UNK         0.0600 
    193 H193       -4.4246  -21.3437  -49.5831 H         1 UNK         0.0600 
    194 H194       -3.1981  -20.1379  -49.2182 H         1 UNK         0.0600 
    195 H195       -3.2030  -22.8197  -46.3203 H         1 UNK         0.3000 
    196 H196       -4.8010  -25.1272  -46.7248 H         1 UNK         0.0600 
    197 H197       -4.5142  -25.4587  -44.2805 H         1 UNK         0.0600 
    198 H198       -4.8497  -23.7721  -44.6421 H         1 UNK         0.0600 
    199 H199       -3.2096  -24.2813  -44.2473 H         1 UNK         0.0600 
    200 H200       -1.2915  -24.8346  -45.9272 H         1 UNK         0.3000 
    201 H201       -0.7035  -27.6094  -45.9094 H         1 UNK         0.0600 
    202 H202        0.7944  -25.8971  -44.9307 H         1 UNK         0.0600 
    203 H203        1.1058  -25.2131  -46.5244 H         1 UNK         0.0600 
    204 H204        1.6606  -26.8366  -46.1365 H         1 UNK         0.0600 
    205 H205       -0.8056  -25.2588  -48.5739 H         1 UNK         0.3000 
    206 H206        0.0641  -27.0846  -50.6396 H         1 UNK         0.0600 
    207 H207        0.3353  -24.5972  -50.7743 H         1 UNK         0.0600 
    208 H208       -0.5779  -25.2179  -52.1382 H         1 UNK         0.0600 
    209 H209       -1.4155  -24.4062  -50.8234 H         1 UNK         0.0600 
    210 H210       -2.7545  -27.1842  -48.8605 H         1 UNK         0.3000 
    211 H211       -4.7533  -28.0905  -49.0277 H         1 UNK         0.0600 
    212 H212       -3.7010  -29.5892  -51.4851 H         1 UNK         0.0600 
    213 H213       -5.0780  -30.0446  -50.4918 H         1 UNK         0.0600 
    214 H214       -3.4604  -30.0853  -49.8103 H         1 UNK         0.0600 
    215 H215       -4.5131  -25.5482  -50.0485 H         1 UNK         0.3000 
    216 H216       -5.6596  -23.9401  -50.9480 H         1 UNK         0.0600 
    217 H217       -7.9793  -24.1903  -51.6766 H         1 UNK         0.0600 
    218 H218       -7.7202  -25.1897  -50.2574 H         1 UNK         0.0600 
    219 H219       -7.8001  -25.9272  -51.8579 H         1 UNK         0.0600 
    220 H220       -3.8828  -25.9097  -52.7249 H         1 UNK         0.3000 
    221 H221       -4.5947  -25.3353  -55.4187 H         1 UNK         0.0600 
    222 H222       -1.8377  -25.9613  -54.2383 H         1 UNK         0.0600 
    223 H223       -3.0319  -27.1631  -54.7301 H         1 UNK         0.0600 
    224 H224       -2.3001  -26.1066  -55.9280 H         1 UNK         0.0600 
    225 H225       -3.1016  -23.3490  -53.0045 H         1 UNK         0.3000 
    226 H226       -1.9440  -21.3603  -54.7809 H         1 UNK         0.0600 
    227 H227       -1.1112  -21.8270  -52.4366 H         1 UNK         0.0600 
    228 H228       -1.5284  -20.1449  -52.7048 H         1 UNK         0.0600 
    229 H229       -2.6274  -21.1814  -51.8006 H         1 UNK         0.0600 
    230 H230       -5.1537  -22.1304  -53.9878 H         1 UNK         0.3000 
    231 H231       -7.1245  -21.2534  -54.2742 H         1 UNK         0.0600 
    232 H232       -6.2147  -20.6563  -56.5499 H         1 UNK         0.0600 
    233 H233       -5.8423  -19.0394  -55.9628 H         1 UNK         0.0600 
    234 H234       -7.5118  -19.5998  -56.0354 H         1 UNK         0.0600 
    235 H235       -7.6206  -18.2412  -54.5813 H         1 UNK         0.3000 
    236 H236       -8.1783  -17.7055  -51.7939 H         1 UNK         0.0600 
    237 H237       -9.2004  -15.6286  -52.7445 H         1 UNK         0.0600 
    238 H238       -8.5763  -16.0415  -54.3370 H         1 UNK         0.0600 
    239 H239       -9.7744  -17.0748  -53.5596 H         1 UNK         0.0600 
    240 H240       -6.1881  -17.5987  -50.7636 H         1 UNK         0.3000 
    241 H241       -4.0132  -15.9773  -51.5539 H         1 UNK         0.0600 
    242 H242       -4.3620  -12.7659  -50.0660 H         1 UNK         0.3800 
    243 H243       -3.3340  -13.8468  -50.9643 H         1 UNK         0.3800 
    244 H244       -4.4404  -16.7956  -48.6466 H         1 UNK         0.0800 
    245 H245       -4.1942  -18.0289  -49.8378 H         1 UNK         0.0800 
    246 H246       -1.8917  -17.3864  -51.8553 H         1 UNK         0.0800 
    247 H247       -2.2336  -18.7614  -50.8395 H         1 UNK         0.0800 
@<TRIPOS>BOND
     1    1    2 1    
     2    1  127 1    
     3    1  128 1    
     4    1  129 1    
     5    2    3 2    
     6    2    4 am   BACKBONE|DICT|INTERRES
     7    4    5 1    
     8    4  130 1    
     9    5    6 1    
    10    5   65 1    
    11    5  131 1    
    12    6    7 1    
    13    6  132 1    
    14    6  133 1    
    15    7    8 1    
    16    8    9 1    
    17    8  134 1    
    18    8  135 1    
    19    9   10 ar   
    20    9   14 ar   
    21   10   11 ar   
    22   10  136 1    
    23   11   12 ar   
    24   11  126 1    
    25   12   13 ar   
    26   12  137 1    
    27   13   14 ar   
    28   13   15 1    
    29   14  138 1    
    30   15   16 1    
    31   15  139 1    
    32   15  140 1    
    33   16   17 1    
    34   17   18 1    
    35   17  141 1    
    36   17  142 1    
    37   18   19 1    
    38   18   67 1    
    39   18  143 1    
    40   19   20 am   BACKBONE|DICT|INTERRES
    41   19  144 1    
    42   20   21 2    
    43   20   22 1    
    44   22   23 1    
    45   22   24 1    
    46   22  145 1    
    47   23  146 1    
    48   23  147 1    
    49   23  148 1    
    50   24   25 am   BACKBONE|DICT|INTERRES
    51   24  149 1    
    52   25   26 2    
    53   25   27 1    
    54   27   28 1    
    55   27   29 1    
    56   27  150 1    
    57   28  151 1    
    58   28  152 1    
    59   28  153 1    
    60   29   30 am   BACKBONE|DICT|INTERRES
    61   29  154 1    
    62   30   31 2    
    63   30   32 1    
    64   32   33 1    
    65   32   34 1    
    66   32  155 1    
    67   33  156 1    
    68   33  157 1    
    69   33  158 1    
    70   34   35 am   BACKBONE|DICT|INTERRES
    71   34  159 1    
    72   35   36 2    
    73   35   37 1    
    74   37   38 1    
    75   37   39 1    
    76   37  160 1    
    77   38  161 1    
    78   38  162 1    
    79   38  163 1    
    80   39   40 am   BACKBONE|DICT|INTERRES
    81   39  164 1    
    82   40   41 2    
    83   40   42 1    
    84   42   43 1    
    85   42   44 1    
    86   42  165 1    
    87   43  166 1    
    88   43  167 1    
    89   43  168 1    
    90   44   45 am   BACKBONE|DICT|INTERRES
    91   44  169 1    
    92   45   46 2    
    93   45   47 1    
    94   47   48 1    
    95   47   49 1    
    96   47  170 1    
    97   48  171 1    
    98   48  172 1    
    99   48  173 1    
   100   49   50 am   BACKBONE|DICT|INTERRES
   101   49  174 1    
   102   50   51 2    
   103   50   52 1    
   104   52   53 1    
   105   52   54 1    
   106   52  175 1    
   107   53  176 1    
   108   53  177 1    
   109   53  178 1    
   110   54   55 am   BACKBONE|DICT|INTERRES
   111   54  179 1    
   112   55   56 2    
   113   55   57 1    
   114   57   58 1    
   115   57   59 1    
   116   57  180 1    
   117   58  181 1    
   118   58  182 1    
   119   58  183 1    
   120   59   60 am   BACKBONE|DICT|INTERRES
   121   59  184 1    
   122   60   61 2    
   123   60   62 1    
   124   62   63 1    
   125   62   64 1    
   126   62  185 1    
   127   63  186 1    
   128   63  187 1    
   129   63  188 1    
   130   64   65 am   BACKBONE|DICT|INTERRES
   131   64  189 1    
   132   65   66 2    
   133   67   68 2    
   134   67   69 am   BACKBONE|DICT|INTERRES
   135   69   70 1    
   136   69  190 1    
   137   70   71 1    
   138   70   72 1    
   139   70  191 1    
   140   71  192 1    
   141   71  193 1    
   142   71  194 1    
   143   72   73 2    
   144   72   74 am   BACKBONE|DICT|INTERRES
   145   74   75 1    
   146   74  195 1    
   147   75   76 1    
   148   75   77 1    
   149   75  196 1    
   150   76  197 1    
   151   76  198 1    
   152   76  199 1    
   153   77   78 2    
   154   77   79 am   BACKBONE|DICT|INTERRES
   155   79   80 1    
   156   79  200 1    
   157   80   81 1    
   158   80   82 1    
   159   80  201 1    
   160   81  202 1    
   161   81  203 1    
   162   81  204 1    
   163   82   83 2    
   164   82   84 am   BACKBONE|DICT|INTERRES
   165   84   85 1    
   166   84  205 1    
   167   85   86 1    
   168   85   87 1    
   169   85  206 1    
   170   86  207 1    
   171   86  208 1    
   172   86  209 1    
   173   87   88 2    
   174   87   89 am   BACKBONE|DICT|INTERRES
   175   89   90 1    
   176   89  210 1    
   177   90   91 1    
   178   90   92 1    
   179   90  211 1    
   180   91  212 1    
   181   91  213 1    
   182   91  214 1    
   183   92   93 2    
   184   92   94 am   BACKBONE|DICT|INTERRES
   185   94   95 1    
   186   94  215 1    
   187   95   96 1    
   188   95   97 1    
   189   95  216 1    
   190   96  217 1    
   191   96  218 1    
   192   96  219 1    
   193   97   98 2    
   194   97   99 am   BACKBONE|DICT|INTERRES
   195   99  100 1    
   196   99  220 1    
   197  100  101 1    
   198  100  102 1    
   199  100  221 1    
   200  101  222 1    
   201  101  223 1    
   202  101  224 1    
   203  102  103 2    
   204  102  104 am   BACKBONE|DICT|INTERRES
   205  104  105 1    
   206  104  225 1    
   207  105  106 1    
   208  105  107 1    
   209  105  226 1    
   210  106  227 1    
   211  106  228 1    
   212  106  229 1    
   213  107  108 2    
   214  107  109 am   BACKBONE|DICT|INTERRES
   215  109  110 1    
   216  109  230 1    
   217  110  111 1    
   218  110  112 1    
   219  110  231 1    
   220  111  232 1    
   221  111  233 1    
   222  111  234 1    
   223  112  113 2    
   224  112  114 am   BACKBONE|DICT|INTERRES
   225  114  115 1    
   226  114  235 1    
   227  115  116 1    
   228  115  117 1    
   229  115  236 1    
   230  116  237 1    
   231  116  238 1    
   232  116  239 1    
   233  117  118 2    
   234  117  119 am   BACKBONE|DICT|INTERRES
   235  119  120 1    
   236  119  240 1    
   237  120  121 1    
   238  120  124 1    
   239  120  241 1    
   240  121  122 am   BACKBONE|DICT|INTERRES
   241  121  123 2    
   242  122  242 1    
   243  122  243 1    
   244  124  125 1    
   245  124  244 1    
   246  124  245 1    
   247  125  126 1    
   248  126  246 1    
   249  126  247 1    
@<TRIPOS>SUBSTRUCTURE
     1 UNK         1 GROUP             0       ****    0 ROOT    
