@<TRIPOS>MOLECULE
3R540
247   249    1
SMALL
USER_CHARGES


@<TRIPOS>ATOM
      1 CA         -2.8496  -11.1750  -47.8203 C.3       0 UNK        -0.1800 
      2 C          -3.8947  -11.8530  -48.7045 C.2       0 UNK         0.5000 
      3 O          -4.9898  -11.3182  -48.8615 O.2       0 UNK        -0.5000 
      4 N          -3.6115  -13.0167  -49.3076 N.am      1 UNK        -0.5000 
      5 CA         -2.3812  -13.8064  -49.1686 C.3       1 UNK         0.1400 
      6 C6         -2.2016  -14.7775  -50.3628 C.3       23 UNK        -0.0398 
      7 S7         -0.4578  -15.1896  -50.7025 S.3       23 UNK        -0.2404 
      8 C8         -0.3118  -16.8077  -49.8890 C.3       23 UNK        -0.0205 
      9 C9          0.9956  -17.4882  -50.2537 C.ar      23 UNK        -0.0193 
     10 C10         1.0788  -18.2706  -51.4072 C.ar      23 UNK        -0.1150 
     11 C11         2.2711  -18.9063  -51.7624 C.ar      23 UNK        -0.0193 
     12 C12         3.3852  -18.7726  -50.9275 C.ar      23 UNK        -0.1150 
     13 C13         3.3034  -18.0250  -49.7472 C.ar      23 UNK        -0.0193 
     14 C14         2.1145  -17.3628  -49.4291 C.ar      23 UNK        -0.1150 
     15 C15         4.4879  -17.9584  -48.7972 C.3       23 UNK        -0.0205 
     16 S16         4.7367  -19.5306  -47.9069 S.3       23 UNK        -0.2404 
     17 C17         3.2137  -19.6944  -46.9091 C.3       23 UNK        -0.0398 
     18 CA          2.4288  -21.0002  -47.2328 C.3       11 UNK         0.1400 
     19 N           2.1277  -21.7752  -46.0253 N.am      11 UNK        -0.5000 
     20 C           1.7218  -23.0538  -46.0173 C.2       10 UNK         0.5000 
     21 O           1.6283  -23.7474  -47.0292 O.2       10 UNK        -0.5000 
     22 CA          1.3364  -23.6643  -44.6547 C.3       10 UNK         0.1400 
     23 CB          2.4651  -24.5679  -44.1360 C.3       10 UNK        -0.1800 
     24 N           1.0075  -22.6860  -43.6152 N.am      10 UNK        -0.5000 
     25 C           0.0327  -21.7698  -43.6508 C.2       9 UNK         0.5000 
     26 O          -0.7046  -21.6012  -44.6235 O.2       9 UNK        -0.5000 
     27 CA         -0.0984  -20.8466  -42.4239 C.3       9 UNK         0.1400 
     28 CB         -0.9111  -21.5125  -41.2993 C.3       9 UNK        -0.1800 
     29 N           1.1847  -20.3224  -41.9343 N.am      9 UNK        -0.5000 
     30 C           2.2107  -20.9586  -41.3477 C.2       8 UNK         0.5000 
     31 O           2.2111  -22.1624  -41.0890 O.2       8 UNK        -0.5000 
     32 CA          3.4662  -20.1248  -41.0380 C.3       8 UNK         0.1400 
     33 CB          4.4272  -20.1651  -42.2373 C.3       8 UNK        -0.1800 
     34 N           3.1369  -18.7290  -40.7438 N.am      8 UNK        -0.5000 
     35 C           3.3611  -18.1086  -39.5776 C.2       7 UNK         0.5000 
     36 O           3.9193  -18.6371  -38.6150 O.2       7 UNK        -0.5000 
     37 CA          2.8774  -16.6469  -39.4562 C.3       7 UNK         0.1400 
     38 CB          4.0128  -15.6752  -39.8120 C.3       7 UNK        -0.1800 
     39 N           1.7150  -16.3437  -40.2940 N.am      7 UNK        -0.5000 
     40 C           0.4989  -16.8847  -40.1396 C.2       6 UNK         0.5000 
     41 O           0.1995  -17.6258  -39.2029 O.2       6 UNK        -0.5000 
     42 CA         -0.5627  -16.5711  -41.2142 C.3       6 UNK         0.1400 
     43 CB         -1.5044  -15.4672  -40.7070 C.3       6 UNK        -0.1800 
     44 N          -0.0664  -16.1910  -42.5443 N.am      6 UNK        -0.5000 
     45 C           0.8494  -16.8221  -43.2938 C.2       5 UNK         0.5000 
     46 O           1.5158  -17.7789  -42.9030 O.2       5 UNK        -0.5000 
     47 CA          1.0544  -16.3298  -44.7360 C.3       5 UNK         0.1400 
     48 CB          0.3429  -17.2866  -45.6996 C.3       5 UNK        -0.1800 
     49 N           0.5757  -14.9696  -44.9791 N.am      5 UNK        -0.5000 
     50 C           1.1329  -13.8560  -44.4832 C.2       4 UNK         0.5000 
     51 O           2.1312  -13.8507  -43.7625 O.2       4 UNK        -0.5000 
     52 CA          0.4313  -12.5322  -44.8278 C.3       4 UNK         0.1400 
     53 CB          0.8390  -12.0408  -46.2261 C.3       4 UNK        -0.1800 
     54 N          -1.0228  -12.6792  -44.7678 N.am      4 UNK        -0.5000 
     55 C          -1.7460  -12.5964  -43.6423 C.2       3 UNK         0.5000 
     56 O          -1.2661  -12.3268  -42.5415 O.2       3 UNK        -0.5000 
     57 CA         -3.2591  -12.8697  -43.7585 C.3       3 UNK         0.1400 
     58 CB         -4.0319  -11.5535  -43.9338 C.3       3 UNK        -0.1800 
     59 N          -3.6045  -13.7770  -44.8553 N.am      3 UNK        -0.5000 
     60 C          -3.3051  -15.0830  -44.8817 C.2       2 UNK         0.5000 
     61 O          -2.7144  -15.6683  -43.9763 O.2       2 UNK        -0.5000 
     62 CA         -3.6804  -15.8523  -46.1605 C.3       2 UNK         0.1400 
     63 CB         -5.1202  -16.3791  -46.0802 C.3       2 UNK        -0.1800 
     64 N          -3.5152  -15.0684  -47.3883 N.am      2 UNK        -0.5000 
     65 C          -2.3513  -14.5640  -47.8248 C.2       1 UNK         0.5000 
     66 O          -1.2995  -14.6415  -47.1901 O.2       1 UNK        -0.5000 
     67 C           1.1565  -20.7435  -48.0751 C.2       11 UNK         0.5000 
     68 O           1.2159  -20.8542  -49.2967 O.2       11 UNK        -0.5000 
     69 N           0.0228  -20.4618  -47.4109 N.am      12 UNK        -0.5000 
     70 CA         -1.2961  -20.3510  -48.0457 C.3       12 UNK         0.1400 
     71 CB         -2.1602  -19.3476  -47.2695 C.3       12 UNK        -0.1800 
     72 C          -2.0046  -21.7142  -48.1478 C.2       12 UNK         0.5000 
     73 O          -2.7446  -21.9371  -49.1091 O.2       12 UNK        -0.5000 
     74 N          -1.7176  -22.6002  -47.1830 N.am      13 UNK        -0.5000 
     75 CA         -2.1441  -23.9965  -47.0654 C.3       13 UNK         0.1400 
     76 CB         -1.7339  -24.8075  -48.3131 C.3       13 UNK        -0.1800 
     77 C          -3.6389  -24.1705  -46.7357 C.2       13 UNK         0.5000 
     78 O          -4.4091  -23.2060  -46.7192 O.2       13 UNK        -0.5000 
     79 N          -4.0168  -25.4255  -46.4555 N.am      14 UNK        -0.5000 
     80 CA         -5.3871  -25.8533  -46.1757 C.3       14 UNK         0.1400 
     81 CB         -5.3889  -27.3497  -45.8294 C.3       14 UNK        -0.1800 
     82 C          -6.3189  -25.5715  -47.3664 C.2       14 UNK         0.5000 
     83 O          -5.9310  -25.8075  -48.5131 O.2       14 UNK        -0.5000 
     84 N          -7.5086  -25.0318  -47.0683 N.am      15 UNK        -0.5000 
     85 CA         -8.5394  -24.5933  -48.0198 C.3       15 UNK         0.1400 
     86 CB         -9.1498  -25.8079  -48.7508 C.3       15 UNK        -0.1800 
     87 C          -8.0657  -23.4941  -49.0005 C.2       15 UNK         0.5000 
     88 O          -8.6803  -23.3184  -50.0537 O.2       15 UNK        -0.5000 
     89 N          -6.9836  -22.7817  -48.6408 N.am      16 UNK        -0.5000 
     90 CA         -6.2913  -21.7554  -49.4275 C.3       16 UNK         0.1400 
     91 CB         -7.2079  -20.5292  -49.6334 C.3       16 UNK        -0.1800 
     92 C          -5.6996  -22.3012  -50.7479 C.2       16 UNK         0.5000 
     93 O          -5.6048  -21.5624  -51.7290 O.2       16 UNK        -0.5000 
     94 N          -5.3218  -23.5891  -50.7613 N.am      17 UNK        -0.5000 
     95 CA         -4.8670  -24.3135  -51.9494 C.3       17 UNK         0.1400 
     96 CB         -4.6742  -25.7962  -51.5992 C.3       17 UNK        -0.1800 
     97 C          -3.5917  -23.7396  -52.5920 C.2       17 UNK         0.5000 
     98 O          -3.5289  -23.6292  -53.8173 O.2       17 UNK        -0.5000 
     99 N          -2.6071  -23.3622  -51.7662 N.am      18 UNK        -0.5000 
    100 CA        -1.3635  -22.7565  -52.2399 C.3       18 UNK         0.1400 
    101 CB        -0.2230  -23.0275  -51.2529 C.3       18 UNK        -0.1800 
    102 C         -1.5406  -21.2575  -52.5312 C.2       18 UNK         0.5000 
    103 O         -0.9438  -20.7591  -53.4832 O.2       18 UNK        -0.5000 
    104 N         -2.4141  -20.5759  -51.7750 N.am      19 UNK        -0.5000 
    105 CA        -2.8294  -19.1957  -52.0451 C.3       19 UNK         0.1400 
    106 CB        -3.7312  -18.6854  -50.9144 C.3       19 UNK        -0.1800 
    107 C         -3.4984  -19.0272  -53.4224 C.2       19 UNK         0.5000 
    108 O         -3.2499  -18.0271  -54.0955 O.2       19 UNK        -0.5000 
    109 N         -4.2842  -20.0302  -53.8369 N.am      20 UNK        -0.5000 
    110 CA        -4.8312  -20.1459  -55.1863 C.3       20 UNK         0.1400 
    111 CB        -5.9115  -21.2377  -55.2124 C.3       20 UNK        -0.1800 
    112 C         -3.7385  -20.4181  -56.2394 C.2       20 UNK         0.5000 
    113 O         -3.7313  -19.7605  -57.2805 O.2       20 UNK        -0.5000 
    114 N         -2.8223  -21.3550  -55.9479 N.am      21 UNK        -0.5000 
    115 CA        -1.7212  -21.7548  -56.8341 C.3       21 UNK         0.1400 
    116 CB        -0.9887  -22.9684  -56.2430 C.3       21 UNK        -0.1800 
    117 C         -0.7254  -20.6184  -57.1435 C.2       21 UNK         0.5000 
    118 O         -0.2978  -20.4860  -58.2910 O.2       21 UNK        -0.5000 
    119 N         -0.4061  -19.8018  -56.1317 N.am      22 UNK        -0.5000 
    120 CA         0.3656  -18.5528  -56.2656 C.3       22 UNK         0.1400 
    121 C         -0.4132  -17.3824  -56.9466 C.2       22 UNK         0.5000 
    122 N         -1.6914  -17.5115  -57.2829 N.am      22 UNK        -0.7600 
    123 O          0.1657  -16.3285  -57.1964 O.2       22 UNK        -0.5000 
    124 C124        0.9767  -18.1103  -54.9051 C.3       23 UNK        -0.0398 
    125 S125        2.5959  -18.8872  -54.5530 S.3       23 UNK        -0.2404 
    126 C126        2.3323  -19.8007  -52.9964 C.3       23 UNK        -0.0205 
    127 H127       -2.5803  -11.8046  -46.9754 H         1 UNK         0.0600 
    128 H128       -3.2374  -10.2370  -47.4222 H         1 UNK         0.0600 
    129 H129       -1.9491  -10.9441  -48.3892 H         1 UNK         0.0600 
    130 H130       -4.3181  -13.4193  -49.9069 H         1 UNK         0.3000 
    131 H131       -1.5377  -13.1135  -49.1739 H         1 UNK         0.0600 
    132 H132       -2.7968  -15.6846  -50.2456 H         1 UNK         0.0800 
    133 H133       -2.5729  -14.3068  -51.2745 H         1 UNK         0.0800 
    134 H134       -1.1465  -17.4455  -50.1738 H         1 UNK         0.0800 
    135 H135       -0.3827  -16.6769  -48.8101 H         1 UNK         0.0800 
    136 H136        0.2037  -18.3993  -52.0177 H         1 UNK         0.1150 
    137 H137        4.3048  -19.2858  -51.1709 H         1 UNK         0.1150 
    138 H138        2.0520  -16.7694  -48.5284 H         1 UNK         0.1150 
    139 H139        4.3650  -17.1498  -48.0748 H         1 UNK         0.0800 
    140 H140        5.3902  -17.7266  -49.3647 H         1 UNK         0.0800 
    141 H141        2.5957  -18.8030  -47.0195 H         1 UNK         0.0800 
    142 H142        3.5332  -19.6847  -45.8661 H         1 UNK         0.0800 
    143 H143        3.0673  -21.6434  -47.8429 H         1 UNK         0.0600 
    144 H144        2.1881  -21.2931  -45.1416 H         1 UNK         0.3000 
    145 H145        0.4507  -24.2812  -44.8157 H         1 UNK         0.0600 
    146 H146        2.1705  -25.0810  -43.2203 H         1 UNK         0.0600 
    147 H147        2.7231  -25.3346  -44.8680 H         1 UNK         0.0600 
    148 H148        3.3700  -23.9969  -43.9240 H         1 UNK         0.0600 
    149 H149        1.5563  -22.7302  -42.7603 H         1 UNK         0.3000 
    150 H150       -0.6605  -19.9719  -42.7554 H         1 UNK         0.0600 
    151 H151       -0.4326  -22.4188  -40.9276 H         1 UNK         0.0600 
    152 H152       -1.9045  -21.7916  -41.6525 H         1 UNK         0.0600 
    153 H153       -1.0439  -20.8334  -40.4569 H         1 UNK         0.0600 
    154 H154        1.3351  -19.3450  -42.1766 H         1 UNK         0.3000 
    155 H155        3.9627  -20.5927  -40.1856 H         1 UNK         0.0600 
    156 H156        3.9870  -19.7042  -43.1226 H         1 UNK         0.0600 
    157 H157        4.6907  -21.1917  -42.4957 H         1 UNK         0.0600 
    158 H158        5.3550  -19.6383  -42.0135 H         1 UNK         0.0600 
    159 H159        2.6536  -18.2168  -41.4759 H         1 UNK         0.3000 
    160 H160        2.5956  -16.4784  -38.4148 H         1 UNK         0.0600 
    161 H161        4.3206  -15.7808  -40.8532 H         1 UNK         0.0600 
    162 H162        4.8906  -15.8548  -39.1898 H         1 UNK         0.0600 
    163 H163        3.7104  -14.6398  -39.6542 H         1 UNK         0.0600 
    164 H164        1.8722  -15.7475  -41.0938 H         1 UNK         0.3000 
    165 H165       -1.1495  -17.4817  -41.3493 H         1 UNK         0.0600 
    166 H166       -2.3574  -15.3343  -41.3714 H         1 UNK         0.0600 
    167 H167       -0.9898  -14.5089  -40.6270 H         1 UNK         0.0600 
    168 H168       -1.9029  -15.7099  -39.7209 H         1 UNK         0.0600 
    169 H169       -0.5919  -15.4587  -43.0022 H         1 UNK         0.3000 
    170 H170        2.1256  -16.3600  -44.9454 H         1 UNK         0.0600 
    171 H171        0.6719  -18.3150  -45.5495 H         1 UNK         0.0600 
    172 H172       -0.7363  -17.2633  -45.5497 H         1 UNK         0.0600 
    173 H173        0.5462  -17.0252  -46.7356 H         1 UNK         0.0600 
    174 H174       -0.2096  -14.8759  -45.6166 H         1 UNK         0.3000 
    175 H175        0.7487  -11.7807  -44.1015 H         1 UNK         0.0600 
    176 H176        0.5723  -12.7550  -47.0055 H         1 UNK         0.0600 
    177 H177        0.3596  -11.0913  -46.4647 H         1 UNK         0.0600 
    178 H178        1.9168  -11.8840  -46.2828 H         1 UNK         0.0600 
    179 H179       -1.4806  -12.9717  -45.6184 H         1 UNK         0.3000 
    180 H180       -3.5814  -13.3315  -42.8226 H         1 UNK         0.0600 
    181 H181       -3.7619  -11.0449  -44.8596 H         1 UNK         0.0600 
    182 H182       -3.8248  -10.8676  -43.1113 H         1 UNK         0.0600 
    183 H183       -5.1082  -11.7264  -43.9467 H         1 UNK         0.0600 
    184 H184       -4.1052  -13.3819  -45.6370 H         1 UNK         0.3000 
    185 H185       -3.0125  -16.7115  -46.2246 H         1 UNK         0.0600 
    186 H186       -5.3560  -17.0128  -46.9354 H         1 UNK         0.0600 
    187 H187       -5.2660  -16.9812  -45.1823 H         1 UNK         0.0600 
    188 H188       -5.8466  -15.5660  -46.0526 H         1 UNK         0.0600 
    189 H189       -4.3438  -14.9288  -47.9480 H         1 UNK         0.3000 
    190 H190        0.0340  -20.4682  -46.3999 H         1 UNK         0.3000 
    191 H191       -1.1784  -19.9712  -49.0631 H         1 UNK         0.0600 
    192 H192       -3.1906  -19.3492  -47.6276 H         1 UNK         0.0600 
    193 H193       -1.7772  -18.3368  -47.3985 H         1 UNK         0.0600 
    194 H194       -2.1850  -19.5724  -46.2025 H         1 UNK         0.0600 
    195 H195       -1.1878  -22.2560  -46.3892 H         1 UNK         0.3000 
    196 H196       -1.5909  -24.3941  -46.2139 H         1 UNK         0.0600 
    197 H197       -2.3482  -24.5607  -49.1780 H         1 UNK         0.0600 
    198 H198       -0.6915  -24.6263  -48.5758 H         1 UNK         0.0600 
    199 H199       -1.8375  -25.8791  -48.1415 H         1 UNK         0.0600 
    200 H200       -3.3294  -26.1622  -46.5095 H         1 UNK         0.3000 
    201 H201       -5.7387  -25.2945  -45.3059 H         1 UNK         0.0600 
    202 H202       -5.0215  -27.9549  -46.6593 H         1 UNK         0.0600 
    203 H203       -6.3966  -27.6943  -45.5934 H         1 UNK         0.0600 
    204 H204       -4.7641  -27.5556  -44.9601 H         1 UNK         0.0600 
    205 H205       -7.7247  -24.8613  -46.0955 H         1 UNK         0.3000 
    206 H206       -9.3301  -24.1382  -47.4218 H         1 UNK         0.0600 
    207 H207       -9.4796  -26.5692  -48.0438 H         1 UNK         0.0600 
    208 H208      -10.0208  -25.5159  -49.3385 H         1 UNK         0.0600 
    209 H209       -8.4363  -26.2703  -49.4336 H         1 UNK         0.0600 
    210 H210       -6.5303  -23.0221  -47.7682 H         1 UNK         0.3000 
    211 H211       -5.4403  -21.4338  -48.8257 H         1 UNK         0.0600 
    212 H212       -6.6676  -19.6910  -50.0689 H         1 UNK         0.0600 
    213 H213       -7.6212  -20.1839  -48.6858 H         1 UNK         0.0600 
    214 H214       -8.0408  -20.7526  -50.3003 H         1 UNK         0.0600 
    215 H215       -5.4487  -24.1395  -49.9203 H         1 UNK         0.3000 
    216 H216       -5.6624  -24.2448  -52.6944 H         1 UNK         0.0600 
    217 H217       -3.9412  -25.9301  -50.8027 H         1 UNK         0.0600 
    218 H218       -4.3289  -26.3630  -52.4649 H         1 UNK         0.0600 
    219 H219       -5.6107  -26.2468  -51.2698 H         1 UNK         0.0600 
    220 H220       -2.7596  -23.3807  -50.7653 H         1 UNK         0.3000 
    221 H221       -1.0795  -23.2360  -53.1778 H         1 UNK         0.0600 
    222 H222       -0.0332  -24.0963  -51.1554 H         1 UNK         0.0600 
    223 H223       -0.4410  -22.6390  -50.2623 H         1 UNK         0.0600 
    224 H224        0.7038  -22.5605  -51.5888 H         1 UNK         0.0600 
    225 H225       -2.8608  -21.0564  -51.0026 H         1 UNK         0.3000 
    226 H226       -1.9365  -18.5747  -52.0600 H         1 UNK         0.0600 
    227 H227       -4.6180  -19.3036  -50.8088 H         1 UNK         0.0600 
    228 H228       -3.2098  -18.6848  -49.9590 H         1 UNK         0.0600 
    229 H229       -4.0637  -17.6650  -51.1073 H         1 UNK         0.0600 
    230 H230       -4.5104  -20.7732  -53.1823 H         1 UNK         0.3000 
    231 H231       -5.3083  -19.1967  -55.4391 H         1 UNK         0.0600 
    232 H232       -5.5077  -22.2150  -54.9482 H         1 UNK         0.0600 
    233 H233       -6.3562  -21.3231  -56.2046 H         1 UNK         0.0600 
    234 H234       -6.7161  -21.0110  -54.5126 H         1 UNK         0.0600 
    235 H235       -2.9084  -21.8622  -55.0761 H         1 UNK         0.3000 
    236 H236       -2.1697  -22.0645  -57.7802 H         1 UNK         0.0600 
    237 H237       -1.6812  -23.7753  -56.0029 H         1 UNK         0.0600 
    238 H238       -0.2617  -23.3638  -56.9533 H         1 UNK         0.0600 
    239 H239       -0.4438  -22.7069  -55.3367 H         1 UNK         0.0600 
    240 H240       -0.7565  -20.0230  -55.2027 H         1 UNK         0.3000 
    241 H241        1.1918  -18.7567  -56.9492 H         1 UNK         0.0600 
    242 H242       -2.1610  -16.7378  -57.7251 H         1 UNK         0.3800 
    243 H243       -2.2000  -18.3714  -57.1193 H         1 UNK         0.3800 
    244 H244        0.2627  -18.3123  -54.1117 H         1 UNK         0.0800 
    245 H245        1.1530  -17.0339  -54.8691 H         1 UNK         0.0800 
    246 H246        3.1489  -20.5153  -52.8842 H         1 UNK         0.0800 
    247 H247        1.4331  -20.4056  -53.0673 H         1 UNK         0.0800 
@<TRIPOS>BOND
     1    1    2 1    
     2    1  127 1    
     3    1  128 1    
     4    1  129 1    
     5    2    3 2    
     6    2    4 am   BACKBONE|DICT|INTERRES
     7    4    5 1    
     8    4  130 1    
     9    5    6 1    
    10    5   65 1    
    11    5  131 1    
    12    6    7 1    
    13    6  132 1    
    14    6  133 1    
    15    7    8 1    
    16    8    9 1    
    17    8  134 1    
    18    8  135 1    
    19    9   10 ar   
    20    9   14 ar   
    21   10   11 ar   
    22   10  136 1    
    23   11   12 ar   
    24   11  126 1    
    25   12   13 ar   
    26   12  137 1    
    27   13   14 ar   
    28   13   15 1    
    29   14  138 1    
    30   15   16 1    
    31   15  139 1    
    32   15  140 1    
    33   16   17 1    
    34   17   18 1    
    35   17  141 1    
    36   17  142 1    
    37   18   19 1    
    38   18   67 1    
    39   18  143 1    
    40   19   20 am   BACKBONE|DICT|INTERRES
    41   19  144 1    
    42   20   21 2    
    43   20   22 1    
    44   22   23 1    
    45   22   24 1    
    46   22  145 1    
    47   23  146 1    
    48   23  147 1    
    49   23  148 1    
    50   24   25 am   BACKBONE|DICT|INTERRES
    51   24  149 1    
    52   25   26 2    
    53   25   27 1    
    54   27   28 1    
    55   27   29 1    
    56   27  150 1    
    57   28  151 1    
    58   28  152 1    
    59   28  153 1    
    60   29   30 am   BACKBONE|DICT|INTERRES
    61   29  154 1    
    62   30   31 2    
    63   30   32 1    
    64   32   33 1    
    65   32   34 1    
    66   32  155 1    
    67   33  156 1    
    68   33  157 1    
    69   33  158 1    
    70   34   35 am   BACKBONE|DICT|INTERRES
    71   34  159 1    
    72   35   36 2    
    73   35   37 1    
    74   37   38 1    
    75   37   39 1    
    76   37  160 1    
    77   38  161 1    
    78   38  162 1    
    79   38  163 1    
    80   39   40 am   BACKBONE|DICT|INTERRES
    81   39  164 1    
    82   40   41 2    
    83   40   42 1    
    84   42   43 1    
    85   42   44 1    
    86   42  165 1    
    87   43  166 1    
    88   43  167 1    
    89   43  168 1    
    90   44   45 am   BACKBONE|DICT|INTERRES
    91   44  169 1    
    92   45   46 2    
    93   45   47 1    
    94   47   48 1    
    95   47   49 1    
    96   47  170 1    
    97   48  171 1    
    98   48  172 1    
    99   48  173 1    
   100   49   50 am   BACKBONE|DICT|INTERRES
   101   49  174 1    
   102   50   51 2    
   103   50   52 1    
   104   52   53 1    
   105   52   54 1    
   106   52  175 1    
   107   53  176 1    
   108   53  177 1    
   109   53  178 1    
   110   54   55 am   BACKBONE|DICT|INTERRES
   111   54  179 1    
   112   55   56 2    
   113   55   57 1    
   114   57   58 1    
   115   57   59 1    
   116   57  180 1    
   117   58  181 1    
   118   58  182 1    
   119   58  183 1    
   120   59   60 am   BACKBONE|DICT|INTERRES
   121   59  184 1    
   122   60   61 2    
   123   60   62 1    
   124   62   63 1    
   125   62   64 1    
   126   62  185 1    
   127   63  186 1    
   128   63  187 1    
   129   63  188 1    
   130   64   65 am   BACKBONE|DICT|INTERRES
   131   64  189 1    
   132   65   66 2    
   133   67   68 2    
   134   67   69 am   BACKBONE|DICT|INTERRES
   135   69   70 1    
   136   69  190 1    
   137   70   71 1    
   138   70   72 1    
   139   70  191 1    
   140   71  192 1    
   141   71  193 1    
   142   71  194 1    
   143   72   73 2    
   144   72   74 am   BACKBONE|DICT|INTERRES
   145   74   75 1    
   146   74  195 1    
   147   75   76 1    
   148   75   77 1    
   149   75  196 1    
   150   76  197 1    
   151   76  198 1    
   152   76  199 1    
   153   77   78 2    
   154   77   79 am   BACKBONE|DICT|INTERRES
   155   79   80 1    
   156   79  200 1    
   157   80   81 1    
   158   80   82 1    
   159   80  201 1    
   160   81  202 1    
   161   81  203 1    
   162   81  204 1    
   163   82   83 2    
   164   82   84 am   BACKBONE|DICT|INTERRES
   165   84   85 1    
   166   84  205 1    
   167   85   86 1    
   168   85   87 1    
   169   85  206 1    
   170   86  207 1    
   171   86  208 1    
   172   86  209 1    
   173   87   88 2    
   174   87   89 am   BACKBONE|DICT|INTERRES
   175   89   90 1    
   176   89  210 1    
   177   90   91 1    
   178   90   92 1    
   179   90  211 1    
   180   91  212 1    
   181   91  213 1    
   182   91  214 1    
   183   92   93 2    
   184   92   94 am   BACKBONE|DICT|INTERRES
   185   94   95 1    
   186   94  215 1    
   187   95   96 1    
   188   95   97 1    
   189   95  216 1    
   190   96  217 1    
   191   96  218 1    
   192   96  219 1    
   193   97   98 2    
   194   97   99 am   BACKBONE|DICT|INTERRES
   195   99  100 1    
   196   99  220 1    
   197  100  101 1    
   198  100  102 1    
   199  100  221 1    
   200  101  222 1    
   201  101  223 1    
   202  101  224 1    
   203  102  103 2    
   204  102  104 am   BACKBONE|DICT|INTERRES
   205  104  105 1    
   206  104  225 1    
   207  105  106 1    
   208  105  107 1    
   209  105  226 1    
   210  106  227 1    
   211  106  228 1    
   212  106  229 1    
   213  107  108 2    
   214  107  109 am   BACKBONE|DICT|INTERRES
   215  109  110 1    
   216  109  230 1    
   217  110  111 1    
   218  110  112 1    
   219  110  231 1    
   220  111  232 1    
   221  111  233 1    
   222  111  234 1    
   223  112  113 2    
   224  112  114 am   BACKBONE|DICT|INTERRES
   225  114  115 1    
   226  114  235 1    
   227  115  116 1    
   228  115  117 1    
   229  115  236 1    
   230  116  237 1    
   231  116  238 1    
   232  116  239 1    
   233  117  118 2    
   234  117  119 am   BACKBONE|DICT|INTERRES
   235  119  120 1    
   236  119  240 1    
   237  120  121 1    
   238  120  124 1    
   239  120  241 1    
   240  121  122 am   BACKBONE|DICT|INTERRES
   241  121  123 2    
   242  122  242 1    
   243  122  243 1    
   244  124  125 1    
   245  124  244 1    
   246  124  245 1    
   247  125  126 1    
   248  126  246 1    
   249  126  247 1    
@<TRIPOS>SUBSTRUCTURE
     1 UNK         1 GROUP             0       ****    0 ROOT    
