@<TRIPOS>MOLECULE
3R540
247   249    1
SMALL
USER_CHARGES


@<TRIPOS>ATOM
      1 CA         -1.8749   -8.7870  -53.7929 C.3       0 UNK        -0.1800 
      2 C          -1.5705  -10.0691  -53.0309 C.2       0 UNK         0.5000 
      3 O          -0.6759  -10.8183  -53.4242 O.2       0 UNK        -0.5000 
      4 N          -2.3132  -10.3275  -51.9479 N.am      1 UNK        -0.5000 
      5 CA         -2.1375  -11.4834  -51.0671 C.3       1 UNK         0.1400 
      6 C6         -3.4026  -11.7640  -50.2156 C.3       23 UNK        -0.0398 
      7 S7         -4.6682  -12.6250  -51.2088 S.3       23 UNK        -0.2404 
      8 C8         -4.8685  -14.2165  -50.3264 C.3       23 UNK        -0.0205 
      9 C9         -3.5674  -14.9471  -49.9946 C.ar      23 UNK        -0.0193 
     10 C10        -2.5228  -15.0366  -50.9213 C.ar      23 UNK        -0.1150 
     11 C11        -1.3376  -15.7028  -50.6013 C.ar      23 UNK        -0.0193 
     12 C12        -1.2094  -16.3085  -49.3478 C.ar      23 UNK        -0.1150 
     13 C13        -2.2514  -16.2466  -48.4171 C.ar      23 UNK        -0.0193 
     14 C14        -3.4216  -15.5566  -48.7439 C.ar      23 UNK        -0.1150 
     15 C15        -2.1072  -16.9142  -47.0567 C.3       23 UNK        -0.0205 
     16 S16        -3.0432  -18.4752  -46.9725 S.3       23 UNK        -0.2404 
     17 C17        -2.2302  -19.3360  -45.5841 C.3       23 UNK        -0.0398 
     18 CA         -1.7775  -20.7720  -45.9589 C.3       11 UNK         0.1400 
     19 N          -0.6818  -21.2383  -45.1033 N.am      11 UNK        -0.5000 
     20 C          -0.0216  -22.3981  -45.2340 C.2       10 UNK         0.5000 
     21 O          -0.2143  -23.1911  -46.1529 O.2       10 UNK        -0.5000 
     22 CA          0.9722  -22.7656  -44.1135 C.3       10 UNK         0.1400 
     23 CB          2.3961  -22.2956  -44.4450 C.3       10 UNK        -0.1800 
     24 N           0.5730  -22.2492  -42.8018 N.am      10 UNK        -0.5000 
     25 C          -0.5366  -22.6212  -42.1479 C.2       9 UNK         0.5000 
     26 O          -1.3289  -23.4547  -42.5933 O.2       9 UNK        -0.5000 
     27 CA         -0.8278  -21.9206  -40.8020 C.3       9 UNK         0.1400 
     28 CB         -1.7756  -22.7362  -39.8988 C.3       9 UNK        -0.1800 
     29 N           0.3744  -21.5230  -40.0607 N.am      9 UNK        -0.5000 
     30 C           1.3615  -22.3178  -39.6146 C.2       8 UNK         0.5000 
     31 O           1.3759  -23.5395  -39.7724 O.2       8 UNK        -0.5000 
     32 CA          2.5184  -21.6433  -38.8395 C.3       8 UNK         0.1400 
     33 CB          3.8904  -22.2626  -39.1811 C.3       8 UNK        -0.1800 
     34 N           2.5588  -20.1782  -38.9591 N.am      8 UNK        -0.5000 
     35 C           2.7724  -19.4619  -40.0712 C.2       7 UNK         0.5000 
     36 O           3.0049  -19.9521  -41.1783 O.2       7 UNK        -0.5000 
     37 CA          2.6665  -17.9330  -39.9222 C.3       7 UNK         0.1400 
     38 CB          4.0458  -17.2727  -40.0642 C.3       7 UNK        -0.1800 
     39 N           1.7601  -17.3805  -40.9260 N.am      7 UNK        -0.5000 
     40 C           0.4439  -17.6364  -40.9920 C.2       6 UNK         0.5000 
     41 O          -0.1726  -18.2680  -40.1321 O.2       6 UNK        -0.5000 
     42 CA         -0.2964  -17.1537  -42.2576 C.3       6 UNK         0.1400 
     43 CB         -0.8959  -15.7578  -42.0391 C.3       6 UNK        -0.1800 
     44 N           0.5715  -17.1380  -43.4391 N.am      6 UNK        -0.5000 
     45 C           1.1237  -18.2439  -43.9617 C.2       5 UNK         0.5000 
     46 O           0.7907  -19.3719  -43.6030 O.2       5 UNK        -0.5000 
     47 CA          2.2103  -18.0962  -45.0491 C.3       5 UNK         0.1400 
     48 CB          1.7780  -18.7714  -46.3618 C.3       5 UNK        -0.1800 
     49 N           2.5879  -16.7139  -45.3400 N.am      5 UNK        -0.5000 
     50 C           3.2407  -15.8792  -44.5183 C.2       4 UNK         0.5000 
     51 O           3.6540  -16.1982  -43.4037 O.2       4 UNK        -0.5000 
     52 CA          3.3830  -14.4233  -45.0063 C.3       4 UNK         0.1400 
     53 CB          4.7231  -14.2210  -45.7284 C.3       4 UNK        -0.1800 
     54 N           2.2907  -14.0268  -45.9012 N.am      4 UNK        -0.5000 
     55 C           1.0012  -13.9384  -45.5497 C.2       3 UNK         0.5000 
     56 O           0.6157  -14.1014  -44.3920 O.2       3 UNK        -0.5000 
     57 CA         -0.0259  -13.6893  -46.6761 C.3       3 UNK         0.1400 
     58 CB         -1.3762  -13.1739  -46.1481 C.3       3 UNK        -0.1800 
     59 N           0.4333  -12.7958  -47.7407 N.am      3 UNK        -0.5000 
     60 C           1.3060  -13.0910  -48.7109 C.2       2 UNK         0.5000 
     61 O           1.9351  -14.1495  -48.7561 O.2       2 UNK        -0.5000 
     62 CA          1.4616  -12.0350  -49.8242 C.3       2 UNK         0.1400 
     63 CB          2.6099  -12.3639  -50.7944 C.3       2 UNK        -0.1800 
     64 N           0.2209  -11.9181  -50.5895 N.am      2 UNK        -0.5000 
     65 C          -0.8920  -11.2951  -50.1837 C.2       1 UNK         0.5000 
     66 O          -0.9620  -10.6188  -49.1548 O.2       1 UNK        -0.5000 
     67 C          -2.9707  -21.7513  -45.9358 C.2       11 UNK         0.5000 
     68 O          -3.4955  -22.1035  -46.9931 O.2       11 UNK        -0.5000 
     69 N          -3.3480  -22.2022  -44.7300 N.am      12 UNK        -0.5000 
     70 CA         -4.4215  -23.1695  -44.5044 C.3       12 UNK         0.1400 
     71 CB         -4.8057  -23.1855  -43.0178 C.3       12 UNK        -0.1800 
     72 C          -4.0419  -24.5771  -44.9919 C.2       12 UNK         0.5000 
     73 O          -4.8750  -25.2461  -45.6030 O.2       12 UNK        -0.5000 
     74 N          -2.7805  -24.9782  -44.7722 N.am      13 UNK        -0.5000 
     75 CA         -2.2056  -26.2278  -45.2834 C.3       13 UNK         0.1400 
     76 CB         -0.8013  -26.4275  -44.6955 C.3       13 UNK        -0.1800 
     77 C          -2.1681  -26.2827  -46.8252 C.2       13 UNK         0.5000 
     78 O          -2.3726  -27.3501  -47.4031 O.2       13 UNK        -0.5000 
     79 N          -1.9696  -25.1192  -47.4588 N.am      14 UNK        -0.5000 
     80 CA         -2.0532  -24.8974  -48.9027 C.3       14 UNK         0.1400 
     81 CB         -1.1727  -23.6890  -49.2677 C.3       14 UNK        -0.1800 
     82 C          -3.4985  -24.7157  -49.4202 C.2       14 UNK         0.5000 
     83 O          -3.6692  -24.3236  -50.5760 O.2       14 UNK        -0.5000 
     84 N          -4.5053  -24.9895  -48.5755 N.am      15 UNK        -0.5000 
     85 CA         -5.9448  -24.9269  -48.8450 C.3       15 UNK         0.1400 
     86 CB         -6.3513  -25.9730  -49.9042 C.3       15 UNK        -0.1800 
     87 C          -6.4166  -23.4983  -49.1751 C.2       15 UNK         0.5000 
     88 O          -7.0537  -23.2756  -50.2045 O.2       15 UNK        -0.5000 
     89 N          -6.0584  -22.5545  -48.2924 N.am      16 UNK        -0.5000 
     90 CA         -6.2618  -21.1050  -48.4073 C.3       16 UNK         0.1400 
     91 CB         -7.7614  -20.7418  -48.4318 C.3       16 UNK        -0.1800 
     92 C          -5.4620  -20.5196  -49.5876 C.2       16 UNK         0.5000 
     93 O          -5.9872  -19.7245  -50.3690 O.2       16 UNK        -0.5000 
     94 N          -4.2017  -20.9669  -49.6925 N.am      17 UNK        -0.5000 
     95 CA         -3.2193  -20.6288  -50.7252 C.3       17 UNK         0.1400 
     96 CB         -2.7737  -19.1604  -50.5961 C.3       17 UNK        -0.1800 
     97 C          -3.6383  -21.0138  -52.1606 C.2       17 UNK         0.5000 
     98 O          -3.1591  -20.4100  -53.1243 O.2       17 UNK        -0.5000 
     99 N          -4.4925  -22.0356  -52.2970 N.am      18 UNK        -0.5000 
    100 CA        -4.8810  -22.6147  -53.5821 C.3       18 UNK         0.1400 
    101 CB        -6.1220  -23.4986  -53.4014 C.3       18 UNK        -0.1800 
    102 C         -3.7250  -23.4127  -54.2069 C.2       18 UNK         0.5000 
    103 O         -3.4630  -23.2687  -55.4007 O.2       18 UNK        -0.5000 
    104 N         -3.0141  -24.1899  -53.3763 N.am      19 UNK        -0.5000 
    105 CA        -1.8167  -24.9394  -53.7675 C.3       19 UNK         0.1400 
    106 CB        -1.5079  -25.9969  -52.6981 C.3       19 UNK        -0.1800 
    107 C         -0.5962  -24.0257  -53.9941 C.2       19 UNK         0.5000 
    108 O          0.2842  -24.3695  -54.7830 O.2       19 UNK        -0.5000 
    109 N         -0.5808  -22.8687  -53.3168 N.am      20 UNK        -0.5000 
    110 CA         0.4138  -21.8065  -53.4888 C.3       20 UNK         0.1400 
    111 CB         0.4424  -20.9443  -52.2175 C.3       20 UNK        -0.1800 
    112 C          0.1483  -20.9327  -54.7338 C.2       20 UNK         0.5000 
    113 O          1.0345  -20.1784  -55.1357 O.2       20 UNK        -0.5000 
    114 N         -1.0537  -21.0589  -55.3173 N.am      21 UNK        -0.5000 
    115 CA        -1.5633  -20.3536  -56.4944 C.3       21 UNK         0.1400 
    116 CB        -0.7557  -20.7295  -57.7548 C.3       21 UNK        -0.1800 
    117 C         -1.6940  -18.8314  -56.2801 C.2       21 UNK         0.5000 
    118 O         -1.3754  -18.0518  -57.1809 O.2       21 UNK        -0.5000 
    119 N         -2.1824  -18.4349  -55.0991 N.am      22 UNK        -0.5000 
    120 CA        -2.4559  -17.0326  -54.7409 C.3       22 UNK         0.1400 
    121 C         -3.7308  -16.8163  -53.8796 C.2       22 UNK         0.5000 
    122 N         -4.3773  -17.8502  -53.3584 N.am      22 UNK        -0.7600 
    123 O         -4.1802  -15.6840  -53.7308 O.2       22 UNK        -0.5000 
    124 C124       -1.2061  -16.2830  -54.2017 C.3       23 UNK        -0.0398 
    125 S125       -0.3584  -17.1005  -52.8012 S.3       23 UNK        -0.2404 
    126 C126       -0.1839  -15.7478  -51.5929 C.3       23 UNK        -0.0205 
    127 H127       -2.1532   -9.0189  -54.8209 H         1 UNK         0.0600 
    128 H128       -2.6927   -8.2283  -53.3371 H         1 UNK         0.0600 
    129 H129       -0.9942   -8.1450  -53.8134 H         1 UNK         0.0600 
    130 H130       -3.0254   -9.6683  -51.6682 H         1 UNK         0.3000 
    131 H131       -1.9545  -12.3572  -51.6950 H         1 UNK         0.0600 
    132 H132       -3.1664  -12.3712  -49.3401 H         1 UNK         0.0800 
    133 H133       -3.8237  -10.8373  -49.8227 H         1 UNK         0.0800 
    134 H134       -5.4843  -14.8760  -50.9391 H         1 UNK         0.0800 
    135 H135       -5.4361  -14.0252  -49.4145 H         1 UNK         0.0800 
    136 H136       -2.6328  -14.5822  -51.8945 H         1 UNK         0.1150 
    137 H137       -0.2968  -16.8315  -49.0992 H         1 UNK         0.1150 
    138 H138       -4.2252  -15.5072  -48.0227 H         1 UNK         0.1150 
    139 H139       -1.0541  -17.0981  -46.8494 H         1 UNK         0.0800 
    140 H140       -2.4609  -16.2417  -46.2740 H         1 UNK         0.0800 
    141 H141       -1.3672  -18.7464  -45.2814 H         1 UNK         0.0800 
    142 H142       -2.8976  -19.3328  -44.7204 H         1 UNK         0.0800 
    143 H143       -1.3838  -20.7571  -46.9777 H         1 UNK         0.0600 
    144 H144       -0.3785  -20.6181  -44.3567 H         1 UNK         0.3000 
    145 H145        0.9923  -23.8542  -44.0430 H         1 UNK         0.0600 
    146 H146        3.1119  -22.6745  -43.7154 H         1 UNK         0.0600 
    147 H147        2.7091  -22.6562  -45.4257 H         1 UNK         0.0600 
    148 H148        2.4769  -21.2097  -44.4522 H         1 UNK         0.0600 
    149 H149        1.1485  -21.5148  -42.4092 H         1 UNK         0.3000 
    150 H150       -1.3393  -20.9916  -41.0578 H         1 UNK         0.0600 
    151 H151       -2.7386  -22.8978  -40.3835 H         1 UNK         0.0600 
    152 H152       -1.9716  -22.2162  -38.9611 H         1 UNK         0.0600 
    153 H153       -1.3620  -23.7164  -39.6595 H         1 UNK         0.0600 
    154 H154        0.4603  -20.5296  -39.8866 H         1 UNK         0.3000 
    155 H155        2.3237  -21.8487  -37.7860 H         1 UNK         0.0600 
    156 H156        4.6924  -21.7774  -38.6249 H         1 UNK         0.0600 
    157 H157        4.1206  -22.1806  -40.2437 H         1 UNK         0.0600 
    158 H158        3.9165  -23.3223  -38.9251 H         1 UNK         0.0600 
    159 H159        2.3559  -19.6772  -38.1046 H         1 UNK         0.3000 
    160 H160        2.2678  -17.6902  -38.9350 H         1 UNK         0.0600 
    161 H161        4.4917  -17.4786  -41.0383 H         1 UNK         0.0600 
    162 H162        4.7347  -17.6414  -39.3033 H         1 UNK         0.0600 
    163 H163        3.9801  -16.1907  -39.9485 H         1 UNK         0.0600 
    164 H164        2.1978  -16.9074  -41.7059 H         1 UNK         0.3000 
    165 H165       -1.1161  -17.8497  -42.4479 H         1 UNK         0.0600 
    166 H166       -0.1219  -15.0134  -41.8488 H         1 UNK         0.0600 
    167 H167       -1.4665  -15.4332  -42.9096 H         1 UNK         0.0600 
    168 H168       -1.5741  -15.7532  -41.1849 H         1 UNK         0.0600 
    169 H169        0.8491  -16.2279  -43.7846 H         1 UNK         0.3000 
    170 H170        3.0964  -18.6140  -44.6763 H         1 UNK         0.0600 
    171 H171        1.5331  -19.8218  -46.2083 H         1 UNK         0.0600 
    172 H172        0.9017  -18.2926  -46.7959 H         1 UNK         0.0600 
    173 H173        2.5772  -18.7371  -47.1023 H         1 UNK         0.0600 
    174 H174        2.2930  -16.3505  -46.2342 H         1 UNK         0.3000 
    175 H175        3.3594  -13.7735  -44.1291 H         1 UNK         0.0600 
    176 H176        4.7914  -14.8322  -46.6294 H         1 UNK         0.0600 
    177 H177        4.8609  -13.1793  -46.0184 H         1 UNK         0.0600 
    178 H178        5.5595  -14.4917  -45.0825 H         1 UNK         0.0600 
    179 H179        2.5097  -13.9406  -46.8884 H         1 UNK         0.3000 
    180 H180       -0.2065  -14.6649  -47.1276 H         1 UNK         0.0600 
    181 H181       -1.7997  -13.8542  -45.4081 H         1 UNK         0.0600 
    182 H182       -1.2745  -12.1955  -45.6774 H         1 UNK         0.0600 
    183 H183       -2.1052  -13.0859  -46.9541 H         1 UNK         0.0600 
    184 H184       -0.0432  -11.9031  -47.8075 H         1 UNK         0.3000 
    185 H185        1.6838  -11.0769  -49.3496 H         1 UNK         0.0600 
    186 H186        3.5588  -12.4460  -50.2628 H         1 UNK         0.0600 
    187 H187        2.4418  -13.3074  -51.3156 H         1 UNK         0.0600 
    188 H188        2.7259  -11.5827  -51.5459 H         1 UNK         0.0600 
    189 H189        0.1992  -12.4072  -51.4728 H         1 UNK         0.3000 
    190 H190       -2.8187  -21.9215  -43.9179 H         1 UNK         0.3000 
    191 H191       -5.2948  -22.8431  -45.0732 H         1 UNK         0.0600 
    192 H192       -5.6537  -23.8491  -42.8442 H         1 UNK         0.0600 
    193 H193       -5.0943  -22.1927  -42.6725 H         1 UNK         0.0600 
    194 H194       -3.9862  -23.5354  -42.3906 H         1 UNK         0.0600 
    195 H195       -2.1726  -24.3841  -44.2177 H         1 UNK         0.3000 
    196 H196       -2.8388  -27.0471  -44.9369 H         1 UNK         0.0600 
    197 H197       -0.4041  -27.4065  -44.9660 H         1 UNK         0.0600 
    198 H198       -0.8136  -26.3689  -43.6069 H         1 UNK         0.0600 
    199 H199       -0.1008  -25.6799  -45.0655 H         1 UNK         0.0600 
    200 H200       -1.7303  -24.3064  -46.9002 H         1 UNK         0.3000 
    201 H201       -1.6466  -25.7744  -49.4090 H         1 UNK         0.0600 
    202 H202       -0.1387  -23.8527  -48.9638 H         1 UNK         0.0600 
    203 H203       -1.5198  -22.7786  -48.7792 H         1 UNK         0.0600 
    204 H204       -1.1648  -23.5069  -50.3423 H         1 UNK         0.0600 
    205 H205       -4.2659  -25.2629  -47.6301 H         1 UNK         0.3000 
    206 H206       -6.4437  -25.2011  -47.9145 H         1 UNK         0.0600 
    207 H207       -6.0626  -26.9768  -49.5931 H         1 UNK         0.0600 
    208 H208       -7.4315  -25.9783  -50.0538 H         1 UNK         0.0600 
    209 H209       -5.8887  -25.7792  -50.8711 H         1 UNK         0.0600 
    210 H210       -5.4420  -22.8318  -47.5385 H         1 UNK         0.3000 
    211 H211       -5.8362  -20.6630  -47.5051 H         1 UNK         0.0600 
    212 H212       -8.2512  -21.0847  -49.3434 H         1 UNK         0.0600 
    213 H213       -7.8983  -19.6613  -48.3776 H         1 UNK         0.0600 
    214 H214       -8.2867  -21.1787  -47.5827 H         1 UNK         0.0600 
    215 H215       -3.8799  -21.5942  -48.9631 H         1 UNK         0.3000 
    216 H216       -2.3443  -21.2436  -50.5171 H         1 UNK         0.0600 
    217 H217       -3.6127  -18.4652  -50.6169 H         1 UNK         0.0600 
    218 H218       -2.0972  -18.8685  -51.3958 H         1 UNK         0.0600 
    219 H219       -2.2333  -19.0066  -49.6649 H         1 UNK         0.0600 
    220 H220       -4.8173  -22.5134  -51.4660 H         1 UNK         0.3000 
    221 H221       -5.1396  -21.8021  -54.2645 H         1 UNK         0.0600 
    222 H222       -5.9320  -24.3221  -52.7134 H         1 UNK         0.0600 
    223 H223       -6.9606  -22.9228  -53.0095 H         1 UNK         0.0600 
    224 H224       -6.4379  -23.9293  -54.3523 H         1 UNK         0.0600 
    225 H225       -3.2970  -24.2508  -52.3997 H         1 UNK         0.3000 
    226 H226       -2.0270  -25.4557  -54.7066 H         1 UNK         0.0600 
    227 H227       -2.3683  -26.6412  -52.5163 H         1 UNK         0.0600 
    228 H228       -0.6813  -26.6360  -53.0108 H         1 UNK         0.0600 
    229 H229       -1.2247  -25.5380  -51.7519 H         1 UNK         0.0600 
    230 H230       -1.3526  -22.6735  -52.6990 H         1 UNK         0.3000 
    231 H231        1.3980  -22.2636  -53.6109 H         1 UNK         0.0600 
    232 H232       -0.4974  -20.4144  -52.0745 H         1 UNK         0.0600 
    233 H233        0.6314  -21.5475  -51.3293 H         1 UNK         0.0600 
    234 H234        1.2305  -20.1924  -52.2747 H         1 UNK         0.0600 
    235 H235       -1.7105  -21.6979  -54.8918 H         1 UNK         0.3000 
    236 H236       -2.5802  -20.7202  -56.6417 H         1 UNK         0.0600 
    237 H237       -0.7029  -21.8111  -57.8798 H         1 UNK         0.0600 
    238 H238       -1.2219  -20.3226  -58.6528 H         1 UNK         0.0600 
    239 H239        0.2640  -20.3457  -57.7144 H         1 UNK         0.0600 
    240 H240       -2.4032  -19.1330  -54.3964 H         1 UNK         0.3000 
    241 H241       -2.7254  -16.5255  -55.6696 H         1 UNK         0.0600 
    242 H242       -4.0101  -18.7927  -53.4227 H         1 UNK         0.3800 
    243 H243       -5.2102  -17.6803  -52.8188 H         1 UNK         0.3800 
    244 H244       -1.4639  -15.2562  -53.9395 H         1 UNK         0.0800 
    245 H245       -0.4747  -16.1961  -55.0060 H         1 UNK         0.0800 
    246 H246        0.7543  -15.8888  -51.0536 H         1 UNK         0.0800 
    247 H247       -0.0862  -14.7901  -52.1050 H         1 UNK         0.0800 
@<TRIPOS>BOND
     1    1    2 1    
     2    1  127 1    
     3    1  128 1    
     4    1  129 1    
     5    2    3 2    
     6    2    4 am   BACKBONE|DICT|INTERRES
     7    4    5 1    
     8    4  130 1    
     9    5    6 1    
    10    5   65 1    
    11    5  131 1    
    12    6    7 1    
    13    6  132 1    
    14    6  133 1    
    15    7    8 1    
    16    8    9 1    
    17    8  134 1    
    18    8  135 1    
    19    9   10 ar   
    20    9   14 ar   
    21   10   11 ar   
    22   10  136 1    
    23   11   12 ar   
    24   11  126 1    
    25   12   13 ar   
    26   12  137 1    
    27   13   14 ar   
    28   13   15 1    
    29   14  138 1    
    30   15   16 1    
    31   15  139 1    
    32   15  140 1    
    33   16   17 1    
    34   17   18 1    
    35   17  141 1    
    36   17  142 1    
    37   18   19 1    
    38   18   67 1    
    39   18  143 1    
    40   19   20 am   BACKBONE|DICT|INTERRES
    41   19  144 1    
    42   20   21 2    
    43   20   22 1    
    44   22   23 1    
    45   22   24 1    
    46   22  145 1    
    47   23  146 1    
    48   23  147 1    
    49   23  148 1    
    50   24   25 am   BACKBONE|DICT|INTERRES
    51   24  149 1    
    52   25   26 2    
    53   25   27 1    
    54   27   28 1    
    55   27   29 1    
    56   27  150 1    
    57   28  151 1    
    58   28  152 1    
    59   28  153 1    
    60   29   30 am   BACKBONE|DICT|INTERRES
    61   29  154 1    
    62   30   31 2    
    63   30   32 1    
    64   32   33 1    
    65   32   34 1    
    66   32  155 1    
    67   33  156 1    
    68   33  157 1    
    69   33  158 1    
    70   34   35 am   BACKBONE|DICT|INTERRES
    71   34  159 1    
    72   35   36 2    
    73   35   37 1    
    74   37   38 1    
    75   37   39 1    
    76   37  160 1    
    77   38  161 1    
    78   38  162 1    
    79   38  163 1    
    80   39   40 am   BACKBONE|DICT|INTERRES
    81   39  164 1    
    82   40   41 2    
    83   40   42 1    
    84   42   43 1    
    85   42   44 1    
    86   42  165 1    
    87   43  166 1    
    88   43  167 1    
    89   43  168 1    
    90   44   45 am   BACKBONE|DICT|INTERRES
    91   44  169 1    
    92   45   46 2    
    93   45   47 1    
    94   47   48 1    
    95   47   49 1    
    96   47  170 1    
    97   48  171 1    
    98   48  172 1    
    99   48  173 1    
   100   49   50 am   BACKBONE|DICT|INTERRES
   101   49  174 1    
   102   50   51 2    
   103   50   52 1    
   104   52   53 1    
   105   52   54 1    
   106   52  175 1    
   107   53  176 1    
   108   53  177 1    
   109   53  178 1    
   110   54   55 am   BACKBONE|DICT|INTERRES
   111   54  179 1    
   112   55   56 2    
   113   55   57 1    
   114   57   58 1    
   115   57   59 1    
   116   57  180 1    
   117   58  181 1    
   118   58  182 1    
   119   58  183 1    
   120   59   60 am   BACKBONE|DICT|INTERRES
   121   59  184 1    
   122   60   61 2    
   123   60   62 1    
   124   62   63 1    
   125   62   64 1    
   126   62  185 1    
   127   63  186 1    
   128   63  187 1    
   129   63  188 1    
   130   64   65 am   BACKBONE|DICT|INTERRES
   131   64  189 1    
   132   65   66 2    
   133   67   68 2    
   134   67   69 am   BACKBONE|DICT|INTERRES
   135   69   70 1    
   136   69  190 1    
   137   70   71 1    
   138   70   72 1    
   139   70  191 1    
   140   71  192 1    
   141   71  193 1    
   142   71  194 1    
   143   72   73 2    
   144   72   74 am   BACKBONE|DICT|INTERRES
   145   74   75 1    
   146   74  195 1    
   147   75   76 1    
   148   75   77 1    
   149   75  196 1    
   150   76  197 1    
   151   76  198 1    
   152   76  199 1    
   153   77   78 2    
   154   77   79 am   BACKBONE|DICT|INTERRES
   155   79   80 1    
   156   79  200 1    
   157   80   81 1    
   158   80   82 1    
   159   80  201 1    
   160   81  202 1    
   161   81  203 1    
   162   81  204 1    
   163   82   83 2    
   164   82   84 am   BACKBONE|DICT|INTERRES
   165   84   85 1    
   166   84  205 1    
   167   85   86 1    
   168   85   87 1    
   169   85  206 1    
   170   86  207 1    
   171   86  208 1    
   172   86  209 1    
   173   87   88 2    
   174   87   89 am   BACKBONE|DICT|INTERRES
   175   89   90 1    
   176   89  210 1    
   177   90   91 1    
   178   90   92 1    
   179   90  211 1    
   180   91  212 1    
   181   91  213 1    
   182   91  214 1    
   183   92   93 2    
   184   92   94 am   BACKBONE|DICT|INTERRES
   185   94   95 1    
   186   94  215 1    
   187   95   96 1    
   188   95   97 1    
   189   95  216 1    
   190   96  217 1    
   191   96  218 1    
   192   96  219 1    
   193   97   98 2    
   194   97   99 am   BACKBONE|DICT|INTERRES
   195   99  100 1    
   196   99  220 1    
   197  100  101 1    
   198  100  102 1    
   199  100  221 1    
   200  101  222 1    
   201  101  223 1    
   202  101  224 1    
   203  102  103 2    
   204  102  104 am   BACKBONE|DICT|INTERRES
   205  104  105 1    
   206  104  225 1    
   207  105  106 1    
   208  105  107 1    
   209  105  226 1    
   210  106  227 1    
   211  106  228 1    
   212  106  229 1    
   213  107  108 2    
   214  107  109 am   BACKBONE|DICT|INTERRES
   215  109  110 1    
   216  109  230 1    
   217  110  111 1    
   218  110  112 1    
   219  110  231 1    
   220  111  232 1    
   221  111  233 1    
   222  111  234 1    
   223  112  113 2    
   224  112  114 am   BACKBONE|DICT|INTERRES
   225  114  115 1    
   226  114  235 1    
   227  115  116 1    
   228  115  117 1    
   229  115  236 1    
   230  116  237 1    
   231  116  238 1    
   232  116  239 1    
   233  117  118 2    
   234  117  119 am   BACKBONE|DICT|INTERRES
   235  119  120 1    
   236  119  240 1    
   237  120  121 1    
   238  120  124 1    
   239  120  241 1    
   240  121  122 am   BACKBONE|DICT|INTERRES
   241  121  123 2    
   242  122  242 1    
   243  122  243 1    
   244  124  125 1    
   245  124  244 1    
   246  124  245 1    
   247  125  126 1    
   248  126  246 1    
   249  126  247 1    
@<TRIPOS>SUBSTRUCTURE
     1 UNK         1 GROUP             0       ****    0 ROOT    
