@<TRIPOS>MOLECULE
3R540
247   249    1
SMALL
USER_CHARGES


@<TRIPOS>ATOM
      1 CA          7.2251  -16.4478  -44.5241 C.3       0 UNK        -0.1800 
      2 C           5.7744  -16.3310  -44.9673 C.2       0 UNK         0.5000 
      3 O           5.0229  -15.5393  -44.3990 O.2       0 UNK        -0.5000 
      4 N           5.3834  -17.0998  -45.9944 N.am      1 UNK        -0.5000 
      5 CA          4.0201  -17.1691  -46.5439 C.3       1 UNK         0.1400 
      6 C6          3.8875  -18.3396  -47.5622 C.3       23 UNK        -0.0398 
      7 S7          4.4864  -17.9618  -49.2570 S.3       23 UNK        -0.2404 
      8 C8          3.5361  -19.1118  -50.3176 C.3       23 UNK        -0.0205 
      9 C9          2.0258  -18.8795  -50.4377 C.ar      23 UNK        -0.0193 
     10 C10         1.3049  -19.6775  -51.3325 C.ar      23 UNK        -0.1150 
     11 C11        -0.0888  -19.5963  -51.4104 C.ar      23 UNK        -0.0193 
     12 C12        -0.7715  -18.7079  -50.5766 C.ar      23 UNK        -0.1150 
     13 C13        -0.0673  -17.8915  -49.6895 C.ar      23 UNK        -0.0193 
     14 C14         1.3261  -17.9499  -49.6597 C.ar      23 UNK        -0.1150 
     15 C15        -0.8014  -16.9938  -48.7063 C.3       23 UNK        -0.0205 
     16 S16        -0.6296  -17.6090  -46.9953 S.3       23 UNK        -0.2404 
     17 C17        -1.3828  -19.2647  -47.1177 C.3       23 UNK        -0.0398 
     18 CA         -0.3411  -20.4087  -47.2131 C.3       11 UNK         0.1400 
     19 N           0.5269  -20.5094  -46.0344 N.am      11 UNK        -0.5000 
     20 C           1.5653  -21.3532  -45.9268 C.2       10 UNK         0.5000 
     21 O           1.9727  -22.0613  -46.8471 O.2       10 UNK        -0.5000 
     22 CA          2.2217  -21.4770  -44.5420 C.3       10 UNK         0.1400 
     23 CB          3.3189  -20.4187  -44.3506 C.3       10 UNK        -0.1800 
     24 N           1.2321  -21.3806  -43.4678 N.am      10 UNK        -0.5000 
     25 C           0.3652  -22.3559  -43.1566 C.2       9 UNK         0.5000 
     26 O           0.3422  -23.4484  -43.7203 O.2       9 UNK        -0.5000 
     27 CA         -0.6761  -22.0550  -42.0615 C.3       9 UNK         0.1400 
     28 CB         -0.0992  -22.3564  -40.6706 C.3       9 UNK        -0.1800 
     29 N          -1.1562  -20.6745  -42.0969 N.am      9 UNK        -0.5000 
     30 C          -1.8659  -20.1421  -43.1012 C.2       8 UNK         0.5000 
     31 O          -2.2563  -20.7853  -44.0752 O.2       8 UNK        -0.5000 
     32 CA         -2.1350  -18.6260  -43.0339 C.3       8 UNK         0.1400 
     33 CB         -3.4886  -18.3473  -42.3655 C.3       8 UNK        -0.1800 
     34 N          -1.0889  -17.8602  -42.3478 N.am      8 UNK        -0.5000 
     35 C           0.2025  -17.8245  -42.7110 C.2       7 UNK         0.5000 
     36 O           0.6691  -18.5175  -43.6161 O.2       7 UNK        -0.5000 
     37 CA          1.1090  -16.8590  -41.9297 C.3       7 UNK         0.1400 
     38 CB          2.4450  -16.5890  -42.6431 C.3       7 UNK        -0.1800 
     39 N           0.4065  -15.5975  -41.7058 N.am      7 UNK        -0.5000 
     40 C           0.3774  -14.9117  -40.5555 C.2       6 UNK         0.5000 
     41 O           0.9878  -15.2611  -39.5445 O.2       6 UNK        -0.5000 
     42 CA         -0.4792  -13.6271  -40.5031 C.3       6 UNK         0.1400 
     43 CB          0.4043  -12.3768  -40.3839 C.3       6 UNK        -0.1800 
     44 N          -1.3692  -13.4682  -41.6547 N.am      6 UNK        -0.5000 
     45 C          -2.5160  -14.1407  -41.8251 C.2       5 UNK         0.5000 
     46 O          -2.9720  -14.9270  -40.9947 O.2       5 UNK        -0.5000 
     47 CA         -3.2630  -13.9334  -43.1595 C.3       5 UNK         0.1400 
     48 CB         -4.3713  -12.8828  -42.9961 C.3       5 UNK        -0.1800 
     49 N          -2.4054  -13.5502  -44.2867 N.am      5 UNK        -0.5000 
     50 C          -1.3701  -14.2646  -44.7494 C.2       4 UNK         0.5000 
     51 O          -0.9984  -15.3179  -44.2383 O.2       4 UNK        -0.5000 
     52 CA         -0.5947  -13.7170  -45.9601 C.3       4 UNK         0.1400 
     53 CB         -1.2541  -12.4995  -46.6458 C.3       4 UNK        -0.1800 
     54 N           0.7978  -13.4255  -45.6166 N.am      4 UNK        -0.5000 
     55 C           1.2510  -12.5420  -44.7117 C.2       3 UNK         0.5000 
     56 O           0.5137  -11.8931  -43.9675 O.2       3 UNK        -0.5000 
     57 CA          2.7806  -12.3248  -44.6239 C.3       3 UNK         0.1400 
     58 CB          3.3306  -12.7787  -43.2643 C.3       3 UNK        -0.1800 
     59 N           3.5300  -13.0022  -45.6841 N.am      3 UNK        -0.5000 
     60 C           3.5436  -12.6274  -46.9724 C.2       2 UNK         0.5000 
     61 O           3.0212  -11.5897  -47.3809 O.2       2 UNK        -0.5000 
     62 CA          4.2189  -13.5756  -47.9857 C.3       2 UNK         0.1400 
     63 CB          5.5616  -12.9945  -48.4551 C.3       2 UNK        -0.1800 
     64 N           4.4464  -14.9352  -47.4909 N.am      2 UNK        -0.5000 
     65 C           3.5101  -15.8085  -47.0872 C.2       1 UNK         0.5000 
     66 O           2.3053  -15.5573  -47.0905 O.2       1 UNK        -0.5000 
     67 C          -1.0435  -21.7518  -47.4952 C.2       11 UNK         0.5000 
     68 O          -0.9324  -22.2706  -48.6046 O.2       11 UNK        -0.5000 
     69 N          -1.7021  -22.3113  -46.4687 N.am      12 UNK        -0.5000 
     70 CA         -2.4075  -23.5931  -46.5248 C.3       12 UNK         0.1400 
     71 CB         -3.1739  -23.8082  -45.2116 C.3       12 UNK        -0.1800 
     72 C          -1.4892  -24.7947  -46.8178 C.2       12 UNK         0.5000 
     73 O          -1.9090  -25.7170  -47.5166 O.2       12 UNK        -0.5000 
     74 N          -0.2546  -24.7634  -46.2957 N.am      13 UNK        -0.5000 
     75 CA          0.7795  -25.7620  -46.5693 C.3       13 UNK         0.1400 
     76 CB          1.9498  -25.5827  -45.5910 C.3       13 UNK        -0.1800 
     77 C           1.2806  -25.7159  -48.0241 C.2       13 UNK         0.5000 
     78 O           1.5683  -26.7696  -48.5937 O.2       13 UNK        -0.5000 
     79 N           1.3693  -24.5086  -48.6006 N.am      14 UNK        -0.5000 
     80 CA          1.7368  -24.2908  -49.9983 C.3       14 UNK         0.1400 
     81 CB          2.1074  -22.8185  -50.2169 C.3       14 UNK        -0.1800 
     82 C           0.6285  -24.7473  -50.9642 C.2       14 UNK         0.5000 
     83 O           0.9245  -25.4693  -51.9176 O.2       14 UNK        -0.5000 
     84 N          -0.6240  -24.3667  -50.6814 N.am      15 UNK        -0.5000 
     85 CA         -1.8121  -24.8581  -51.3724 C.3       15 UNK         0.1400 
     86 CB         -1.9826  -24.1698  -52.7403 C.3       15 UNK        -0.1800 
     87 C          -3.0422  -24.6086  -50.4955 C.2       15 UNK         0.5000 
     88 O          -3.2421  -23.4856  -50.0344 O.2       15 UNK        -0.5000 
     89 N          -3.8914  -25.6311  -50.3315 N.am      16 UNK        -0.5000 
     90 CA         -5.1533  -25.5394  -49.5857 C.3       16 UNK         0.1400 
     91 CB         -5.7453  -26.9473  -49.4248 C.3       16 UNK        -0.1800 
     92 C          -6.1803  -24.5890  -50.2381 C.2       16 UNK         0.5000 
     93 O          -7.0511  -24.0593  -49.5483 O.2       16 UNK        -0.5000 
     94 N          -6.0308  -24.3641  -51.5497 N.am      17 UNK        -0.5000 
     95 CA         -6.8145  -23.4416  -52.3669 C.3       17 UNK         0.1400 
     96 CB         -6.8823  -24.0019  -53.7985 C.3       17 UNK        -0.1800 
     97 C          -6.2681  -21.9969  -52.3451 C.2       17 UNK         0.5000 
     98 O          -6.5553  -21.2375  -53.2691 O.2       17 UNK        -0.5000 
     99 N          -5.4952  -21.6163  -51.3147 N.am      18 UNK        -0.5000 
    100 CA        -4.9045  -20.2832  -51.1180 C.3       18 UNK         0.1400 
    101 CB        -4.1978  -20.2362  -49.7547 C.3       18 UNK        -0.1800 
    102 C         -5.8994  -19.1099  -51.2376 C.2       18 UNK         0.5000 
    103 O         -5.5462  -18.0677  -51.7893 O.2       18 UNK        -0.5000 
    104 N         -7.1369  -19.3229  -50.7691 N.am      19 UNK        -0.5000 
    105 CA        -8.2542  -18.3796  -50.8736 C.3       19 UNK         0.1400 
    106 CB        -9.3909  -18.8620  -49.9592 C.3       19 UNK        -0.1800 
    107 C         -8.7733  -18.1760  -52.3141 C.2       19 UNK         0.5000 
    108 O         -9.4365  -17.1727  -52.5776 O.2       19 UNK        -0.5000 
    109 N         -8.4591  -19.1134  -53.2165 N.am      20 UNK        -0.5000 
    110 CA        -8.7958  -19.0982  -54.6380 C.3       20 UNK         0.1400 
    111 CB        -9.5584  -20.3917  -54.9780 C.3       20 UNK        -0.1800 
    112 C         -7.5130  -18.9292  -55.4761 C.2       20 UNK         0.5000 
    113 O         -7.3387  -19.6078  -56.4906 O.2       20 UNK        -0.5000 
    114 N         -6.6200  -18.0392  -55.0150 N.am      21 UNK        -0.5000 
    115 CA        -5.3447  -17.6544  -55.6339 C.3       21 UNK         0.1400 
    116 CB        -5.5963  -16.8612  -56.9334 C.3       21 UNK        -0.1800 
    117 C         -4.3696  -18.8359  -55.8302 C.2       21 UNK         0.5000 
    118 O         -3.6394  -18.8777  -56.8220 O.2       21 UNK        -0.5000 
    119 N         -4.3892  -19.7742  -54.8753 N.am      22 UNK        -0.5000 
    120 CA        -3.6045  -21.0216  -54.8489 C.3       22 UNK         0.1400 
    121 C         -4.1109  -22.1132  -55.8404 C.2       22 UNK         0.5000 
    122 N         -5.2699  -21.9605  -56.4718 N.am      22 UNK        -0.7600 
    123 O         -3.4574  -23.1370  -56.0187 O.2       22 UNK        -0.5000 
    124 C124       -2.0623  -20.8165  -54.9318 C.3       23 UNK        -0.0398 
    125 S125       -1.4142  -19.5212  -53.8169 S.3       23 UNK        -0.2404 
    126 C126       -0.8597  -20.4812  -52.3765 C.3       23 UNK        -0.0205 
    127 H127        7.7748  -17.1761  -45.1208 H         1 UNK         0.0600 
    128 H128        7.2729  -16.7573  -43.4801 H         1 UNK         0.0600 
    129 H129        7.7242  -15.4834  -44.6182 H         1 UNK         0.0600 
    130 H130        6.0597  -17.7069  -46.4356 H         1 UNK         0.3000 
    131 H131        3.3706  -17.4079  -45.6992 H         1 UNK         0.0600 
    132 H132        4.4322  -19.2131  -47.2018 H         1 UNK         0.0800 
    133 H133        2.8498  -18.6696  -47.5957 H         1 UNK         0.0800 
    134 H134        3.9700  -19.0709  -51.3176 H         1 UNK         0.0800 
    135 H135        3.7027  -20.1264  -49.9537 H         1 UNK         0.0800 
    136 H136        1.8316  -20.3842  -51.9578 H         1 UNK         0.1150 
    137 H137       -1.8496  -18.6600  -50.6174 H         1 UNK         0.1150 
    138 H138        1.8413  -17.2956  -48.9775 H         1 UNK         0.1150 
    139 H139       -0.3899  -15.9852  -48.7640 H         1 UNK         0.0800 
    140 H140       -1.8593  -16.9141  -48.9611 H         1 UNK         0.0800 
    141 H141       -2.0441  -19.2796  -47.9836 H         1 UNK         0.0800 
    142 H142       -2.0312  -19.4014  -46.2534 H         1 UNK         0.0800 
    143 H143        0.3069  -20.2069  -48.0681 H         1 UNK         0.0600 
    144 H144        0.2952  -19.9215  -45.2422 H         1 UNK         0.3000 
    145 H145        2.6954  -22.4589  -44.4818 H         1 UNK         0.0600 
    146 H146        3.7716  -20.4919  -43.3618 H         1 UNK         0.0600 
    147 H147        2.9342  -19.4071  -44.4693 H         1 UNK         0.0600 
    148 H148        4.1156  -20.5518  -45.0830 H         1 UNK         0.0600 
    149 H149        1.1235  -20.4688  -43.0415 H         1 UNK         0.3000 
    150 H150       -1.5312  -22.7139  -42.2267 H         1 UNK         0.0600 
    151 H151        0.2489  -23.3884  -40.6084 H         1 UNK         0.0600 
    152 H152       -0.8518  -22.2212  -39.8936 H         1 UNK         0.0600 
    153 H153        0.7472  -21.7097  -40.4359 H         1 UNK         0.0600 
    154 H154       -0.8767  -20.0721  -41.3370 H         1 UNK         0.3000 
    155 H155       -2.1805  -18.2577  -44.0607 H         1 UNK         0.0600 
    156 H156       -4.2910  -18.8924  -42.8643 H         1 UNK         0.0600 
    157 H157       -3.7403  -17.2879  -42.4124 H         1 UNK         0.0600 
    158 H158       -3.4888  -18.6467  -41.3168 H         1 UNK         0.0600 
    159 H159       -1.3934  -17.2484  -41.6042 H         1 UNK         0.3000 
    160 H160        1.3219  -17.3470  -40.9767 H         1 UNK         0.0600 
    161 H161        2.2904  -16.1150  -43.6136 H         1 UNK         0.0600 
    162 H162        2.9988  -17.5129  -42.8124 H         1 UNK         0.0600 
    163 H163        3.0854  -15.9405  -42.0460 H         1 UNK         0.0600 
    164 H164       -0.1487  -15.2773  -42.4958 H         1 UNK         0.3000 
    165 H165       -1.0892  -13.6893  -39.5994 H         1 UNK         0.0600 
    166 H166       -0.1994  -11.4823  -40.2303 H         1 UNK         0.0600 
    167 H167        1.0895  -12.4550  -39.5389 H         1 UNK         0.0600 
    168 H168        1.0017  -12.2246  -41.2807 H         1 UNK         0.0600 
    169 H169       -1.0462  -12.8613  -42.3979 H         1 UNK         0.3000 
    170 H170       -3.7306  -14.8858  -43.4169 H         1 UNK         0.0600 
    171 H171       -3.9606  -11.8975  -42.7719 H         1 UNK         0.0600 
    172 H172       -4.9734  -12.7989  -43.9010 H         1 UNK         0.0600 
    173 H173       -5.0469  -13.1499  -42.1822 H         1 UNK         0.0600 
    174 H174       -2.6258  -12.6774  -44.7437 H         1 UNK         0.3000 
    175 H175       -0.5632  -14.5267  -46.6895 H         1 UNK         0.0600 
    176 H176       -1.3091  -11.6309  -45.9888 H         1 UNK         0.0600 
    177 H177       -0.6907  -12.2041  -47.5311 H         1 UNK         0.0600 
    178 H178       -2.2666  -12.7346  -46.9764 H         1 UNK         0.0600 
    179 H179        1.4794  -13.9818  -46.1229 H         1 UNK         0.3000 
    180 H180        2.9604  -11.2519  -44.7168 H         1 UNK         0.0600 
    181 H181        4.4174  -12.7009  -43.2283 H         1 UNK         0.0600 
    182 H182        3.0620  -13.8116  -43.0491 H         1 UNK         0.0600 
    183 H183        2.9397  -12.1581  -42.4592 H         1 UNK         0.0600 
    184 H184        3.9915  -13.8666  -45.4240 H         1 UNK         0.3000 
    185 H185        3.5545  -13.6486  -48.8489 H         1 UNK         0.0600 
    186 H186        6.0065  -13.6096  -49.2376 H         1 UNK         0.0600 
    187 H187        5.4331  -11.9924  -48.8665 H         1 UNK         0.0600 
    188 H188        6.2767  -12.9235  -47.6345 H         1 UNK         0.0600 
    189 H189        5.4093  -15.2333  -47.4374 H         1 UNK         0.3000 
    190 H190       -1.7607  -21.8062  -45.5878 H         1 UNK         0.3000 
    191 H191       -3.1360  -23.5306  -47.3351 H         1 UNK         0.0600 
    192 H192       -3.8898  -23.0049  -45.0369 H         1 UNK         0.0600 
    193 H193       -2.4991  -23.8471  -44.3557 H         1 UNK         0.0600 
    194 H194       -3.7334  -24.7442  -45.2337 H         1 UNK         0.0600 
    195 H195       -0.0089  -24.0164  -45.6555 H         1 UNK         0.3000 
    196 H196        0.3470  -26.7503  -46.3993 H         1 UNK         0.0600 
    197 H197        1.6235  -25.7067  -44.5584 H         1 UNK         0.0600 
    198 H198        2.4046  -24.5966  -45.6849 H         1 UNK         0.0600 
    199 H199        2.7296  -26.3228  -45.7747 H         1 UNK         0.0600 
    200 H200        1.1432  -23.6839  -48.0565 H         1 UNK         0.3000 
    201 H201        2.6266  -24.8879  -50.2093 H         1 UNK         0.0600 
    202 H202        2.9400  -22.5242  -49.5779 H         1 UNK         0.0600 
    203 H203        1.2712  -22.1559  -49.9977 H         1 UNK         0.0600 
    204 H204        2.4092  -22.6432  -51.2499 H         1 UNK         0.0600 
    205 H205       -0.8009  -23.7438  -49.8940 H         1 UNK         0.3000 
    206 H206       -1.7039  -25.9339  -51.5261 H         1 UNK         0.0600 
    207 H207       -2.1350  -23.0974  -52.6302 H         1 UNK         0.0600 
    208 H208       -1.1148  -24.3212  -53.3819 H         1 UNK         0.0600 
    209 H209       -2.8485  -24.5665  -53.2717 H         1 UNK         0.0600 
    210 H210       -3.6702  -26.5301  -50.7350 H         1 UNK         0.3000 
    211 H211       -4.9285  -25.1467  -48.5917 H         1 UNK         0.0600 
    212 H212       -5.9710  -27.4023  -50.3900 H         1 UNK         0.0600 
    213 H213       -6.6722  -26.9182  -48.8504 H         1 UNK         0.0600 
    214 H214       -5.0569  -27.6057  -48.8942 H         1 UNK         0.0600 
    215 H215       -5.2738  -24.8382  -52.0189 H         1 UNK         0.3000 
    216 H216       -7.8335  -23.3973  -51.9775 H         1 UNK         0.0600 
    217 H217       -7.5043  -23.3785  -54.4421 H         1 UNK         0.0600 
    218 H218       -7.3143  -25.0027  -53.8092 H         1 UNK         0.0600 
    219 H219       -5.8933  -24.0595  -54.2540 H         1 UNK         0.0600 
    220 H220       -5.2547  -22.3105  -50.6197 H         1 UNK         0.3000 
    221 H221       -4.1495  -20.1386  -51.8917 H         1 UNK         0.0600 
    222 H222       -4.8539  -20.5648  -48.9480 H         1 UNK         0.0600 
    223 H223       -3.3120  -20.8711  -49.7470 H         1 UNK         0.0600 
    224 H224       -3.8712  -19.2237  -49.5162 H         1 UNK         0.0600 
    225 H225       -7.3374  -20.2147  -50.3401 H         1 UNK         0.3000 
    226 H226       -7.9117  -17.4082  -50.5110 H         1 UNK         0.0600 
    227 H227       -9.0601  -18.9359  -48.9231 H         1 UNK         0.0600 
    228 H228      -10.2324  -18.1681  -49.9809 H         1 UNK         0.0600 
    229 H229       -9.7643  -19.8403  -50.2644 H         1 UNK         0.0600 
    230 H230       -7.8492  -19.8771  -52.9394 H         1 UNK         0.3000 
    231 H231       -9.4430  -18.2510  -54.8724 H         1 UNK         0.0600 
    232 H232       -9.8734  -20.3997  -56.0221 H         1 UNK         0.0600 
    233 H233      -10.4565  -20.4905  -54.3682 H         1 UNK         0.0600 
    234 H234       -8.9420  -21.2760  -54.8120 H         1 UNK         0.0600 
    235 H235       -6.8324  -17.5778  -54.1410 H         1 UNK         0.3000 
    236 H236       -4.8569  -16.9813  -54.9274 H         1 UNK         0.0600 
    237 H237       -6.0367  -17.4872  -57.7100 H         1 UNK         0.0600 
    238 H238       -6.2681  -16.0208  -56.7587 H         1 UNK         0.0600 
    239 H239       -4.6661  -16.4531  -57.3303 H         1 UNK         0.0600 
    240 H240       -5.0855  -19.6900  -54.1474 H         1 UNK         0.3000 
    241 H241       -3.7971  -21.4511  -53.8672 H         1 UNK         0.0600 
    242 H242       -5.8357  -21.1315  -56.3353 H         1 UNK         0.3800 
    243 H243       -5.5864  -22.6796  -57.1017 H         1 UNK         0.3800 
    244 H244       -1.7752  -20.5462  -55.9488 H         1 UNK         0.0800 
    245 H245       -1.5428  -21.7528  -54.7226 H         1 UNK         0.0800 
    246 H246       -1.7220  -20.9117  -51.8658 H         1 UNK         0.0800 
    247 H247       -0.2390  -21.3169  -52.7038 H         1 UNK         0.0800 
@<TRIPOS>BOND
     1    1    2 1    
     2    1  127 1    
     3    1  128 1    
     4    1  129 1    
     5    2    3 2    
     6    2    4 am   BACKBONE|DICT|INTERRES
     7    4    5 1    
     8    4  130 1    
     9    5    6 1    
    10    5   65 1    
    11    5  131 1    
    12    6    7 1    
    13    6  132 1    
    14    6  133 1    
    15    7    8 1    
    16    8    9 1    
    17    8  134 1    
    18    8  135 1    
    19    9   10 ar   
    20    9   14 ar   
    21   10   11 ar   
    22   10  136 1    
    23   11   12 ar   
    24   11  126 1    
    25   12   13 ar   
    26   12  137 1    
    27   13   14 ar   
    28   13   15 1    
    29   14  138 1    
    30   15   16 1    
    31   15  139 1    
    32   15  140 1    
    33   16   17 1    
    34   17   18 1    
    35   17  141 1    
    36   17  142 1    
    37   18   19 1    
    38   18   67 1    
    39   18  143 1    
    40   19   20 am   BACKBONE|DICT|INTERRES
    41   19  144 1    
    42   20   21 2    
    43   20   22 1    
    44   22   23 1    
    45   22   24 1    
    46   22  145 1    
    47   23  146 1    
    48   23  147 1    
    49   23  148 1    
    50   24   25 am   BACKBONE|DICT|INTERRES
    51   24  149 1    
    52   25   26 2    
    53   25   27 1    
    54   27   28 1    
    55   27   29 1    
    56   27  150 1    
    57   28  151 1    
    58   28  152 1    
    59   28  153 1    
    60   29   30 am   BACKBONE|DICT|INTERRES
    61   29  154 1    
    62   30   31 2    
    63   30   32 1    
    64   32   33 1    
    65   32   34 1    
    66   32  155 1    
    67   33  156 1    
    68   33  157 1    
    69   33  158 1    
    70   34   35 am   BACKBONE|DICT|INTERRES
    71   34  159 1    
    72   35   36 2    
    73   35   37 1    
    74   37   38 1    
    75   37   39 1    
    76   37  160 1    
    77   38  161 1    
    78   38  162 1    
    79   38  163 1    
    80   39   40 am   BACKBONE|DICT|INTERRES
    81   39  164 1    
    82   40   41 2    
    83   40   42 1    
    84   42   43 1    
    85   42   44 1    
    86   42  165 1    
    87   43  166 1    
    88   43  167 1    
    89   43  168 1    
    90   44   45 am   BACKBONE|DICT|INTERRES
    91   44  169 1    
    92   45   46 2    
    93   45   47 1    
    94   47   48 1    
    95   47   49 1    
    96   47  170 1    
    97   48  171 1    
    98   48  172 1    
    99   48  173 1    
   100   49   50 am   BACKBONE|DICT|INTERRES
   101   49  174 1    
   102   50   51 2    
   103   50   52 1    
   104   52   53 1    
   105   52   54 1    
   106   52  175 1    
   107   53  176 1    
   108   53  177 1    
   109   53  178 1    
   110   54   55 am   BACKBONE|DICT|INTERRES
   111   54  179 1    
   112   55   56 2    
   113   55   57 1    
   114   57   58 1    
   115   57   59 1    
   116   57  180 1    
   117   58  181 1    
   118   58  182 1    
   119   58  183 1    
   120   59   60 am   BACKBONE|DICT|INTERRES
   121   59  184 1    
   122   60   61 2    
   123   60   62 1    
   124   62   63 1    
   125   62   64 1    
   126   62  185 1    
   127   63  186 1    
   128   63  187 1    
   129   63  188 1    
   130   64   65 am   BACKBONE|DICT|INTERRES
   131   64  189 1    
   132   65   66 2    
   133   67   68 2    
   134   67   69 am   BACKBONE|DICT|INTERRES
   135   69   70 1    
   136   69  190 1    
   137   70   71 1    
   138   70   72 1    
   139   70  191 1    
   140   71  192 1    
   141   71  193 1    
   142   71  194 1    
   143   72   73 2    
   144   72   74 am   BACKBONE|DICT|INTERRES
   145   74   75 1    
   146   74  195 1    
   147   75   76 1    
   148   75   77 1    
   149   75  196 1    
   150   76  197 1    
   151   76  198 1    
   152   76  199 1    
   153   77   78 2    
   154   77   79 am   BACKBONE|DICT|INTERRES
   155   79   80 1    
   156   79  200 1    
   157   80   81 1    
   158   80   82 1    
   159   80  201 1    
   160   81  202 1    
   161   81  203 1    
   162   81  204 1    
   163   82   83 2    
   164   82   84 am   BACKBONE|DICT|INTERRES
   165   84   85 1    
   166   84  205 1    
   167   85   86 1    
   168   85   87 1    
   169   85  206 1    
   170   86  207 1    
   171   86  208 1    
   172   86  209 1    
   173   87   88 2    
   174   87   89 am   BACKBONE|DICT|INTERRES
   175   89   90 1    
   176   89  210 1    
   177   90   91 1    
   178   90   92 1    
   179   90  211 1    
   180   91  212 1    
   181   91  213 1    
   182   91  214 1    
   183   92   93 2    
   184   92   94 am   BACKBONE|DICT|INTERRES
   185   94   95 1    
   186   94  215 1    
   187   95   96 1    
   188   95   97 1    
   189   95  216 1    
   190   96  217 1    
   191   96  218 1    
   192   96  219 1    
   193   97   98 2    
   194   97   99 am   BACKBONE|DICT|INTERRES
   195   99  100 1    
   196   99  220 1    
   197  100  101 1    
   198  100  102 1    
   199  100  221 1    
   200  101  222 1    
   201  101  223 1    
   202  101  224 1    
   203  102  103 2    
   204  102  104 am   BACKBONE|DICT|INTERRES
   205  104  105 1    
   206  104  225 1    
   207  105  106 1    
   208  105  107 1    
   209  105  226 1    
   210  106  227 1    
   211  106  228 1    
   212  106  229 1    
   213  107  108 2    
   214  107  109 am   BACKBONE|DICT|INTERRES
   215  109  110 1    
   216  109  230 1    
   217  110  111 1    
   218  110  112 1    
   219  110  231 1    
   220  111  232 1    
   221  111  233 1    
   222  111  234 1    
   223  112  113 2    
   224  112  114 am   BACKBONE|DICT|INTERRES
   225  114  115 1    
   226  114  235 1    
   227  115  116 1    
   228  115  117 1    
   229  115  236 1    
   230  116  237 1    
   231  116  238 1    
   232  116  239 1    
   233  117  118 2    
   234  117  119 am   BACKBONE|DICT|INTERRES
   235  119  120 1    
   236  119  240 1    
   237  120  121 1    
   238  120  124 1    
   239  120  241 1    
   240  121  122 am   BACKBONE|DICT|INTERRES
   241  121  123 2    
   242  122  242 1    
   243  122  243 1    
   244  124  125 1    
   245  124  244 1    
   246  124  245 1    
   247  125  126 1    
   248  126  246 1    
   249  126  247 1    
@<TRIPOS>SUBSTRUCTURE
     1 UNK         1 GROUP             0       ****    0 ROOT    
