@<TRIPOS>MOLECULE
3R540
247   249    1
SMALL
USER_CHARGES


@<TRIPOS>ATOM
      1 CA         -2.8682  -14.2416  -43.5887 C.3       0 UNK        -0.1800 
      2 C          -2.2180  -13.0611  -44.2980 C.2       0 UNK         0.5000 
      3 O          -1.9107  -12.0542  -43.6596 O.2       0 UNK        -0.5000 
      4 N          -2.0168  -13.1812  -45.6150 N.am      1 UNK        -0.5000 
      5 CA         -1.3427  -12.2012  -46.4723 C.3       1 UNK         0.1400 
      6 C6         -1.6716  -12.4181  -47.9755 C.3       23 UNK        -0.0398 
      7 S7         -1.6304  -14.1521  -48.5517 S.3       23 UNK        -0.2404 
      8 C8          0.0437  -14.2826  -49.2437 C.3       23 UNK        -0.0205 
      9 C9          0.2002  -15.5759  -50.0265 C.ar      23 UNK        -0.0193 
     10 C10        -0.0904  -15.6079  -51.3920 C.ar      23 UNK        -0.1150 
     11 C11         0.0313  -16.7970  -52.1167 C.ar      23 UNK        -0.0193 
     12 C12         0.4664  -17.9575  -51.4679 C.ar      23 UNK        -0.1150 
     13 C13         0.7591  -17.9390  -50.1004 C.ar      23 UNK        -0.0193 
     14 C14         0.6232  -16.7443  -49.3884 C.ar      23 UNK        -0.1150 
     15 C15         1.2111  -19.2058  -49.3871 C.3       23 UNK        -0.0205 
     16 S16        -0.1802  -19.9891  -48.5199 S.3       23 UNK        -0.2404 
     17 C17         0.5536  -21.5712  -47.9700 C.3       23 UNK        -0.0398 
     18 CA         -0.3178  -22.4555  -47.0295 C.3       11 UNK         0.1400 
     19 N          -0.2044  -22.0969  -45.6077 N.am      11 UNK        -0.5000 
     20 C          -0.6304  -22.8925  -44.6111 C.2       10 UNK         0.5000 
     21 O          -1.1603  -23.9862  -44.7980 O.2       10 UNK        -0.5000 
     22 CA         -0.4831  -22.3904  -43.1650 C.3       10 UNK         0.1400 
     23 CB          0.9669  -22.5327  -42.6815 C.3       10 UNK        -0.1800 
     24 N          -0.9473  -21.0169  -42.9869 N.am      10 UNK        -0.5000 
     25 C          -2.2117  -20.6105  -43.1768 C.2       9 UNK         0.5000 
     26 O          -3.1343  -21.3638  -43.4870 O.2       9 UNK        -0.5000 
     27 CA         -2.4759  -19.0970  -43.0632 C.3       9 UNK         0.1400 
     28 CB         -2.6124  -18.6626  -41.5968 C.3       9 UNK        -0.1800 
     29 N          -1.4296  -18.3095  -43.7138 N.am      9 UNK        -0.5000 
     30 C          -1.1387  -18.3813  -45.0201 C.2       8 UNK         0.5000 
     31 O          -1.7918  -19.0434  -45.8252 O.2       8 UNK        -0.5000 
     32 CA          0.1259  -17.6411  -45.4834 C.3       8 UNK         0.1400 
     33 CB         -0.1625  -16.1548  -45.7238 C.3       8 UNK        -0.1800 
     34 N           1.2185  -17.7954  -44.5222 N.am      8 UNK        -0.5000 
     35 C           1.9285  -18.9251  -44.3827 C.2       7 UNK         0.5000 
     36 O           1.7733  -19.9175  -45.0942 O.2       7 UNK        -0.5000 
     37 CA          2.9569  -18.9734  -43.2358 C.3       7 UNK         0.1400 
     38 CB          4.3501  -18.5567  -43.7278 C.3       7 UNK        -0.1800 
     39 N           2.5685  -18.1442  -42.0934 N.am      7 UNK        -0.5000 
     40 C           1.5784  -18.4646  -41.2471 C.2       6 UNK         0.5000 
     41 O           0.9251  -19.5034  -41.3307 O.2       6 UNK        -0.5000 
     42 CA          1.2136  -17.4302  -40.1647 C.3       6 UNK         0.1400 
     43 CB          2.0721  -17.6370  -38.9086 C.3       6 UNK        -0.1800 
     44 N           1.3502  -16.0466  -40.6222 N.am      6 UNK        -0.5000 
     45 C           0.6908  -15.5154  -41.6598 C.2       5 UNK         0.5000 
     46 O          -0.1496  -16.1324  -42.3137 O.2       5 UNK        -0.5000 
     47 CA          1.0706  -14.0852  -42.0838 C.3       5 UNK         0.1400 
     48 CB          1.6280  -13.2246  -40.9291 C.3       5 UNK        -0.1800 
     49 N           1.9938  -14.0776  -43.2238 N.am      5 UNK        -0.5000 
     50 C           3.2107  -14.6364  -43.2912 C.2       4 UNK         0.5000 
     51 O           3.6889  -15.3607  -42.4164 O.2       4 UNK        -0.5000 
     52 CA          4.0005  -14.3808  -44.5813 C.3       4 UNK         0.1400 
     53 CB          5.5232  -14.5012  -44.3774 C.3       4 UNK        -0.1800 
     54 N           3.5540  -15.3496  -45.5786 N.am      4 UNK        -0.5000 
     55 C           3.5723  -15.2694  -46.9156 C.2       3 UNK         0.5000 
     56 O           3.2483  -16.2398  -47.5947 O.2       3 UNK        -0.5000 
     57 CA          3.9532  -13.9486  -47.6171 C.3       3 UNK         0.1400 
     58 CB          3.9965  -14.0702  -49.1547 C.3       3 UNK        -0.1800 
     59 N           3.0099  -12.9062  -47.2255 N.am      3 UNK        -0.5000 
     60 C           3.2680  -11.5963  -47.1886 C.2       2 UNK         0.5000 
     61 O           4.3055  -11.1040  -47.6352 O.2       2 UNK        -0.5000 
     62 CA          2.2173  -10.6892  -46.5012 C.3       2 UNK         0.1400 
     63 CB          2.3843   -9.2072  -46.8842 C.3       2 UNK        -0.1800 
     64 N           0.8151  -11.0662  -46.7184 N.am      2 UNK        -0.5000 
     65 C           0.1777  -12.1248  -46.2012 C.2       1 UNK         0.5000 
     66 O           0.7515  -13.0033  -45.5506 O.2       1 UNK        -0.5000 
     67 C          -1.7902  -22.5906  -47.4805 C.2       11 UNK         0.5000 
     68 O          -2.1141  -23.5096  -48.2375 O.2       11 UNK        -0.5000 
     69 N          -2.6589  -21.7013  -46.9775 N.am      12 UNK        -0.5000 
     70 CA         -4.1018  -21.7281  -47.2004 C.3       12 UNK         0.1400 
     71 CB         -4.7312  -20.4310  -46.6725 C.3       12 UNK        -0.1800 
     72 C          -4.7680  -22.9637  -46.5712 C.2       12 UNK         0.5000 
     73 O          -5.5816  -23.6114  -47.2286 O.2       12 UNK        -0.5000 
     74 N          -4.3963  -23.2866  -45.3262 N.am      13 UNK        -0.5000 
     75 CA         -4.9082  -24.4438  -44.5943 C.3       13 UNK         0.1400 
     76 CB         -4.5098  -24.3310  -43.1145 C.3       13 UNK        -0.1800 
     77 C          -4.4370  -25.7869  -45.1805 C.2       13 UNK         0.5000 
     78 O          -5.2462  -26.7059  -45.3147 O.2       13 UNK        -0.5000 
     79 N          -3.1394  -25.8856  -45.4960 N.am      14 UNK        -0.5000 
     80 CA         -2.4970  -27.1295  -45.9135 C.3       14 UNK         0.1400 
     81 CB         -0.9876  -27.0430  -45.6380 C.3       14 UNK        -0.1800 
     82 C          -2.7410  -27.4896  -47.3867 C.2       14 UNK         0.5000 
     83 O          -2.9056  -28.6733  -47.6867 O.2       14 UNK        -0.5000 
     84 N          -2.7129  -26.4912  -48.2806 N.am      15 UNK        -0.5000 
     85 CA         -2.6221  -26.7183  -49.7256 C.3       15 UNK         0.1400 
     86 CB         -1.1408  -26.6237  -50.1402 C.3       15 UNK        -0.1800 
     87 C          -3.4927  -25.7674  -50.5612 C.2       15 UNK         0.5000 
     88 O          -3.3379  -25.7536  -51.7830 O.2       15 UNK        -0.5000 
     89 N          -4.3576  -24.9632  -49.9226 N.am      16 UNK        -0.5000 
     90 CA         -5.1865  -23.9218  -50.5508 C.3       16 UNK         0.1400 
     91 CB         -6.3098  -24.5554  -51.3974 C.3       16 UNK        -0.1800 
     92 C          -4.3456  -22.8875  -51.3314 C.2       16 UNK         0.5000 
     93 O          -4.7309  -22.4704  -52.4251 O.2       16 UNK        -0.5000 
     94 N          -3.1809  -22.5395  -50.7616 N.am      17 UNK        -0.5000 
     95 CA         -2.1391  -21.6802  -51.3279 C.3       17 UNK         0.1400 
     96 CB         -2.6318  -20.2244  -51.4249 C.3       17 UNK        -0.1800 
     97 C          -1.6021  -22.2416  -52.6594 C.2       17 UNK         0.5000 
     98 O          -1.5942  -21.5450  -53.6734 O.2       17 UNK        -0.5000 
     99 N          -1.2194  -23.5283  -52.6321 N.am      18 UNK        -0.5000 
    100 CA        -0.7932  -24.3484  -53.7751 C.3       18 UNK         0.1400 
    101 CB         0.5666  -23.8635  -54.3190 C.3       18 UNK        -0.1800 
    102 C         -1.8846  -24.4465  -54.8640 C.2       18 UNK         0.5000 
    103 O         -1.5902  -24.3537  -56.0566 O.2       18 UNK        -0.5000 
    104 N         -3.1362  -24.5939  -54.4071 N.am      19 UNK        -0.5000 
    105 CA        -4.3936  -24.6245  -55.1608 C.3       19 UNK         0.1400 
    106 CB        -4.4360  -25.8487  -56.0980 C.3       19 UNK        -0.1800 
    107 C         -4.7529  -23.3147  -55.8991 C.2       19 UNK         0.5000 
    108 O         -5.7376  -23.3027  -56.6402 O.2       19 UNK        -0.5000 
    109 N         -3.9841  -22.2358  -55.6957 N.am      20 UNK        -0.5000 
    110 CA        -4.1884  -20.9462  -56.3564 C.3       20 UNK         0.1400 
    111 CB        -2.8255  -20.2688  -56.5662 C.3       20 UNK        -0.1800 
    112 C         -5.1386  -20.0155  -55.5820 C.2       20 UNK         0.5000 
    113 O         -5.5935  -19.0256  -56.1579 O.2       20 UNK        -0.5000 
    114 N         -5.4057  -20.3187  -54.3017 N.am      21 UNK        -0.5000 
    115 CA        -6.2082  -19.5745  -53.3192 C.3       21 UNK         0.1400 
    116 CB        -7.6726  -19.4284  -53.7740 C.3       21 UNK        -0.1800 
    117 C         -5.6083  -18.2156  -52.9009 C.2       21 UNK         0.5000 
    118 O         -5.5575  -17.9255  -51.7056 O.2       21 UNK        -0.5000 
    119 N         -5.1535  -17.4255  -53.8803 N.am      22 UNK        -0.5000 
    120 CA        -4.4332  -16.1472  -53.7378 C.3       22 UNK         0.1400 
    121 C         -5.2725  -14.9766  -53.1378 C.2       22 UNK         0.5000 
    122 N         -6.5957  -15.0698  -53.0841 N.am      22 UNK        -0.7600 
    123 O         -4.7252  -13.9478  -52.7501 O.2       22 UNK        -0.5000 
    124 C124       -3.0493  -16.3092  -53.0469 C.3       23 UNK        -0.0398 
    125 S125       -1.9706  -17.5110  -53.9039 S.3       23 UNK        -0.2404 
    126 C126       -0.3117  -16.8246  -53.5991 C.3       23 UNK        -0.0205 
    127 H127       -2.3109  -14.4948  -42.6874 H         1 UNK         0.0600 
    128 H128       -2.9012  -15.1280  -44.2230 H         1 UNK         0.0600 
    129 H129       -3.8879  -13.9896  -43.2986 H         1 UNK         0.0600 
    130 H130       -2.2733  -14.0390  -46.0820 H         1 UNK         0.3000 
    131 H131       -1.7392  -11.2205  -46.2002 H         1 UNK         0.0600 
    132 H132       -2.6889  -12.0669  -48.1531 H         1 UNK         0.0800 
    133 H133       -1.0495  -11.7986  -48.6233 H         1 UNK         0.0800 
    134 H134        0.2494  -13.4286  -49.8908 H         1 UNK         0.0800 
    135 H135        0.7720  -14.2460  -48.4336 H         1 UNK         0.0800 
    136 H136       -0.4257  -14.7074  -51.8870 H         1 UNK         0.1150 
    137 H137        0.5587  -18.8785  -52.0263 H         1 UNK         0.1150 
    138 H138        0.8409  -16.7273  -48.3321 H         1 UNK         0.1150 
    139 H139        1.6403  -19.9099  -50.1013 H         1 UNK         0.0800 
    140 H140        1.9978  -18.9666  -48.6693 H         1 UNK         0.0800 
    141 H141        1.5162  -21.3660  -47.4994 H         1 UNK         0.0800 
    142 H142        0.7862  -22.1407  -48.8711 H         1 UNK         0.0800 
    143 H143        0.1009  -23.4619  -47.1045 H         1 UNK         0.0600 
    144 H144        0.2514  -21.2161  -45.3911 H         1 UNK         0.3000 
    145 H145       -1.1062  -23.0264  -42.5327 H         1 UNK         0.0600 
    146 H146        1.0658  -22.2416  -41.6358 H         1 UNK         0.0600 
    147 H147        1.3035  -23.5670  -42.7630 H         1 UNK         0.0600 
    148 H148        1.6505  -21.9209  -43.2682 H         1 UNK         0.0600 
    149 H149       -0.2603  -20.3436  -42.6632 H         1 UNK         0.3000 
    150 H150       -3.4184  -18.8831  -43.5716 H         1 UNK         0.0600 
    151 H151       -3.4248  -19.2000  -41.1064 H         1 UNK         0.0600 
    152 H152       -2.8318  -17.5973  -41.5203 H         1 UNK         0.0600 
    153 H153       -1.7019  -18.8574  -41.0307 H         1 UNK         0.0600 
    154 H154       -0.8841  -17.6869  -43.1244 H         1 UNK         0.3000 
    155 H155        0.4389  -18.0765  -46.4328 H         1 UNK         0.0600 
    156 H156        0.6948  -15.6524  -46.1676 H         1 UNK         0.0600 
    157 H157       -0.4175  -15.6277  -44.8066 H         1 UNK         0.0600 
    158 H158       -0.9987  -16.0370  -46.4119 H         1 UNK         0.0600 
    159 H159        1.3132  -17.0693  -43.8267 H         1 UNK         0.3000 
    160 H160        3.0245  -20.0091  -42.8978 H         1 UNK         0.0600 
    161 H161        4.3723  -17.5197  -44.0561 H         1 UNK         0.0600 
    162 H162        4.6680  -19.1741  -44.5690 H         1 UNK         0.0600 
    163 H163        5.0951  -18.6720  -42.9405 H         1 UNK         0.0600 
    164 H164        3.0439  -17.2536  -41.9830 H         1 UNK         0.3000 
    165 H165        0.1676  -17.5886  -39.8951 H         1 UNK         0.0600 
    166 H166        1.7659  -16.9654  -38.1064 H         1 UNK         0.0600 
    167 H167        1.9747  -18.6565  -38.5329 H         1 UNK         0.0600 
    168 H168        3.1295  -17.4604  -39.1103 H         1 UNK         0.0600 
    169 H169        2.0633  -15.4893  -40.1745 H         1 UNK         0.3000 
    170 H170        0.1502  -13.6132  -42.4283 H         1 UNK         0.0600 
    171 H171        0.9456  -13.2210  -40.0781 H         1 UNK         0.0600 
    172 H172        2.5982  -13.5753  -40.5761 H         1 UNK         0.0600 
    173 H173        1.7506  -12.1887  -41.2455 H         1 UNK         0.0600 
    174 H174        1.6338  -13.6039  -44.0508 H         1 UNK         0.3000 
    175 H175        3.7825  -13.3575  -44.8781 H         1 UNK         0.0600 
    176 H176        5.8170  -15.5151  -44.1037 H         1 UNK         0.0600 
    177 H177        6.0730  -14.2296  -45.2776 H         1 UNK         0.0600 
    178 H178        5.8618  -13.8369  -43.5814 H         1 UNK         0.0600 
    179 H179        3.2307  -16.2195  -45.1849 H         1 UNK         0.3000 
    180 H180        4.9528  -13.6789  -47.2730 H         1 UNK         0.0600 
    181 H181        4.3222  -13.1392  -49.6183 H         1 UNK         0.0600 
    182 H182        3.0202  -14.3244  -49.5676 H         1 UNK         0.0600 
    183 H183        4.6964  -14.8468  -49.4650 H         1 UNK         0.0600 
    184 H184        2.1561  -13.2235  -46.7741 H         1 UNK         0.3000 
    185 H185        2.4114  -10.7693  -45.4296 H         1 UNK         0.0600 
    186 H186        3.3846   -8.8451  -46.6429 H         1 UNK         0.0600 
    187 H187        2.2250   -9.0493  -47.9516 H         1 UNK         0.0600 
    188 H188        1.6794   -8.5766  -46.3419 H         1 UNK         0.0600 
    189 H189        0.2797  -10.4070  -47.2647 H         1 UNK         0.3000 
    190 H190       -2.3007  -20.9388  -46.4099 H         1 UNK         0.3000 
    191 H191       -4.2744  -21.7658  -48.2766 H         1 UNK         0.0600 
    192 H192       -4.3141  -19.5596  -47.1780 H         1 UNK         0.0600 
    193 H193       -5.8086  -20.4216  -46.8415 H         1 UNK         0.0600 
    194 H194       -4.5636  -20.3064  -45.6024 H         1 UNK         0.0600 
    195 H195       -3.7492  -22.6818  -44.8287 H         1 UNK         0.3000 
    196 H196       -5.9987  -24.4223  -44.6502 H         1 UNK         0.0600 
    197 H197       -4.8819  -25.1815  -42.5420 H         1 UNK         0.0600 
    198 H198       -4.9242  -23.4292  -42.6636 H         1 UNK         0.0600 
    199 H199       -3.4267  -24.2982  -42.9906 H         1 UNK         0.0600 
    200 H200       -2.5235  -25.0934  -45.3217 H         1 UNK         0.3000 
    201 H201       -2.8955  -27.9437  -45.3041 H         1 UNK         0.0600 
    202 H202       -0.7895  -26.8482  -44.5838 H         1 UNK         0.0600 
    203 H203       -0.5169  -26.2493  -46.2196 H         1 UNK         0.0600 
    204 H204       -0.4885  -27.9781  -45.8953 H         1 UNK         0.0600 
    205 H205       -2.5617  -25.5387  -47.9653 H         1 UNK         0.3000 
    206 H206       -2.9796  -27.7189  -49.9758 H         1 UNK         0.0600 
    207 H207       -0.5332  -27.3470  -49.5964 H         1 UNK         0.0600 
    208 H208       -1.0084  -26.8316  -51.2026 H         1 UNK         0.0600 
    209 H209       -0.7339  -25.6313  -49.9424 H         1 UNK         0.0600 
    210 H210       -4.4295  -25.0317  -48.9165 H         1 UNK         0.3000 
    211 H211       -5.6679  -23.3625  -49.7505 H         1 UNK         0.0600 
    212 H212       -5.9156  -25.1417  -52.2263 H         1 UNK         0.0600 
    213 H213       -6.9656  -23.7917  -51.8172 H         1 UNK         0.0600 
    214 H214       -6.9302  -25.2146  -50.7904 H         1 UNK         0.0600 
    215 H215       -2.9413  -22.9759  -49.8752 H         1 UNK         0.3000 
    216 H216       -1.3042  -21.7027  -50.6282 H         1 UNK         0.0600 
    217 H217       -1.8189  -19.5622  -51.7171 H         1 UNK         0.0600 
    218 H218       -3.0097  -19.8679  -50.4667 H         1 UNK         0.0600 
    219 H219       -3.4228  -20.1107  -52.1644 H         1 UNK         0.0600 
    220 H220       -1.3238  -24.0280  -51.7614 H         1 UNK         0.3000 
    221 H221       -0.6542  -25.3608  -53.3932 H         1 UNK         0.0600 
    222 H222        0.4942  -22.8727  -54.7688 H         1 UNK         0.0600 
    223 H223        1.3142  -23.8184  -53.5272 H         1 UNK         0.0600 
    224 H224        0.9453  -24.5422  -55.0840 H         1 UNK         0.0600 
    225 H225       -3.2453  -24.7159  -53.4036 H         1 UNK         0.3000 
    226 H226       -5.1764  -24.7595  -54.4148 H         1 UNK         0.0600 
    227 H227       -4.2116  -26.7674  -55.5559 H         1 UNK         0.0600 
    228 H228       -5.4249  -25.9700  -56.5414 H         1 UNK         0.0600 
    229 H229       -3.7217  -25.7577  -56.9166 H         1 UNK         0.0600 
    230 H230       -3.2019  -22.2979  -55.0548 H         1 UNK         0.3000 
    231 H231       -4.6272  -21.1106  -57.3427 H         1 UNK         0.0600 
    232 H232       -2.3553  -20.0078  -55.6188 H         1 UNK         0.0600 
    233 H233       -2.9317  -19.3470  -57.1393 H         1 UNK         0.0600 
    234 H234       -2.1408  -20.9166  -57.1137 H         1 UNK         0.0600 
    235 H235       -4.9696  -21.1531  -53.9193 H         1 UNK         0.3000 
    236 H236       -6.2127  -20.1957  -52.4224 H         1 UNK         0.0600 
    237 H237       -8.1104  -20.3994  -54.0055 H         1 UNK         0.0600 
    238 H238       -8.2787  -18.9778  -52.9872 H         1 UNK         0.0600 
    239 H239       -7.7682  -18.7977  -54.6579 H         1 UNK         0.0600 
    240 H240       -5.2613  -17.7704  -54.8305 H         1 UNK         0.3000 
    241 H241       -4.2348  -15.8267  -54.7609 H         1 UNK         0.0600 
    242 H242       -7.1337  -14.3050  -52.7079 H         1 UNK         0.3800 
    243 H243       -7.0617  -15.9023  -53.4072 H         1 UNK         0.3800 
    244 H244       -2.5330  -15.3489  -53.0205 H         1 UNK         0.0800 
    245 H245       -3.1661  -16.6218  -52.0081 H         1 UNK         0.0800 
    246 H246        0.4226  -17.4319  -54.1301 H         1 UNK         0.0800 
    247 H247       -0.2477  -15.8241  -54.0297 H         1 UNK         0.0800 
@<TRIPOS>BOND
     1    1    2 1    
     2    1  127 1    
     3    1  128 1    
     4    1  129 1    
     5    2    3 2    
     6    2    4 am   BACKBONE|DICT|INTERRES
     7    4    5 1    
     8    4  130 1    
     9    5    6 1    
    10    5   65 1    
    11    5  131 1    
    12    6    7 1    
    13    6  132 1    
    14    6  133 1    
    15    7    8 1    
    16    8    9 1    
    17    8  134 1    
    18    8  135 1    
    19    9   10 ar   
    20    9   14 ar   
    21   10   11 ar   
    22   10  136 1    
    23   11   12 ar   
    24   11  126 1    
    25   12   13 ar   
    26   12  137 1    
    27   13   14 ar   
    28   13   15 1    
    29   14  138 1    
    30   15   16 1    
    31   15  139 1    
    32   15  140 1    
    33   16   17 1    
    34   17   18 1    
    35   17  141 1    
    36   17  142 1    
    37   18   19 1    
    38   18   67 1    
    39   18  143 1    
    40   19   20 am   BACKBONE|DICT|INTERRES
    41   19  144 1    
    42   20   21 2    
    43   20   22 1    
    44   22   23 1    
    45   22   24 1    
    46   22  145 1    
    47   23  146 1    
    48   23  147 1    
    49   23  148 1    
    50   24   25 am   BACKBONE|DICT|INTERRES
    51   24  149 1    
    52   25   26 2    
    53   25   27 1    
    54   27   28 1    
    55   27   29 1    
    56   27  150 1    
    57   28  151 1    
    58   28  152 1    
    59   28  153 1    
    60   29   30 am   BACKBONE|DICT|INTERRES
    61   29  154 1    
    62   30   31 2    
    63   30   32 1    
    64   32   33 1    
    65   32   34 1    
    66   32  155 1    
    67   33  156 1    
    68   33  157 1    
    69   33  158 1    
    70   34   35 am   BACKBONE|DICT|INTERRES
    71   34  159 1    
    72   35   36 2    
    73   35   37 1    
    74   37   38 1    
    75   37   39 1    
    76   37  160 1    
    77   38  161 1    
    78   38  162 1    
    79   38  163 1    
    80   39   40 am   BACKBONE|DICT|INTERRES
    81   39  164 1    
    82   40   41 2    
    83   40   42 1    
    84   42   43 1    
    85   42   44 1    
    86   42  165 1    
    87   43  166 1    
    88   43  167 1    
    89   43  168 1    
    90   44   45 am   BACKBONE|DICT|INTERRES
    91   44  169 1    
    92   45   46 2    
    93   45   47 1    
    94   47   48 1    
    95   47   49 1    
    96   47  170 1    
    97   48  171 1    
    98   48  172 1    
    99   48  173 1    
   100   49   50 am   BACKBONE|DICT|INTERRES
   101   49  174 1    
   102   50   51 2    
   103   50   52 1    
   104   52   53 1    
   105   52   54 1    
   106   52  175 1    
   107   53  176 1    
   108   53  177 1    
   109   53  178 1    
   110   54   55 am   BACKBONE|DICT|INTERRES
   111   54  179 1    
   112   55   56 2    
   113   55   57 1    
   114   57   58 1    
   115   57   59 1    
   116   57  180 1    
   117   58  181 1    
   118   58  182 1    
   119   58  183 1    
   120   59   60 am   BACKBONE|DICT|INTERRES
   121   59  184 1    
   122   60   61 2    
   123   60   62 1    
   124   62   63 1    
   125   62   64 1    
   126   62  185 1    
   127   63  186 1    
   128   63  187 1    
   129   63  188 1    
   130   64   65 am   BACKBONE|DICT|INTERRES
   131   64  189 1    
   132   65   66 2    
   133   67   68 2    
   134   67   69 am   BACKBONE|DICT|INTERRES
   135   69   70 1    
   136   69  190 1    
   137   70   71 1    
   138   70   72 1    
   139   70  191 1    
   140   71  192 1    
   141   71  193 1    
   142   71  194 1    
   143   72   73 2    
   144   72   74 am   BACKBONE|DICT|INTERRES
   145   74   75 1    
   146   74  195 1    
   147   75   76 1    
   148   75   77 1    
   149   75  196 1    
   150   76  197 1    
   151   76  198 1    
   152   76  199 1    
   153   77   78 2    
   154   77   79 am   BACKBONE|DICT|INTERRES
   155   79   80 1    
   156   79  200 1    
   157   80   81 1    
   158   80   82 1    
   159   80  201 1    
   160   81  202 1    
   161   81  203 1    
   162   81  204 1    
   163   82   83 2    
   164   82   84 am   BACKBONE|DICT|INTERRES
   165   84   85 1    
   166   84  205 1    
   167   85   86 1    
   168   85   87 1    
   169   85  206 1    
   170   86  207 1    
   171   86  208 1    
   172   86  209 1    
   173   87   88 2    
   174   87   89 am   BACKBONE|DICT|INTERRES
   175   89   90 1    
   176   89  210 1    
   177   90   91 1    
   178   90   92 1    
   179   90  211 1    
   180   91  212 1    
   181   91  213 1    
   182   91  214 1    
   183   92   93 2    
   184   92   94 am   BACKBONE|DICT|INTERRES
   185   94   95 1    
   186   94  215 1    
   187   95   96 1    
   188   95   97 1    
   189   95  216 1    
   190   96  217 1    
   191   96  218 1    
   192   96  219 1    
   193   97   98 2    
   194   97   99 am   BACKBONE|DICT|INTERRES
   195   99  100 1    
   196   99  220 1    
   197  100  101 1    
   198  100  102 1    
   199  100  221 1    
   200  101  222 1    
   201  101  223 1    
   202  101  224 1    
   203  102  103 2    
   204  102  104 am   BACKBONE|DICT|INTERRES
   205  104  105 1    
   206  104  225 1    
   207  105  106 1    
   208  105  107 1    
   209  105  226 1    
   210  106  227 1    
   211  106  228 1    
   212  106  229 1    
   213  107  108 2    
   214  107  109 am   BACKBONE|DICT|INTERRES
   215  109  110 1    
   216  109  230 1    
   217  110  111 1    
   218  110  112 1    
   219  110  231 1    
   220  111  232 1    
   221  111  233 1    
   222  111  234 1    
   223  112  113 2    
   224  112  114 am   BACKBONE|DICT|INTERRES
   225  114  115 1    
   226  114  235 1    
   227  115  116 1    
   228  115  117 1    
   229  115  236 1    
   230  116  237 1    
   231  116  238 1    
   232  116  239 1    
   233  117  118 2    
   234  117  119 am   BACKBONE|DICT|INTERRES
   235  119  120 1    
   236  119  240 1    
   237  120  121 1    
   238  120  124 1    
   239  120  241 1    
   240  121  122 am   BACKBONE|DICT|INTERRES
   241  121  123 2    
   242  122  242 1    
   243  122  243 1    
   244  124  125 1    
   245  124  244 1    
   246  124  245 1    
   247  125  126 1    
   248  126  246 1    
   249  126  247 1    
@<TRIPOS>SUBSTRUCTURE
     1 UNK         1 GROUP             0       ****    0 ROOT    
