@<TRIPOS>MOLECULE
3R540
247   249    1
SMALL
USER_CHARGES


@<TRIPOS>ATOM
      1 CA          0.4354  -12.7423  -50.1279 C.3       0 UNK        -0.1800 
      2 C           1.8270  -12.6610  -49.5156 C.2       0 UNK         0.5000 
      3 O           2.3261  -11.5633  -49.2657 O.2       0 UNK        -0.5000 
      4 N           2.4523  -13.8202  -49.2819 N.am      1 UNK        -0.5000 
      5 CA          3.7486  -13.9685  -48.6102 C.3       1 UNK         0.1400 
      6 C6          4.3448  -15.3794  -48.8478 C.3       23 UNK        -0.0398 
      7 S7          4.7772  -15.6338  -50.6004 S.3       23 UNK        -0.2404 
      8 C8          5.0630  -17.4362  -50.6442 C.3       23 UNK        -0.0205 
      9 C9          3.8083  -18.2928  -50.4789 C.ar      23 UNK        -0.0193 
     10 C10         2.5566  -17.8676  -50.9415 C.ar      23 UNK        -0.1150 
     11 C11         1.4307  -18.6825  -50.8046 C.ar      23 UNK        -0.0193 
     12 C12         1.5606  -19.9424  -50.2159 C.ar      23 UNK        -0.1150 
     13 C13         2.8058  -20.3911  -49.7662 C.ar      23 UNK        -0.0193 
     14 C14         3.9218  -19.5592  -49.8952 C.ar      23 UNK        -0.1150 
     15 C15         2.9546  -21.7913  -49.1858 C.3       23 UNK        -0.0205 
     16 S16         3.1464  -21.8053  -47.3713 S.3       23 UNK        -0.2404 
     17 C17         1.5766  -21.0772  -46.7919 C.3       23 UNK        -0.0398 
     18 CA          0.4816  -22.1140  -46.4378 C.3       11 UNK         0.1400 
     19 N          -0.5770  -21.5154  -45.6213 N.am      11 UNK        -0.5000 
     20 C          -1.6049  -22.1737  -45.0680 C.2       10 UNK         0.5000 
     21 O          -1.7424  -23.3949  -45.1197 O.2       10 UNK        -0.5000 
     22 CA         -2.6907  -21.3181  -44.3887 C.3       10 UNK         0.1400 
     23 CB         -2.2774  -20.9344  -42.9605 C.3       10 UNK        -0.1800 
     24 N          -3.0118  -20.1127  -45.1561 N.am      10 UNK        -0.5000 
     25 C          -3.5697  -20.1265  -46.3755 C.2       9 UNK         0.5000 
     26 O          -3.9376  -21.1538  -46.9448 O.2       9 UNK        -0.5000 
     27 CA         -3.6977  -18.7775  -47.1036 C.3       9 UNK         0.1400 
     28 CB         -4.9452  -18.0136  -46.6375 C.3       9 UNK        -0.1800 
     29 N          -2.5150  -17.9298  -46.9516 N.am      9 UNK        -0.5000 
     30 C          -1.2954  -18.2389  -47.4131 C.2       8 UNK         0.5000 
     31 O          -1.0546  -19.2522  -48.0659 O.2       8 UNK        -0.5000 
     32 CA         -0.1409  -17.2926  -47.0304 C.3       8 UNK         0.1400 
     33 CB         -0.1136  -16.0525  -47.9343 C.3       8 UNK        -0.1800 
     34 N          -0.2051  -16.8787  -45.6277 N.am      8 UNK        -0.5000 
     35 C          -0.1022  -17.7167  -44.5861 C.2       7 UNK         0.5000 
     36 O           0.1221  -18.9199  -44.6990 O.2       7 UNK        -0.5000 
     37 CA         -0.3518  -17.1279  -43.1884 C.3       7 UNK         0.1400 
     38 CB          0.9226  -16.4802  -42.6239 C.3       7 UNK        -0.1800 
     39 N          -1.4474  -16.1588  -43.2067 N.am      7 UNK        -0.5000 
     40 C          -2.7399  -16.4893  -43.3432 C.2       6 UNK         0.5000 
     41 O          -3.1411  -17.6508  -43.4177 O.2       6 UNK        -0.5000 
     42 CA         -3.7480  -15.3288  -43.4554 C.3       6 UNK         0.1400 
     43 CB         -4.1578  -14.8331  -42.0608 C.3       6 UNK        -0.1800 
     44 N          -3.2336  -14.2025  -44.2368 N.am      6 UNK        -0.5000 
     45 C          -2.9565  -14.2554  -45.5474 C.2       5 UNK         0.5000 
     46 O          -3.1665  -15.2456  -46.2448 O.2       5 UNK        -0.5000 
     47 CA         -2.2742  -13.0208  -46.1718 C.3       5 UNK         0.1400 
     48 CB         -3.3246  -12.0359  -46.7055 C.3       5 UNK        -0.1800 
     49 N          -1.3707  -12.3143  -45.2574 N.am      5 UNK        -0.5000 
     50 C          -0.3263  -12.8689  -44.6281 C.2       4 UNK         0.5000 
     51 O          -0.0140  -14.0569  -44.7402 O.2       4 UNK        -0.5000 
     52 CA          0.4415  -11.9663  -43.6544 C.3       4 UNK         0.1400 
     53 CB         -0.4277  -11.6499  -42.4192 C.3       4 UNK        -0.1800 
     54 N           1.6653  -12.6471  -43.2435 N.am      4 UNK        -0.5000 
     55 C           2.6970  -12.0835  -42.6073 C.2       3 UNK         0.5000 
     56 O           2.7537  -10.8852  -42.3302 O.2       3 UNK        -0.5000 
     57 CA          3.8724  -12.9970  -42.2082 C.3       3 UNK         0.1400 
     58 CB          3.7998  -13.3146  -40.7065 C.3       3 UNK        -0.1800 
     59 N           3.9204  -14.2656  -42.9432 N.am      3 UNK        -0.5000 
     60 C           4.3874  -14.4849  -44.1812 C.2       2 UNK         0.5000 
     61 O           4.4030  -15.6204  -44.6582 O.2       2 UNK        -0.5000 
     62 CA          4.9679  -13.3126  -45.0124 C.3       2 UNK         0.1400 
     63 CB          6.4655  -13.1320  -44.7114 C.3       2 UNK        -0.1800 
     64 N           4.8173  -13.5162  -46.4546 N.am      2 UNK        -0.5000 
     65 C           3.6511  -13.6559  -47.0994 C.2       1 UNK         0.5000 
     66 O           2.5537  -13.5563  -46.5466 O.2       1 UNK        -0.5000 
     67 C          -0.0957  -22.7942  -47.6962 C.2       11 UNK         0.5000 
     68 O           0.2414  -23.9451  -47.9700 O.2       11 UNK        -0.5000 
     69 N          -0.9809  -22.0913  -48.4170 N.am      12 UNK        -0.5000 
     70 CA         -1.6752  -22.6006  -49.5996 C.3       12 UNK         0.1400 
     71 CB         -2.4672  -21.4657  -50.2604 C.3       12 UNK        -0.1800 
     72 C          -2.5798  -23.8059  -49.2832 C.2       12 UNK         0.5000 
     73 O          -2.5476  -24.7934  -50.0176 O.2       12 UNK        -0.5000 
     74 N          -3.3161  -23.7361  -48.1651 N.am      13 UNK        -0.5000 
     75 CA         -4.1327  -24.8334  -47.6459 C.3       13 UNK         0.1400 
     76 CB         -4.9622  -24.3413  -46.4509 C.3       13 UNK        -0.1800 
     77 C          -3.2935  -26.0689  -47.2651 C.2       13 UNK         0.5000 
     78 O          -3.6623  -27.1859  -47.6288 O.2       13 UNK        -0.5000 
     79 N          -2.1571  -25.8501  -46.5864 N.am      14 UNK        -0.5000 
     80 CA         -1.1851  -26.8869  -46.2234 C.3       14 UNK         0.1400 
     81 CB         -0.1350  -26.2970  -45.2702 C.3       14 UNK        -0.1800 
     82 C          -0.5085  -27.5395  -47.4454 C.2       14 UNK         0.5000 
     83 O          -0.2266  -28.7377  -47.4168 O.2       14 UNK        -0.5000 
     84 N          -0.3054  -26.7542  -48.5114 N.am      15 UNK        -0.5000 
     85 CA          0.1830  -27.1965  -49.8197 C.3       15 UNK         0.1400 
     86 CB          0.7604  -25.9833  -50.5686 C.3       15 UNK        -0.1800 
     87 C          -0.8860  -27.9182  -50.6725 C.2       15 UNK         0.5000 
     88 O          -0.5733  -28.3391  -51.7870 O.2       15 UNK        -0.5000 
     89 N          -2.1132  -28.0523  -50.1462 N.am      16 UNK        -0.5000 
     90 CA         -3.2859  -28.6998  -50.7421 C.3       16 UNK         0.1400 
     91 CB         -3.0180  -30.1893  -51.0466 C.3       16 UNK        -0.1800 
     92 C          -3.8832  -27.9309  -51.9387 C.2       16 UNK         0.5000 
     93 O          -4.5637  -28.5311  -52.7735 O.2       16 UNK        -0.5000 
     94 N          -3.6589  -26.6124  -51.9814 N.am      17 UNK        -0.5000 
     95 CA         -4.3637  -25.6736  -52.8501 C.3       17 UNK         0.1400 
     96 CB         -3.3762  -24.5788  -53.2956 C.3       17 UNK        -0.1800 
     97 C          -5.5741  -25.0854  -52.0952 C.2       17 UNK         0.5000 
     98 O          -5.8875  -25.5158  -50.9807 O.2       17 UNK        -0.5000 
     99 N          -6.2455  -24.1054  -52.7125 N.am      18 UNK        -0.5000 
    100 CA        -7.3030  -23.3161  -52.0791 C.3       18 UNK         0.1400 
    101 CB        -7.9742  -22.4323  -53.1416 C.3       18 UNK        -0.1800 
    102 C         -6.7417  -22.4482  -50.9370 C.2       18 UNK         0.5000 
    103 O         -5.6206  -21.9480  -51.0467 O.2       18 UNK        -0.5000 
    104 N         -7.5365  -22.2583  -49.8776 N.am      19 UNK        -0.5000 
    105 CA        -7.1891  -21.4583  -48.7016 C.3       19 UNK         0.1400 
    106 CB        -8.0508  -21.9241  -47.5142 C.3       19 UNK        -0.1800 
    107 C         -7.3289  -19.9469  -48.9816 C.2       19 UNK         0.5000 
    108 O         -8.1807  -19.2784  -48.3933 O.2       19 UNK        -0.5000 
    109 N         -6.4990  -19.4432  -49.8968 N.am      20 UNK        -0.5000 
    110 CA        -6.4064  -18.0484  -50.3068 C.3       20 UNK         0.1400 
    111 CB        -7.1903  -17.8523  -51.6142 C.3       20 UNK        -0.1800 
    112 C         -4.9258  -17.6997  -50.4961 C.2       20 UNK         0.5000 
    113 O         -4.1159  -18.5895  -50.7630 O.2       20 UNK        -0.5000 
    114 N         -4.5917  -16.4108  -50.3736 N.am      21 UNK        -0.5000 
    115 CA        -3.2275  -15.8698  -50.3881 C.3       21 UNK         0.1400 
    116 CB        -3.2550  -14.4841  -49.7201 C.3       21 UNK        -0.1800 
    117 C         -2.5579  -15.8349  -51.7833 C.2       21 UNK         0.5000 
    118 O         -1.8252  -14.8924  -52.0852 O.2       21 UNK        -0.5000 
    119 N         -2.8048  -16.8643  -52.6024 N.am      22 UNK        -0.5000 
    120 CA        -2.2350  -17.0911  -53.9439 C.3       22 UNK         0.1400 
    121 C         -2.6301  -16.0314  -55.0206 C.2       22 UNK         0.5000 
    122 N         -3.6745  -15.2381  -54.8155 N.am      22 UNK        -0.7600 
    123 O         -2.0081  -15.9467  -56.0765 O.2       22 UNK        -0.5000 
    124 C124       -0.7049  -17.3701  -53.9030 C.3       23 UNK        -0.0398 
    125 S125       -0.2943  -18.8759  -52.9520 S.3       23 UNK        -0.2404 
    126 C126        0.0779  -18.2038  -51.3025 C.3       23 UNK        -0.0205 
    127 H127        0.1533  -13.7704  -50.3565 H         1 UNK         0.0600 
    128 H128        0.3952  -12.1677  -51.0532 H         1 UNK         0.0600 
    129 H129       -0.3020  -12.3328  -49.4374 H         1 UNK         0.0600 
    130 H130        1.9882  -14.6841  -49.5148 H         1 UNK         0.3000 
    131 H131        4.4314  -13.2317  -49.0393 H         1 UNK         0.0600 
    132 H132        5.2556  -15.5317  -48.2661 H         1 UNK         0.0800 
    133 H133        3.6435  -16.1514  -48.5255 H         1 UNK         0.0800 
    134 H134        5.7965  -17.6883  -49.8766 H         1 UNK         0.0800 
    135 H135        5.5206  -17.6878  -51.6016 H         1 UNK         0.0800 
    136 H136        2.4534  -16.9046  -51.4202 H         1 UNK         0.1150 
    137 H137        0.6911  -20.5771  -50.1233 H         1 UNK         0.1150 
    138 H138        4.8858  -19.9096  -49.5535 H         1 UNK         0.1150 
    139 H139        2.1098  -22.4176  -49.4737 H         1 UNK         0.0800 
    140 H140        3.8328  -22.2644  -49.6272 H         1 UNK         0.0800 
    141 H141        1.2139  -20.3399  -47.5052 H         1 UNK         0.0800 
    142 H142        1.8317  -20.5084  -45.8975 H         1 UNK         0.0800 
    143 H143        0.9402  -22.8938  -45.8263 H         1 UNK         0.0600 
    144 H144       -0.5102  -20.5125  -45.4681 H         1 UNK         0.3000 
    145 H145       -3.5974  -21.9231  -44.3253 H         1 UNK         0.0600 
    146 H146       -3.0681  -20.3771  -42.4580 H         1 UNK         0.0600 
    147 H147       -2.0746  -21.8235  -42.3622 H         1 UNK         0.0600 
    148 H148       -1.3774  -20.3203  -42.9499 H         1 UNK         0.0600 
    149 H149       -2.7866  -19.2220  -44.7266 H         1 UNK         0.3000 
    150 H150       -3.8096  -19.0012  -48.1642 H         1 UNK         0.0600 
    151 H151       -5.8403  -18.6291  -46.7274 H         1 UNK         0.0600 
    152 H152       -5.1033  -17.1168  -47.2367 H         1 UNK         0.0600 
    153 H153       -4.8627  -17.7077  -45.5946 H         1 UNK         0.0600 
    154 H154       -2.6513  -17.0399  -46.4787 H         1 UNK         0.3000 
    155 H155        0.7969  -17.8337  -47.1731 H         1 UNK         0.0600 
    156 H156       -1.0522  -15.5028  -47.8918 H         1 UNK         0.0600 
    157 H157        0.0577  -16.3309  -48.9737 H         1 UNK         0.0600 
    158 H158        0.6842  -15.3713  -47.6394 H         1 UNK         0.0600 
    159 H159       -0.3363  -15.8897  -45.4391 H         1 UNK         0.3000 
    160 H160       -0.6331  -17.9466  -42.5226 H         1 UNK         0.0600 
    161 H161        1.3203  -15.7156  -43.2895 H         1 UNK         0.0600 
    162 H162        1.7055  -17.2275  -42.4897 H         1 UNK         0.0600 
    163 H163        0.7392  -16.0217  -41.6521 H         1 UNK         0.0600 
    164 H164       -1.1844  -15.1842  -43.2517 H         1 UNK         0.3000 
    165 H165       -4.6392  -15.7106  -43.9579 H         1 UNK         0.0600 
    166 H166       -4.9301  -14.0664  -42.1261 H         1 UNK         0.0600 
    167 H167       -4.5616  -15.6492  -41.4600 H         1 UNK         0.0600 
    168 H168       -3.3113  -14.4122  -41.5167 H         1 UNK         0.0600 
    169 H169       -3.0338  -13.3499  -43.7359 H         1 UNK         0.3000 
    170 H170       -1.6759  -13.3698  -47.0152 H         1 UNK         0.0600 
    171 H171       -4.0166  -12.5289  -47.3890 H         1 UNK         0.0600 
    172 H172       -3.9166  -11.6027  -45.8984 H         1 UNK         0.0600 
    173 H173       -2.8558  -11.2194  -47.2549 H         1 UNK         0.0600 
    174 H174       -1.5703  -11.3369  -45.1010 H         1 UNK         0.3000 
    175 H175        0.7030  -11.0434  -44.1758 H         1 UNK         0.0600 
    176 H176       -0.6924  -12.5567  -41.8737 H         1 UNK         0.0600 
    177 H177        0.0867  -10.9844  -41.7261 H         1 UNK         0.0600 
    178 H178       -1.3564  -11.1529  -42.7013 H         1 UNK         0.0600 
    179 H179        1.7068  -13.6205  -43.5195 H         1 UNK         0.3000 
    180 H180        4.7941  -12.4405  -42.3801 H         1 UNK         0.0600 
    181 H181        2.8984  -13.8759  -40.4564 H         1 UNK         0.0600 
    182 H182        3.7920  -12.4001  -40.1116 H         1 UNK         0.0600 
    183 H183        4.6609  -13.9007  -40.3847 H         1 UNK         0.0600 
    184 H184        3.5748  -15.0634  -42.4318 H         1 UNK         0.3000 
    185 H185        4.4440  -12.3880  -44.7718 H         1 UNK         0.0600 
    186 H186        6.6464  -12.9700  -43.6488 H         1 UNK         0.0600 
    187 H187        7.0410  -14.0108  -45.0055 H         1 UNK         0.0600 
    188 H188        6.8738  -12.2714  -45.2417 H         1 UNK         0.0600 
    189 H189        5.6764  -13.6204  -46.9739 H         1 UNK         0.3000 
    190 H190       -1.1774  -21.1284  -48.1537 H         1 UNK         0.3000 
    191 H191       -0.9144  -22.9338  -50.3080 H         1 UNK         0.0600 
    192 H192       -3.2562  -21.0891  -49.6091 H         1 UNK         0.0600 
    193 H193       -2.9381  -21.8044  -51.1832 H         1 UNK         0.0600 
    194 H194       -1.8220  -20.6272  -50.5190 H         1 UNK         0.0600 
    195 H195       -3.3225  -22.8687  -47.6360 H         1 UNK         0.3000 
    196 H196       -4.8236  -25.1308  -48.4373 H         1 UNK         0.0600 
    197 H197       -5.6273  -25.1259  -46.0886 H         1 UNK         0.0600 
    198 H198       -5.5820  -23.4891  -46.7266 H         1 UNK         0.0600 
    199 H199       -4.3299  -24.0352  -45.6177 H         1 UNK         0.0600 
    200 H200       -1.9436  -24.9038  -46.2813 H         1 UNK         0.3000 
    201 H201       -1.7235  -27.6720  -45.6888 H         1 UNK         0.0600 
    202 H202       -0.6001  -25.9062  -44.3651 H         1 UNK         0.0600 
    203 H203        0.4218  -25.4843  -45.7370 H         1 UNK         0.0600 
    204 H204        0.5858  -27.0561  -44.9641 H         1 UNK         0.0600 
    205 H205       -0.4974  -25.7614  -48.4183 H         1 UNK         0.3000 
    206 H206        0.9952  -27.9080  -49.6585 H         1 UNK         0.0600 
    207 H207        1.5402  -25.4934  -49.9852 H         1 UNK         0.0600 
    208 H208        1.2064  -26.2821  -51.5179 H         1 UNK         0.0600 
    209 H209       -0.0084  -25.2427  -50.7874 H         1 UNK         0.0600 
    210 H210       -2.2791  -27.6400  -49.2359 H         1 UNK         0.3000 
    211 H211       -4.0548  -28.6675  -49.9693 H         1 UNK         0.0600 
    212 H212       -2.3285  -30.3173  -51.8811 H         1 UNK         0.0600 
    213 H213       -3.9420  -30.7062  -51.3079 H         1 UNK         0.0600 
    214 H214       -2.5974  -30.6997  -50.1801 H         1 UNK         0.0600 
    215 H215       -3.1452  -26.1819  -51.2165 H         1 UNK         0.3000 
    216 H216       -4.7347  -26.1865  -53.7396 H         1 UNK         0.0600 
    217 H217       -3.8114  -23.9403  -54.0645 H         1 UNK         0.0600 
    218 H218       -2.4696  -25.0139  -53.7167 H         1 UNK         0.0600 
    219 H219       -3.0822  -23.9359  -52.4662 H         1 UNK         0.0600 
    220 H220       -5.9227  -23.7815  -53.6119 H         1 UNK         0.3000 
    221 H221       -8.0482  -24.0026  -51.6715 H         1 UNK         0.0600 
    222 H222       -7.2670  -21.7307  -53.5865 H         1 UNK         0.0600 
    223 H223       -8.4016  -23.0339  -53.9440 H         1 UNK         0.0600 
    224 H224       -8.7858  -21.8471  -52.7073 H         1 UNK         0.0600 
    225 H225       -8.4586  -22.6697  -49.8778 H         1 UNK         0.3000 
    226 H226       -6.1444  -21.6475  -48.4456 H         1 UNK         0.0600 
    227 H227       -7.9107  -22.9868  -47.3167 H         1 UNK         0.0600 
    228 H228       -7.7806  -21.3872  -46.6039 H         1 UNK         0.0600 
    229 H229       -9.1133  -21.7559  -47.6943 H         1 UNK         0.0600 
    230 H230       -5.8199  -20.0644  -50.3311 H         1 UNK         0.3000 
    231 H231       -6.8165  -17.3994  -49.5301 H         1 UNK         0.0600 
    232 H232       -8.2440  -18.0978  -51.4808 H         1 UNK         0.0600 
    233 H233       -6.7995  -18.4825  -52.4145 H         1 UNK         0.0600 
    234 H234       -7.1379  -16.8171  -51.9534 H         1 UNK         0.0600 
    235 H235       -5.3246  -15.7373  -50.2039 H         1 UNK         0.3000 
    236 H236       -2.6082  -16.5207  -49.7678 H         1 UNK         0.0600 
    237 H237       -2.2484  -14.0898  -49.5812 H         1 UNK         0.0600 
    238 H238       -3.8129  -13.7614  -50.3164 H         1 UNK         0.0600 
    239 H239       -3.7192  -14.5349  -48.7364 H         1 UNK         0.0600 
    240 H240       -3.3711  -17.6200  -52.2285 H         1 UNK         0.3000 
    241 H241       -2.7114  -18.0057  -54.2983 H         1 UNK         0.0600 
    242 H242       -3.9320  -14.5636  -55.5188 H         1 UNK         0.3800 
    243 H243       -4.1989  -15.2959  -53.9577 H         1 UNK         0.3800 
    244 H244       -0.1561  -16.5100  -53.5182 H         1 UNK         0.0800 
    245 H245       -0.3223  -17.5350  -54.9113 H         1 UNK         0.0800 
    246 H246       -0.7071  -18.5096  -50.6106 H         1 UNK         0.0800 
    247 H247        0.0579  -17.1144  -51.3173 H         1 UNK         0.0800 
@<TRIPOS>BOND
     1    1    2 1    
     2    1  127 1    
     3    1  128 1    
     4    1  129 1    
     5    2    3 2    
     6    2    4 am   BACKBONE|DICT|INTERRES
     7    4    5 1    
     8    4  130 1    
     9    5    6 1    
    10    5   65 1    
    11    5  131 1    
    12    6    7 1    
    13    6  132 1    
    14    6  133 1    
    15    7    8 1    
    16    8    9 1    
    17    8  134 1    
    18    8  135 1    
    19    9   10 ar   
    20    9   14 ar   
    21   10   11 ar   
    22   10  136 1    
    23   11   12 ar   
    24   11  126 1    
    25   12   13 ar   
    26   12  137 1    
    27   13   14 ar   
    28   13   15 1    
    29   14  138 1    
    30   15   16 1    
    31   15  139 1    
    32   15  140 1    
    33   16   17 1    
    34   17   18 1    
    35   17  141 1    
    36   17  142 1    
    37   18   19 1    
    38   18   67 1    
    39   18  143 1    
    40   19   20 am   BACKBONE|DICT|INTERRES
    41   19  144 1    
    42   20   21 2    
    43   20   22 1    
    44   22   23 1    
    45   22   24 1    
    46   22  145 1    
    47   23  146 1    
    48   23  147 1    
    49   23  148 1    
    50   24   25 am   BACKBONE|DICT|INTERRES
    51   24  149 1    
    52   25   26 2    
    53   25   27 1    
    54   27   28 1    
    55   27   29 1    
    56   27  150 1    
    57   28  151 1    
    58   28  152 1    
    59   28  153 1    
    60   29   30 am   BACKBONE|DICT|INTERRES
    61   29  154 1    
    62   30   31 2    
    63   30   32 1    
    64   32   33 1    
    65   32   34 1    
    66   32  155 1    
    67   33  156 1    
    68   33  157 1    
    69   33  158 1    
    70   34   35 am   BACKBONE|DICT|INTERRES
    71   34  159 1    
    72   35   36 2    
    73   35   37 1    
    74   37   38 1    
    75   37   39 1    
    76   37  160 1    
    77   38  161 1    
    78   38  162 1    
    79   38  163 1    
    80   39   40 am   BACKBONE|DICT|INTERRES
    81   39  164 1    
    82   40   41 2    
    83   40   42 1    
    84   42   43 1    
    85   42   44 1    
    86   42  165 1    
    87   43  166 1    
    88   43  167 1    
    89   43  168 1    
    90   44   45 am   BACKBONE|DICT|INTERRES
    91   44  169 1    
    92   45   46 2    
    93   45   47 1    
    94   47   48 1    
    95   47   49 1    
    96   47  170 1    
    97   48  171 1    
    98   48  172 1    
    99   48  173 1    
   100   49   50 am   BACKBONE|DICT|INTERRES
   101   49  174 1    
   102   50   51 2    
   103   50   52 1    
   104   52   53 1    
   105   52   54 1    
   106   52  175 1    
   107   53  176 1    
   108   53  177 1    
   109   53  178 1    
   110   54   55 am   BACKBONE|DICT|INTERRES
   111   54  179 1    
   112   55   56 2    
   113   55   57 1    
   114   57   58 1    
   115   57   59 1    
   116   57  180 1    
   117   58  181 1    
   118   58  182 1    
   119   58  183 1    
   120   59   60 am   BACKBONE|DICT|INTERRES
   121   59  184 1    
   122   60   61 2    
   123   60   62 1    
   124   62   63 1    
   125   62   64 1    
   126   62  185 1    
   127   63  186 1    
   128   63  187 1    
   129   63  188 1    
   130   64   65 am   BACKBONE|DICT|INTERRES
   131   64  189 1    
   132   65   66 2    
   133   67   68 2    
   134   67   69 am   BACKBONE|DICT|INTERRES
   135   69   70 1    
   136   69  190 1    
   137   70   71 1    
   138   70   72 1    
   139   70  191 1    
   140   71  192 1    
   141   71  193 1    
   142   71  194 1    
   143   72   73 2    
   144   72   74 am   BACKBONE|DICT|INTERRES
   145   74   75 1    
   146   74  195 1    
   147   75   76 1    
   148   75   77 1    
   149   75  196 1    
   150   76  197 1    
   151   76  198 1    
   152   76  199 1    
   153   77   78 2    
   154   77   79 am   BACKBONE|DICT|INTERRES
   155   79   80 1    
   156   79  200 1    
   157   80   81 1    
   158   80   82 1    
   159   80  201 1    
   160   81  202 1    
   161   81  203 1    
   162   81  204 1    
   163   82   83 2    
   164   82   84 am   BACKBONE|DICT|INTERRES
   165   84   85 1    
   166   84  205 1    
   167   85   86 1    
   168   85   87 1    
   169   85  206 1    
   170   86  207 1    
   171   86  208 1    
   172   86  209 1    
   173   87   88 2    
   174   87   89 am   BACKBONE|DICT|INTERRES
   175   89   90 1    
   176   89  210 1    
   177   90   91 1    
   178   90   92 1    
   179   90  211 1    
   180   91  212 1    
   181   91  213 1    
   182   91  214 1    
   183   92   93 2    
   184   92   94 am   BACKBONE|DICT|INTERRES
   185   94   95 1    
   186   94  215 1    
   187   95   96 1    
   188   95   97 1    
   189   95  216 1    
   190   96  217 1    
   191   96  218 1    
   192   96  219 1    
   193   97   98 2    
   194   97   99 am   BACKBONE|DICT|INTERRES
   195   99  100 1    
   196   99  220 1    
   197  100  101 1    
   198  100  102 1    
   199  100  221 1    
   200  101  222 1    
   201  101  223 1    
   202  101  224 1    
   203  102  103 2    
   204  102  104 am   BACKBONE|DICT|INTERRES
   205  104  105 1    
   206  104  225 1    
   207  105  106 1    
   208  105  107 1    
   209  105  226 1    
   210  106  227 1    
   211  106  228 1    
   212  106  229 1    
   213  107  108 2    
   214  107  109 am   BACKBONE|DICT|INTERRES
   215  109  110 1    
   216  109  230 1    
   217  110  111 1    
   218  110  112 1    
   219  110  231 1    
   220  111  232 1    
   221  111  233 1    
   222  111  234 1    
   223  112  113 2    
   224  112  114 am   BACKBONE|DICT|INTERRES
   225  114  115 1    
   226  114  235 1    
   227  115  116 1    
   228  115  117 1    
   229  115  236 1    
   230  116  237 1    
   231  116  238 1    
   232  116  239 1    
   233  117  118 2    
   234  117  119 am   BACKBONE|DICT|INTERRES
   235  119  120 1    
   236  119  240 1    
   237  120  121 1    
   238  120  124 1    
   239  120  241 1    
   240  121  122 am   BACKBONE|DICT|INTERRES
   241  121  123 2    
   242  122  242 1    
   243  122  243 1    
   244  124  125 1    
   245  124  244 1    
   246  124  245 1    
   247  125  126 1    
   248  126  246 1    
   249  126  247 1    
@<TRIPOS>SUBSTRUCTURE
     1 UNK         1 GROUP             0       ****    0 ROOT    
