@<TRIPOS>MOLECULE
3R540
247   249    1
SMALL
USER_CHARGES


@<TRIPOS>ATOM
      1 CA         -0.0013  -13.8679  -49.8301 C.3       0 UNK        -0.1800 
      2 C           0.7865  -14.9941  -49.1634 C.2       0 UNK         0.5000 
      3 O           1.4245  -15.7683  -49.8719 O.2       0 UNK        -0.5000 
      4 N           0.8054  -15.1384  -47.8278 N.am      1 UNK        -0.5000 
      5 CA          0.2352  -14.2788  -46.7749 C.3       1 UNK         0.1400 
      6 C6         -1.3168  -14.1735  -46.7856 C.3       23 UNK        -0.0398 
      7 S7         -2.0866  -15.7141  -46.1860 S.3       23 UNK        -0.2404 
      8 C8         -3.2416  -16.1622  -47.5245 C.3       23 UNK        -0.0205 
      9 C9         -2.6040  -16.8270  -48.7426 C.ar      23 UNK        -0.0193 
     10 C10        -3.2203  -16.6804  -49.9881 C.ar      23 UNK        -0.1150 
     11 C11        -2.6958  -17.3011  -51.1243 C.ar      23 UNK        -0.0193 
     12 C12        -1.5454  -18.0853  -51.0112 C.ar      23 UNK        -0.1150 
     13 C13        -0.9107  -18.2375  -49.7750 C.ar      23 UNK        -0.0193 
     14 C14        -1.4488  -17.6128  -48.6459 C.ar      23 UNK        -0.1150 
     15 C15         0.3837  -19.0320  -49.6739 C.3       23 UNK        -0.0205 
     16 S16         0.1246  -20.7022  -49.0034 S.3       23 UNK        -0.2404 
     17 C17         0.2553  -20.4032  -47.2056 C.3       23 UNK        -0.0398 
     18 CA          0.4116  -21.7085  -46.3797 C.3       11 UNK         0.1400 
     19 N           1.1896  -21.4700  -45.1614 N.am      11 UNK        -0.5000 
     20 C           1.9965  -22.3558  -44.5652 C.2       10 UNK         0.5000 
     21 O           2.1483  -23.5136  -44.9546 O.2       10 UNK        -0.5000 
     22 CA          2.7396  -21.8671  -43.3075 C.3       10 UNK         0.1400 
     23 CB          3.9842  -21.0519  -43.6903 C.3       10 UNK        -0.1800 
     24 N           1.8859  -21.0673  -42.4273 N.am      10 UNK        -0.5000 
     25 C           0.8664  -21.5637  -41.7126 C.2       9 UNK         0.5000 
     26 O           0.5595  -22.7556  -41.7010 O.2       9 UNK        -0.5000 
     27 CA          0.0365  -20.5604  -40.8913 C.3       9 UNK         0.1400 
     28 CB          0.7144  -20.2719  -39.5436 C.3       9 UNK        -0.1800 
     29 N          -0.1908  -19.3027  -41.6024 N.am      9 UNK        -0.5000 
     30 C          -0.9415  -19.1795  -42.7066 C.2       8 UNK         0.5000 
     31 O          -1.5790  -20.1036  -43.2081 O.2       8 UNK        -0.5000 
     32 CA         -0.9538  -17.8005  -43.3885 C.3       8 UNK         0.1400 
     33 CB         -1.9842  -16.8809  -42.7175 C.3       8 UNK        -0.1800 
     34 N           0.3620  -17.1565  -43.3914 N.am      8 UNK        -0.5000 
     35 C           1.4439  -17.6516  -44.0086 C.2       7 UNK         0.5000 
     36 O           1.4316  -18.6838  -44.6762 O.2       7 UNK        -0.5000 
     37 CA          2.7741  -16.9064  -43.8130 C.3       7 UNK         0.1400 
     38 CB          2.9596  -15.7933  -44.8521 C.3       7 UNK        -0.1800 
     39 N           2.8995  -16.3545  -42.4665 N.am      7 UNK        -0.5000 
     40 C           3.1809  -17.0898  -41.3833 C.2       6 UNK         0.5000 
     41 O           3.4041  -18.3007  -41.4152 O.2       6 UNK        -0.5000 
     42 CA          3.1663  -16.3468  -40.0360 C.3       6 UNK         0.1400 
     43 CB          4.4804  -15.5807  -39.8224 C.3       6 UNK        -0.1800 
     44 N           2.0370  -15.4215  -39.9225 N.am      6 UNK        -0.5000 
     45 C           0.7546  -15.8084  -39.8613 C.2       5 UNK         0.5000 
     46 O           0.3965  -16.9853  -39.8883 O.2       5 UNK        -0.5000 
     47 CA         -0.3141  -14.7017  -39.7896 C.3       5 UNK         0.1400 
     48 CB         -0.5969  -14.3274  -38.3271 C.3       5 UNK        -0.1800 
     49 N           0.0137  -13.4878  -40.5397 N.am      5 UNK        -0.5000 
     50 C           0.3000  -13.4205  -41.8471 C.2       4 UNK         0.5000 
     51 O           0.3871  -14.4067  -42.5818 O.2       4 UNK        -0.5000 
     52 CA          0.5527  -12.0218  -42.4448 C.3       4 UNK         0.1400 
     53 CB          0.4413  -10.8594  -41.4320 C.3       4 UNK        -0.1800 
     54 N           1.8347  -11.9667  -43.1479 N.am      4 UNK        -0.5000 
     55 C           3.0522  -12.2148  -42.6400 C.2       3 UNK         0.5000 
     56 O           3.2472  -12.5271  -41.4638 O.2       3 UNK        -0.5000 
     57 CA          4.2494  -12.1260  -43.6108 C.3       3 UNK         0.1400 
     58 CB          5.3179  -13.1884  -43.2944 C.3       3 UNK        -0.1800 
     59 N           3.8315  -12.2612  -45.0104 N.am      3 UNK        -0.5000 
     60 C           3.5605  -11.2425  -45.8377 C.2       2 UNK         0.5000 
     61 O           3.6900  -10.0571  -45.5322 O.2       2 UNK        -0.5000 
     62 CA          3.0115  -11.6131  -47.2289 C.3       2 UNK         0.1400 
     63 CB          4.1611  -11.8073  -48.2288 C.3       2 UNK        -0.1800 
     64 N           2.1732  -12.8164  -47.2237 N.am      2 UNK        -0.5000 
     65 C           0.9672  -12.9193  -46.6425 C.2       1 UNK         0.5000 
     66 O           0.4568  -12.0042  -45.9963 O.2       1 UNK        -0.5000 
     67 C          -0.9589  -22.3664  -46.0989 C.2       11 UNK         0.5000 
     68 O          -1.7398  -22.5223  -47.0338 O.2       11 UNK        -0.5000 
     69 N          -1.2563  -22.7463  -44.8475 N.am      12 UNK        -0.5000 
     70 CA         -2.5742  -23.2094  -44.3881 C.3       12 UNK         0.1400 
     71 CB         -2.4922  -23.5529  -42.8932 C.3       12 UNK        -0.1800 
     72 C          -3.1859  -24.3905  -45.1730 C.2       12 UNK         0.5000 
     73 O          -4.4108  -24.4944  -45.2480 O.2       12 UNK        -0.5000 
     74 N          -2.3321  -25.2459  -45.7487 N.am      13 UNK        -0.5000 
     75 CA         -2.7263  -26.3872  -46.5753 C.3       13 UNK         0.1400 
     76 CB         -1.7129  -27.5199  -46.3429 C.3       13 UNK        -0.1800 
     77 C          -2.8186  -26.0574  -48.0806 C.2       13 UNK         0.5000 
     78 O          -3.3166  -26.8936  -48.8361 O.2       13 UNK        -0.5000 
     79 N          -2.3161  -24.8893  -48.5057 N.am      14 UNK        -0.5000 
     80 CA         -2.1576  -24.5184  -49.9138 C.3       14 UNK         0.1400 
     81 CB         -0.6633  -24.3329  -50.2158 C.3       14 UNK        -0.1800 
     82 C          -2.9520  -23.2654  -50.3127 C.2       14 UNK         0.5000 
     83 O          -3.3424  -23.1638  -51.4768 O.2       14 UNK        -0.5000 
     84 N          -3.1919  -22.3436  -49.3723 N.am      15 UNK        -0.5000 
     85 CA         -3.9744  -21.1231  -49.5630 C.3       15 UNK         0.1400 
     86 CB         -3.9606  -20.3031  -48.2639 C.3       15 UNK        -0.1800 
     87 C          -5.4139  -21.4503  -50.0011 C.2       15 UNK         0.5000 
     88 O          -6.1189  -22.1713  -49.2917 O.2       15 UNK        -0.5000 
     89 N          -5.7907  -20.9517  -51.1858 N.am      16 UNK        -0.5000 
     90 CA         -7.0368  -21.2220  -51.9123 C.3       16 UNK         0.1400 
     91 CB         -8.2569  -20.6777  -51.1414 C.3       16 UNK        -0.1800 
     92 C          -7.2028  -22.6999  -52.3381 C.2       16 UNK         0.5000 
     93 O          -8.3262  -23.1395  -52.5882 O.2       16 UNK        -0.5000 
     94 N          -6.0877  -23.4343  -52.4375 N.am      17 UNK        -0.5000 
     95 CA         -6.0249  -24.8431  -52.8056 C.3       17 UNK         0.1400 
     96 CB         -6.0260  -25.7054  -51.5258 C.3       17 UNK        -0.1800 
     97 C          -4.8031  -25.0526  -53.7155 C.2       17 UNK         0.5000 
     98 O          -4.8181  -24.5823  -54.8539 O.2       17 UNK        -0.5000 
     99 N          -3.7654  -25.7352  -53.2103 N.am      18 UNK        -0.5000 
    100 CA        -2.5417  -26.0949  -53.9339 C.3       18 UNK         0.1400 
    101 CB        -1.6653  -26.9863  -53.0407 C.3       18 UNK        -0.1800 
    102 C         -1.7237  -24.9072  -54.4828 C.2       18 UNK         0.5000 
    103 O         -0.9932  -25.0922  -55.4571 O.2       18 UNK        -0.5000 
    104 N         -1.8798  -23.7056  -53.9071 N.am      19 UNK        -0.5000 
    105 CA        -1.2860  -22.4504  -54.3826 C.3       19 UNK         0.1400 
    106 CB        -1.2300  -21.4435  -53.2167 C.3       19 UNK        -0.1800 
    107 C         -2.0308  -21.8813  -55.6135 C.2       19 UNK         0.5000 
    108 O         -2.4040  -20.7071  -55.6205 O.2       19 UNK        -0.5000 
    109 N         -2.2690  -22.7359  -56.6208 N.am      20 UNK        -0.5000 
    110 CA        -2.9732  -22.4757  -57.8845 C.3       20 UNK         0.1400 
    111 CB        -2.0930  -21.6080  -58.8071 C.3       20 UNK        -0.1800 
    112 C         -4.3884  -21.8860  -57.6911 C.2       20 UNK         0.5000 
    113 O         -4.8107  -21.0226  -58.4640 O.2       20 UNK        -0.5000 
    114 N         -5.0690  -22.3135  -56.6156 N.am      21 UNK        -0.5000 
    115 CA        -6.3487  -21.8059  -56.1059 C.3       21 UNK         0.1400 
    116 CB        -7.4979  -22.2036  -57.0536 C.3       21 UNK        -0.1800 
    117 C         -6.3464  -20.2922  -55.7832 C.2       21 UNK         0.5000 
    118 O         -7.4166  -19.6863  -55.7164 O.2       21 UNK        -0.5000 
    119 N         -5.1521  -19.7071  -55.6074 N.am      22 UNK        -0.5000 
    120 CA        -4.8862  -18.2611  -55.5386 C.3       22 UNK         0.1400 
    121 C         -5.2268  -17.4861  -56.8513 C.2       22 UNK         0.5000 
    122 N         -5.3091  -18.1391  -58.0058 N.am      22 UNK        -0.7600 
    123 O         -5.3891  -16.2687  -56.8379 O.2       22 UNK        -0.5000 
    124 C124       -5.4578  -17.5889  -54.2598 C.3       23 UNK        -0.0398 
    125 S125       -4.7238  -18.2677  -52.7332 S.3       23 UNK        -0.2404 
    126 C126       -3.3604  -17.0944  -52.4745 C.3       23 UNK        -0.0205 
    127 H127       -0.0646  -12.9684  -49.2216 H         1 UNK         0.0600 
    128 H128       -1.0114  -14.2083  -50.0582 H         1 UNK         0.0600 
    129 H129        0.4741  -13.5871  -50.7700 H         1 UNK         0.0600 
    130 H130        1.3144  -15.9334  -47.4717 H         1 UNK         0.3000 
    131 H131        0.4856  -14.7813  -45.8414 H         1 UNK         0.0600 
    132 H132       -1.6637  -13.3875  -46.1132 H         1 UNK         0.0800 
    133 H133       -1.7066  -13.9141  -47.7678 H         1 UNK         0.0800 
    134 H134       -3.9769  -16.8563  -47.1161 H         1 UNK         0.0800 
    135 H135       -3.7953  -15.2704  -47.8220 H         1 UNK         0.0800 
    136 H136       -4.1162  -16.0818  -50.0766 H         1 UNK         0.1150 
    137 H137       -1.1331  -18.5609  -51.8898 H         1 UNK         0.1150 
    138 H138       -0.9547  -17.7306  -47.6939 H         1 UNK         0.1150 
    139 H139        0.8375  -19.1262  -50.6615 H         1 UNK         0.0800 
    140 H140        1.1076  -18.4874  -49.0665 H         1 UNK         0.0800 
    141 H141       -0.5971  -19.8173  -46.8595 H         1 UNK         0.0800 
    142 H142        1.1320  -19.7708  -47.0614 H         1 UNK         0.0800 
    143 H143        0.9713  -22.4219  -46.9885 H         1 UNK         0.0600 
    144 H144        1.1582  -20.5202  -44.7968 H         1 UNK         0.3000 
    145 H145        3.0706  -22.7472  -42.7519 H         1 UNK         0.0600 
    146 H146        4.5393  -20.7406  -42.8051 H         1 UNK         0.0600 
    147 H147        3.7238  -20.1553  -44.2530 H         1 UNK         0.0600 
    148 H148        4.6614  -21.6420  -44.3090 H         1 UNK         0.0600 
    149 H149        2.0883  -20.0782  -42.3670 H         1 UNK         0.3000 
    150 H150       -0.9354  -21.0165  -40.6920 H         1 UNK         0.0600 
    151 H151        0.8967  -21.1945  -38.9910 H         1 UNK         0.0600 
    152 H152        0.0886  -19.6362  -38.9171 H         1 UNK         0.0600 
    153 H153        1.6740  -19.7702  -39.6745 H         1 UNK         0.0600 
    154 H154        0.2418  -18.4731  -41.2083 H         1 UNK         0.3000 
    155 H155       -1.2494  -17.9493  -44.4286 H         1 UNK         0.0600 
    156 H156       -2.9934  -17.2730  -42.8479 H         1 UNK         0.0600 
    157 H157       -1.9663  -15.8785  -43.1449 H         1 UNK         0.0600 
    158 H158       -1.8052  -16.7939  -41.6470 H         1 UNK         0.0600 
    159 H159        0.4342  -16.2615  -42.9149 H         1 UNK         0.3000 
    160 H160        3.5729  -17.6348  -43.9683 H         1 UNK         0.0600 
    161 H161        2.3724  -14.9109  -44.6009 H         1 UNK         0.0600 
    162 H162        2.6681  -16.1304  -45.8468 H         1 UNK         0.0600 
    163 H163        4.0053  -15.4965  -44.9175 H         1 UNK         0.0600 
    164 H164        2.6514  -15.3837  -42.3392 H         1 UNK         0.3000 
    165 H165        3.0745  -17.0941  -39.2447 H         1 UNK         0.0600 
    166 H166        4.5063  -15.1090  -38.8399 H         1 UNK         0.0600 
    167 H167        5.3378  -16.2522  -39.8831 H         1 UNK         0.0600 
    168 H168        4.6207  -14.8008  -40.5717 H         1 UNK         0.0600 
    169 H169        2.2485  -14.4328  -39.9331 H         1 UNK         0.3000 
    170 H170       -1.2339  -15.1037  -40.2152 H         1 UNK         0.0600 
    171 H171        0.2744  -13.8752  -37.8517 H         1 UNK         0.0600 
    172 H172       -1.4251  -13.6224  -38.2524 H         1 UNK         0.0600 
    173 H173       -0.8691  -15.2083  -37.7439 H         1 UNK         0.0600 
    174 H174       -0.0054  -12.6244  -40.0170 H         1 UNK         0.3000 
    175 H175       -0.2193  -11.8756  -43.2016 H         1 UNK         0.0600 
    176 H176        1.1743  -10.9389  -40.6283 H         1 UNK         0.0600 
    177 H177        0.6009   -9.9007  -41.9258 H         1 UNK         0.0600 
    178 H178       -0.5507  -10.8207  -40.9803 H         1 UNK         0.0600 
    179 H179        1.7668  -11.7579  -44.1352 H         1 UNK         0.3000 
    180 H180        4.7070  -11.1465  -43.4591 H         1 UNK         0.0600 
    181 H181        6.1201  -13.1777  -44.0324 H         1 UNK         0.0600 
    182 H182        4.8991  -14.1932  -43.2633 H         1 UNK         0.0600 
    183 H183        5.7740  -13.0011  -42.3216 H         1 UNK         0.0600 
    184 H184        3.6913  -13.1999  -45.3513 H         1 UNK         0.3000 
    185 H185        2.3980  -10.7779  -47.5737 H         1 UNK         0.0600 
    186 H186        3.7823  -11.9897  -49.2347 H         1 UNK         0.0600 
    187 H187        4.7915  -10.9183  -48.2768 H         1 UNK         0.0600 
    188 H188        4.7992  -12.6476  -47.9521 H         1 UNK         0.0600 
    189 H189        2.5279  -13.6149  -47.7302 H         1 UNK         0.3000 
    190 H190       -0.5701  -22.5742  -44.1267 H         1 UNK         0.3000 
    191 H191       -3.2594  -22.3670  -44.5022 H         1 UNK         0.0600 
    192 H192       -2.2164  -22.6789  -42.3035 H         1 UNK         0.0600 
    193 H193       -1.7558  -24.3341  -42.7010 H         1 UNK         0.0600 
    194 H194       -3.4532  -23.9047  -42.5157 H         1 UNK         0.0600 
    195 H195       -1.3420  -25.0829  -45.6364 H         1 UNK         0.3000 
    196 H196       -3.7083  -26.7469  -46.2612 H         1 UNK         0.0600 
    197 H197       -1.6742  -27.8045  -45.2912 H         1 UNK         0.0600 
    198 H198       -0.7073  -27.2297  -46.6499 H         1 UNK         0.0600 
    199 H199       -1.9841  -28.4123  -46.9086 H         1 UNK         0.0600 
    200 H200       -2.0017  -24.2069  -47.8224 H         1 UNK         0.3000 
    201 H201       -2.5245  -25.3196  -50.5553 H         1 UNK         0.0600 
    202 H202       -0.1138  -25.2606  -50.0562 H         1 UNK         0.0600 
    203 H203       -0.2174  -23.5694  -49.5790 H         1 UNK         0.0600 
    204 H204       -0.5025  -24.0359  -51.2526 H         1 UNK         0.0600 
    205 H205       -2.7810  -22.4667  -48.4496 H         1 UNK         0.3000 
    206 H206       -3.4833  -20.5341  -50.3409 H         1 UNK         0.0600 
    207 H207       -4.4097  -20.8525  -47.4356 H         1 UNK         0.0600 
    208 H208       -2.9423  -20.0421  -47.9764 H         1 UNK         0.0600 
    209 H209       -4.5133  -19.3709  -48.3852 H         1 UNK         0.0600 
    210 H210       -5.1387  -20.3526  -51.6769 H         1 UNK         0.3000 
    211 H211       -6.9651  -20.6536  -52.8400 H         1 UNK         0.0600 
    212 H212       -8.4503  -21.2470  -50.2320 H         1 UNK         0.0600 
    213 H213       -9.1587  -20.7246  -51.7529 H         1 UNK         0.0600 
    214 H214       -8.1117  -19.6343  -50.8612 H         1 UNK         0.0600 
    215 H215       -5.1935  -23.0119  -52.2062 H         1 UNK         0.3000 
    216 H216       -6.8983  -25.1131  -53.4027 H         1 UNK         0.0600 
    217 H217       -5.9420  -26.7670  -51.7614 H         1 UNK         0.0600 
    218 H218       -6.9568  -25.5741  -50.9737 H         1 UNK         0.0600 
    219 H219       -5.2101  -25.4418  -50.8516 H         1 UNK         0.0600 
    220 H220       -3.8419  -26.0779  -52.2646 H         1 UNK         0.3000 
    221 H221       -2.8501  -26.6889  -54.7966 H         1 UNK         0.0600 
    222 H222       -2.2167  -27.8556  -52.6822 H         1 UNK         0.0600 
    223 H223       -0.8012  -27.3580  -53.5930 H         1 UNK         0.0600 
    224 H224       -1.2857  -26.4462  -52.1746 H         1 UNK         0.0600 
    225 H225       -2.5150  -23.6216  -53.1181 H         1 UNK         0.3000 
    226 H226       -0.2587  -22.6483  -54.6947 H         1 UNK         0.0600 
    227 H227       -0.6971  -21.8530  -52.3589 H         1 UNK         0.0600 
    228 H228       -0.7095  -20.5322  -53.5127 H         1 UNK         0.0600 
    229 H229       -2.2278  -21.1545  -52.8840 H         1 UNK         0.0600 
    230 H230       -1.9213  -23.6817  -56.4977 H         1 UNK         0.3000 
    231 H231       -3.1107  -23.4440  -58.3674 H         1 UNK         0.0600 
    232 H232       -2.5422  -21.5037  -59.7954 H         1 UNK         0.0600 
    233 H233       -1.1083  -22.0540  -58.9460 H         1 UNK         0.0600 
    234 H234       -1.9528  -20.6049  -58.4026 H         1 UNK         0.0600 
    235 H235       -4.6575  -23.0514  -56.0499 H         1 UNK         0.3000 
    236 H236       -6.5154  -22.3159  -55.1581 H         1 UNK         0.0600 
    237 H237       -7.4335  -21.6813  -58.0085 H         1 UNK         0.0600 
    238 H238       -7.4884  -23.2748  -57.2548 H         1 UNK         0.0600 
    239 H239       -8.4683  -21.9672  -56.6155 H         1 UNK         0.0600 
    240 H240       -4.3148  -20.2783  -55.6694 H         1 UNK         0.3000 
    241 H241       -3.8006  -18.1816  -55.4739 H         1 UNK         0.0600 
    242 H242       -5.1568  -19.1424  -58.0580 H         1 UNK         0.3800 
    243 H243       -5.5188  -17.6264  -58.8473 H         1 UNK         0.3800 
    244 H244       -6.5400  -17.7112  -54.2103 H         1 UNK         0.0800 
    245 H245       -5.2853  -16.5120  -54.2732 H         1 UNK         0.0800 
    246 H246       -2.6307  -17.2061  -53.2780 H         1 UNK         0.0800 
    247 H247       -3.7360  -16.0720  -52.5379 H         1 UNK         0.0800 
@<TRIPOS>BOND
     1    1    2 1    
     2    1  127 1    
     3    1  128 1    
     4    1  129 1    
     5    2    3 2    
     6    2    4 am   BACKBONE|DICT|INTERRES
     7    4    5 1    
     8    4  130 1    
     9    5    6 1    
    10    5   65 1    
    11    5  131 1    
    12    6    7 1    
    13    6  132 1    
    14    6  133 1    
    15    7    8 1    
    16    8    9 1    
    17    8  134 1    
    18    8  135 1    
    19    9   10 ar   
    20    9   14 ar   
    21   10   11 ar   
    22   10  136 1    
    23   11   12 ar   
    24   11  126 1    
    25   12   13 ar   
    26   12  137 1    
    27   13   14 ar   
    28   13   15 1    
    29   14  138 1    
    30   15   16 1    
    31   15  139 1    
    32   15  140 1    
    33   16   17 1    
    34   17   18 1    
    35   17  141 1    
    36   17  142 1    
    37   18   19 1    
    38   18   67 1    
    39   18  143 1    
    40   19   20 am   BACKBONE|DICT|INTERRES
    41   19  144 1    
    42   20   21 2    
    43   20   22 1    
    44   22   23 1    
    45   22   24 1    
    46   22  145 1    
    47   23  146 1    
    48   23  147 1    
    49   23  148 1    
    50   24   25 am   BACKBONE|DICT|INTERRES
    51   24  149 1    
    52   25   26 2    
    53   25   27 1    
    54   27   28 1    
    55   27   29 1    
    56   27  150 1    
    57   28  151 1    
    58   28  152 1    
    59   28  153 1    
    60   29   30 am   BACKBONE|DICT|INTERRES
    61   29  154 1    
    62   30   31 2    
    63   30   32 1    
    64   32   33 1    
    65   32   34 1    
    66   32  155 1    
    67   33  156 1    
    68   33  157 1    
    69   33  158 1    
    70   34   35 am   BACKBONE|DICT|INTERRES
    71   34  159 1    
    72   35   36 2    
    73   35   37 1    
    74   37   38 1    
    75   37   39 1    
    76   37  160 1    
    77   38  161 1    
    78   38  162 1    
    79   38  163 1    
    80   39   40 am   BACKBONE|DICT|INTERRES
    81   39  164 1    
    82   40   41 2    
    83   40   42 1    
    84   42   43 1    
    85   42   44 1    
    86   42  165 1    
    87   43  166 1    
    88   43  167 1    
    89   43  168 1    
    90   44   45 am   BACKBONE|DICT|INTERRES
    91   44  169 1    
    92   45   46 2    
    93   45   47 1    
    94   47   48 1    
    95   47   49 1    
    96   47  170 1    
    97   48  171 1    
    98   48  172 1    
    99   48  173 1    
   100   49   50 am   BACKBONE|DICT|INTERRES
   101   49  174 1    
   102   50   51 2    
   103   50   52 1    
   104   52   53 1    
   105   52   54 1    
   106   52  175 1    
   107   53  176 1    
   108   53  177 1    
   109   53  178 1    
   110   54   55 am   BACKBONE|DICT|INTERRES
   111   54  179 1    
   112   55   56 2    
   113   55   57 1    
   114   57   58 1    
   115   57   59 1    
   116   57  180 1    
   117   58  181 1    
   118   58  182 1    
   119   58  183 1    
   120   59   60 am   BACKBONE|DICT|INTERRES
   121   59  184 1    
   122   60   61 2    
   123   60   62 1    
   124   62   63 1    
   125   62   64 1    
   126   62  185 1    
   127   63  186 1    
   128   63  187 1    
   129   63  188 1    
   130   64   65 am   BACKBONE|DICT|INTERRES
   131   64  189 1    
   132   65   66 2    
   133   67   68 2    
   134   67   69 am   BACKBONE|DICT|INTERRES
   135   69   70 1    
   136   69  190 1    
   137   70   71 1    
   138   70   72 1    
   139   70  191 1    
   140   71  192 1    
   141   71  193 1    
   142   71  194 1    
   143   72   73 2    
   144   72   74 am   BACKBONE|DICT|INTERRES
   145   74   75 1    
   146   74  195 1    
   147   75   76 1    
   148   75   77 1    
   149   75  196 1    
   150   76  197 1    
   151   76  198 1    
   152   76  199 1    
   153   77   78 2    
   154   77   79 am   BACKBONE|DICT|INTERRES
   155   79   80 1    
   156   79  200 1    
   157   80   81 1    
   158   80   82 1    
   159   80  201 1    
   160   81  202 1    
   161   81  203 1    
   162   81  204 1    
   163   82   83 2    
   164   82   84 am   BACKBONE|DICT|INTERRES
   165   84   85 1    
   166   84  205 1    
   167   85   86 1    
   168   85   87 1    
   169   85  206 1    
   170   86  207 1    
   171   86  208 1    
   172   86  209 1    
   173   87   88 2    
   174   87   89 am   BACKBONE|DICT|INTERRES
   175   89   90 1    
   176   89  210 1    
   177   90   91 1    
   178   90   92 1    
   179   90  211 1    
   180   91  212 1    
   181   91  213 1    
   182   91  214 1    
   183   92   93 2    
   184   92   94 am   BACKBONE|DICT|INTERRES
   185   94   95 1    
   186   94  215 1    
   187   95   96 1    
   188   95   97 1    
   189   95  216 1    
   190   96  217 1    
   191   96  218 1    
   192   96  219 1    
   193   97   98 2    
   194   97   99 am   BACKBONE|DICT|INTERRES
   195   99  100 1    
   196   99  220 1    
   197  100  101 1    
   198  100  102 1    
   199  100  221 1    
   200  101  222 1    
   201  101  223 1    
   202  101  224 1    
   203  102  103 2    
   204  102  104 am   BACKBONE|DICT|INTERRES
   205  104  105 1    
   206  104  225 1    
   207  105  106 1    
   208  105  107 1    
   209  105  226 1    
   210  106  227 1    
   211  106  228 1    
   212  106  229 1    
   213  107  108 2    
   214  107  109 am   BACKBONE|DICT|INTERRES
   215  109  110 1    
   216  109  230 1    
   217  110  111 1    
   218  110  112 1    
   219  110  231 1    
   220  111  232 1    
   221  111  233 1    
   222  111  234 1    
   223  112  113 2    
   224  112  114 am   BACKBONE|DICT|INTERRES
   225  114  115 1    
   226  114  235 1    
   227  115  116 1    
   228  115  117 1    
   229  115  236 1    
   230  116  237 1    
   231  116  238 1    
   232  116  239 1    
   233  117  118 2    
   234  117  119 am   BACKBONE|DICT|INTERRES
   235  119  120 1    
   236  119  240 1    
   237  120  121 1    
   238  120  124 1    
   239  120  241 1    
   240  121  122 am   BACKBONE|DICT|INTERRES
   241  121  123 2    
   242  122  242 1    
   243  122  243 1    
   244  124  125 1    
   245  124  244 1    
   246  124  245 1    
   247  125  126 1    
   248  126  246 1    
   249  126  247 1    
@<TRIPOS>SUBSTRUCTURE
     1 UNK         1 GROUP             0       ****    0 ROOT    
