@<TRIPOS>MOLECULE
3R540
247   249    1
SMALL
USER_CHARGES


@<TRIPOS>ATOM
      1 CA          0.7375  -11.5139  -44.3896 C.3       0 UNK        -0.1800 
      2 C           1.6014  -11.5552  -45.6416 C.2       0 UNK         0.5000 
      3 O           2.5884  -10.8255  -45.7258 O.2       0 UNK        -0.5000 
      4 N           1.2351  -12.4019  -46.6130 N.am      1 UNK        -0.5000 
      5 CA          1.9727  -12.6054  -47.8675 C.3       1 UNK         0.1400 
      6 C6          1.0499  -13.1345  -48.9935 C.3       23 UNK        -0.0398 
      7 S7          0.2878  -14.7656  -48.6620 S.3       23 UNK        -0.2404 
      8 C8          0.8002  -15.6699  -50.1555 C.3       23 UNK        -0.0205 
      9 C9          0.1984  -17.0651  -50.2065 C.ar      23 UNK        -0.0193 
     10 C10        -1.1130  -17.2482  -50.6566 C.ar      23 UNK        -0.1150 
     11 C11        -1.6695  -18.5291  -50.7266 C.ar      23 UNK        -0.0193 
     12 C12        -0.8981  -19.6294  -50.3434 C.ar      23 UNK        -0.1150 
     13 C13         0.4181  -19.4646  -49.9017 C.ar      23 UNK        -0.0193 
     14 C14         0.9615  -18.1770  -49.8382 C.ar      23 UNK        -0.1150 
     15 C15         1.2498  -20.6931  -49.5451 C.3       23 UNK        -0.0205 
     16 S16         2.1819  -20.5619  -47.9804 S.3       23 UNK        -0.2404 
     17 C17         0.9330  -20.0079  -46.7719 C.3       23 UNK        -0.0398 
     18 CA         -0.0156  -21.1333  -46.2761 C.3       11 UNK         0.1400 
     19 N          -0.2917  -21.0291  -44.8384 N.am      11 UNK        -0.5000 
     20 C          -1.0013  -21.9050  -44.1113 C.2       10 UNK         0.5000 
     21 O          -1.4756  -22.9465  -44.5649 O.2       10 UNK        -0.5000 
     22 CA         -1.2591  -21.5342  -42.6382 C.3       10 UNK         0.1400 
     23 CB         -0.0505  -21.8823  -41.7560 C.3       10 UNK        -0.1800 
     24 N          -1.5975  -20.1193  -42.4789 N.am      10 UNK        -0.5000 
     25 C          -2.7472  -19.5714  -42.8991 C.2       9 UNK         0.5000 
     26 O          -3.6774  -20.2196  -43.3792 O.2       9 UNK        -0.5000 
     27 CA         -2.8680  -18.0387  -42.7997 C.3       9 UNK         0.1400 
     28 CB         -3.3510  -17.6206  -41.4030 C.3       9 UNK        -0.1800 
     29 N          -1.6198  -17.3418  -43.1158 N.am      9 UNK        -0.5000 
     30 C          -1.0032  -17.3863  -44.3054 C.2       8 UNK         0.5000 
     31 O          -1.4395  -17.9952  -45.2792 O.2       8 UNK        -0.5000 
     32 CA          0.3610  -16.6869  -44.4117 C.3       8 UNK         0.1400 
     33 CB          0.1882  -15.1763  -44.6166 C.3       8 UNK        -0.1800 
     34 N           1.2091  -16.9324  -43.2460 N.am      8 UNK        -0.5000 
     35 C           1.6582  -18.1371  -42.8664 C.2       7 UNK         0.5000 
     36 O           1.4180  -19.1785  -43.4728 O.2       7 UNK        -0.5000 
     37 CA          2.4636  -18.1961  -41.5592 C.3       7 UNK         0.1400 
     38 CB          3.9213  -17.7641  -41.7842 C.3       7 UNK        -0.1800 
     39 N           1.8519  -17.3743  -40.5166 N.am      7 UNK        -0.5000 
     40 C           0.6748  -17.6484  -39.9352 C.2       6 UNK         0.5000 
     41 O           0.0095  -18.6567  -40.1748 O.2       6 UNK        -0.5000 
     42 CA          0.1343  -16.5916  -38.9546 C.3       6 UNK         0.1400 
     43 CB          0.7432  -16.7857  -37.5579 C.3       6 UNK        -0.1800 
     44 N           0.3921  -15.2240  -39.4115 N.am      6 UNK        -0.5000 
     45 C          -0.1765  -14.6701  -40.4920 C.2       5 UNK         0.5000 
     46 O          -1.0076  -15.2430  -41.1951 O.2       5 UNK        -0.5000 
     47 CA          0.3053  -13.2607  -40.8828 C.3       5 UNK         0.1400 
     48 CB         -0.4707  -12.1851  -40.1093 C.3       5 UNK        -0.1800 
     49 N           1.7449  -13.0690  -40.6790 N.am      5 UNK        -0.5000 
     50 C           2.6953  -13.7447  -41.3365 C.2       4 UNK         0.5000 
     51 O           2.4561  -14.5923  -42.2012 O.2       4 UNK        -0.5000 
     52 CA          4.1476  -13.4664  -40.9293 C.3       4 UNK         0.1400 
     53 CB          4.4693  -14.1259  -39.5750 C.3       4 UNK        -0.1800 
     54 N           5.0220  -14.0073  -41.9624 N.am      4 UNK        -0.5000 
     55 C           6.2943  -13.6645  -42.1874 C.2       3 UNK         0.5000 
     56 O           6.9055  -12.8327  -41.5153 O.2       3 UNK        -0.5000 
     57 CA          7.0154  -14.3725  -43.3546 C.3       3 UNK         0.1400 
     58 CB          7.9238  -15.4897  -42.8174 C.3       3 UNK        -0.1800 
     59 N           6.1119  -14.9462  -44.3581 N.am      3 UNK        -0.5000 
     60 C           5.3520  -14.2360  -45.2027 C.2       2 UNK         0.5000 
     61 O           5.3516  -13.0036  -45.2299 O.2       2 UNK        -0.5000 
     62 CA          4.4510  -15.0370  -46.1687 C.3       2 UNK         0.1400 
     63 CB          3.9197  -16.3411  -45.5432 C.3       2 UNK        -0.1800 
     64 N           3.3078  -14.2281  -46.5845 N.am      2 UNK        -0.5000 
     65 C           3.2395  -13.4764  -47.6910 C.2       1 UNK         0.5000 
     66 O           4.1186  -13.4463  -48.5540 O.2       1 UNK        -0.5000 
     67 C          -1.3143  -21.1561  -47.1071 C.2       11 UNK         0.5000 
     68 O          -1.4580  -21.9968  -47.9914 O.2       11 UNK        -0.5000 
     69 N          -2.2502  -20.2567  -46.7746 N.am      12 UNK        -0.5000 
     70 CA         -3.5259  -20.0350  -47.4574 C.3       12 UNK         0.1400 
     71 CB         -4.1968  -18.7934  -46.8509 C.3       12 UNK        -0.1800 
     72 C          -4.4998  -21.2294  -47.4641 C.2       12 UNK         0.5000 
     73 O          -5.4811  -21.1951  -48.2082 O.2       12 UNK        -0.5000 
     74 N          -4.2228  -22.2627  -46.6610 N.am      13 UNK        -0.5000 
     75 CA         -4.9322  -23.5409  -46.6689 C.3       13 UNK         0.1400 
     76 CB         -4.8082  -24.1693  -45.2712 C.3       13 UNK        -0.1800 
     77 C          -4.4178  -24.5119  -47.7565 C.2       13 UNK         0.5000 
     78 O          -4.9628  -25.6099  -47.8738 O.2       13 UNK        -0.5000 
     79 N          -3.3754  -24.1227  -48.5016 N.am      14 UNK        -0.5000 
     80 CA         -2.7112  -24.9091  -49.5363 C.3       14 UNK         0.1400 
     81 CB         -1.4368  -25.5228  -48.9254 C.3       14 UNK        -0.1800 
     82 C          -2.3821  -24.0245  -50.7561 C.2       14 UNK         0.5000 
     83 O          -2.6923  -22.8306  -50.7614 O.2       14 UNK        -0.5000 
     84 N          -1.7252  -24.6352  -51.7552 N.am      15 UNK        -0.5000 
     85 CA         -1.1112  -24.0181  -52.9364 C.3       15 UNK         0.1400 
     86 CB          0.1233  -23.1875  -52.5156 C.3       15 UNK        -0.1800 
     87 C          -2.1161  -23.2393  -53.8105 C.2       15 UNK         0.5000 
     88 O          -2.9148  -23.8650  -54.5119 O.2       15 UNK        -0.5000 
     89 N          -2.0380  -21.9003  -53.7738 N.am      16 UNK        -0.5000 
     90 CA         -2.9197  -20.9397  -54.4445 C.3       16 UNK         0.1400 
     91 CB         -4.3418  -21.0459  -53.8653 C.3       16 UNK        -0.1800 
     92 C          -2.9062  -21.0574  -55.9814 C.2       16 UNK         0.5000 
     93 O          -3.9531  -20.9264  -56.6146 O.2       16 UNK        -0.5000 
     94 N          -1.7269  -21.3402  -56.5556 N.am      17 UNK        -0.5000 
     95 CA         -1.4914  -21.5594  -57.9908 C.3       17 UNK         0.1400 
     96 CB         -1.6383  -20.2379  -58.7744 C.3       17 UNK        -0.1800 
     97 C          -2.3564  -22.7044  -58.5665 C.2       17 UNK         0.5000 
     98 O          -2.9020  -22.5852  -59.6645 O.2       17 UNK        -0.5000 
     99 N          -2.4723  -23.7832  -57.7787 N.am      18 UNK        -0.5000 
    100 CA        -3.2540  -25.0009  -58.0140 C.3       18 UNK         0.1400 
    101 CB        -2.9013  -25.6699  -59.3598 C.3       18 UNK        -0.1800 
    102 C         -4.7747  -24.8396  -57.8042 C.2       18 UNK         0.5000 
    103 O         -5.5172  -25.7740  -58.1102 O.2       18 UNK        -0.5000 
    104 N         -5.2246  -23.7125  -57.2268 N.am      19 UNK        -0.5000 
    105 CA        -6.5980  -23.5508  -56.7270 C.3       19 UNK         0.1400 
    106 CB        -6.9526  -22.0600  -56.6223 C.3       19 UNK        -0.1800 
    107 C         -6.8294  -24.2756  -55.3813 C.2       19 UNK         0.5000 
    108 O         -7.9783  -24.4166  -54.9637 O.2       19 UNK        -0.5000 
    109 N         -5.7402  -24.7327  -54.7447 N.am      20 UNK        -0.5000 
    110 CA        -5.6428  -25.5974  -53.5650 C.3       20 UNK         0.1400 
    111 CB        -6.5098  -26.8657  -53.7025 C.3       20 UNK        -0.1800 
    112 C         -5.8551  -24.8958  -52.2131 C.2       20 UNK         0.5000 
    113 O         -5.5318  -25.4998  -51.1928 O.2       20 UNK        -0.5000 
    114 N         -6.3415  -23.6513  -52.2074 N.am      21 UNK        -0.5000 
    115 CA        -6.4781  -22.7922  -51.0340 C.3       21 UNK         0.1400 
    116 CB        -7.5553  -23.3323  -50.0707 C.3       21 UNK        -0.1800 
    117 C         -6.8452  -21.3767  -51.4971 C.2       21 UNK         0.5000 
    118 O         -7.4212  -21.2170  -52.5768 O.2       21 UNK        -0.5000 
    119 N         -6.5288  -20.3860  -50.6605 N.am      22 UNK        -0.5000 
    120 CA        -6.9383  -18.9817  -50.8105 C.3       22 UNK         0.1400 
    121 C         -7.5805  -18.3801  -49.5263 C.2       22 UNK         0.5000 
    122 N         -7.6353  -19.0918  -48.4054 N.am      22 UNK        -0.7600 
    123 O         -8.0735  -17.2557  -49.5558 O.2       22 UNK        -0.5000 
    124 C124       -5.8187  -18.0899  -51.4122 C.3       23 UNK        -0.0398 
    125 S125       -4.3536  -17.8439  -50.3428 S.3       23 UNK        -0.2404 
    126 C126       -3.0746  -18.7387  -51.2769 C.3       23 UNK        -0.0205 
    127 H127       -0.1107  -12.1951  -44.4560 H         1 UNK         0.0600 
    128 H128        0.3522  -10.5067  -44.2316 H         1 UNK         0.0600 
    129 H129        1.3341  -11.7910  -43.5209 H         1 UNK         0.0600 
    130 H130        0.3990  -12.9590  -46.5084 H         1 UNK         0.3000 
    131 H131        2.3298  -11.6270  -48.1967 H         1 UNK         0.0600 
    132 H132        0.2416  -12.4215  -49.1611 H         1 UNK         0.0800 
    133 H133        1.6009  -13.1666  -49.9351 H         1 UNK         0.0800 
    134 H134        0.4919  -15.1122  -51.0413 H         1 UNK         0.0800 
    135 H135        1.8898  -15.7238  -50.1873 H         1 UNK         0.0800 
    136 H136       -1.7005  -16.3924  -50.9586 H         1 UNK         0.1150 
    137 H137       -1.3198  -20.6230  -50.4032 H         1 UNK         0.1150 
    138 H138        1.9813  -18.0415  -49.5066 H         1 UNK         0.1150 
    139 H139        0.6234  -21.5845  -49.4998 H         1 UNK         0.0800 
    140 H140        1.9599  -20.8708  -50.3534 H         1 UNK         0.0800 
    141 H141        0.3917  -19.1391  -47.1514 H         1 UNK         0.0800 
    142 H142        1.5176  -19.6212  -45.9393 H         1 UNK         0.0800 
    143 H143        0.4783  -22.0971  -46.4168 H         1 UNK         0.0600 
    144 H144        0.1132  -20.2285  -44.3606 H         1 UNK         0.3000 
    145 H145       -2.1081  -22.1267  -42.2905 H         1 UNK         0.0600 
    146 H146       -0.2531  -21.6632  -40.7074 H         1 UNK         0.0600 
    147 H147        0.1895  -22.9438  -41.8270 H         1 UNK         0.0600 
    148 H148        0.8401  -21.3255  -42.0459 H         1 UNK         0.0600 
    149 H149       -0.8943  -19.5224  -42.0609 H         1 UNK         0.3000 
    150 H150       -3.6170  -17.7199  -43.5275 H         1 UNK         0.0600 
    151 H151       -3.5256  -16.5457  -41.3523 H         1 UNK         0.0600 
    152 H152       -4.2896  -18.1149  -41.1493 H         1 UNK         0.0600 
    153 H153       -2.6243  -17.8779  -40.6321 H         1 UNK         0.0600 
    154 H154       -1.2210  -16.7666  -42.3793 H         1 UNK         0.3000 
    155 H155        0.8742  -17.0908  -45.2866 H         1 UNK         0.0600 
    156 H156       -0.3607  -14.7185  -43.7942 H         1 UNK         0.0600 
    157 H157       -0.3637  -14.9710  -45.5344 H         1 UNK         0.0600 
    158 H158        1.1530  -14.6774  -44.6903 H         1 UNK         0.0600 
    159 H159        1.4928  -16.1154  -42.7122 H         1 UNK         0.3000 
    160 H160        2.4676  -19.2331  -41.2163 H         1 UNK         0.0600 
    161 H161        3.9941  -16.7344  -42.1297 H         1 UNK         0.0600 
    162 H162        4.4007  -18.3937  -42.5349 H         1 UNK         0.0600 
    163 H163        4.5044  -17.8510  -40.8674 H         1 UNK         0.0600 
    164 H164        2.3119  -16.5064  -40.2906 H         1 UNK         0.3000 
    165 H165       -0.9466  -16.7287  -38.8792 H         1 UNK         0.0600 
    166 H166        0.3109  -16.0889  -36.8395 H         1 UNK         0.0600 
    167 H167        0.5526  -17.7935  -37.1865 H         1 UNK         0.0600 
    168 H168        1.8236  -16.6362  -37.5630 H         1 UNK         0.0600 
    169 H169        1.0622  -14.6827  -38.8859 H         1 UNK         0.3000 
    170 H170        0.0943  -13.1303  -41.9452 H         1 UNK         0.0600 
    171 H171       -1.5456  -12.2972  -40.2577 H         1 UNK         0.0600 
    172 H172       -0.2794  -12.2409  -39.0370 H         1 UNK         0.0600 
    173 H173       -0.2002  -11.1848  -40.4479 H         1 UNK         0.0600 
    174 H174        2.0153  -12.3910  -39.9809 H         1 UNK         0.3000 
    175 H175        4.2881  -12.3856  -40.8639 H         1 UNK         0.0600 
    176 H176        4.3479  -15.2090  -39.6168 H         1 UNK         0.0600 
    177 H177        5.4945  -13.9191  -39.2676 H         1 UNK         0.0600 
    178 H178        3.8174  -13.7504  -38.7856 H         1 UNK         0.0600 
    179 H179        4.5617  -14.6509  -42.5922 H         1 UNK         0.3000 
    180 H180        7.6440  -13.6286  -43.8487 H         1 UNK         0.0600 
    181 H181        7.3476  -16.2741  -42.3247 H         1 UNK         0.0600 
    182 H182        8.6356  -15.0991  -42.0889 H         1 UNK         0.0600 
    183 H183        8.5021  -15.9491  -43.6192 H         1 UNK         0.0600 
    184 H184        6.0705  -15.9541  -44.3979 H         1 UNK         0.3000 
    185 H185        5.0548  -15.2991  -47.0397 H         1 UNK         0.0600 
    186 H186        4.7206  -17.0604  -45.3699 H         1 UNK         0.0600 
    187 H187        3.4307  -16.1507  -44.5888 H         1 UNK         0.0600 
    188 H188        3.1973  -16.8274  -46.1993 H         1 UNK         0.0600 
    189 H189        2.5601  -14.1357  -45.9150 H         1 UNK         0.3000 
    190 H190       -2.0160  -19.5731  -46.0576 H         1 UNK         0.3000 
    191 H191       -3.2915  -19.8261  -48.5008 H         1 UNK         0.0600 
    192 H192       -3.5669  -17.9114  -46.9665 H         1 UNK         0.0600 
    193 H193       -5.1426  -18.5723  -47.3440 H         1 UNK         0.0600 
    194 H194       -4.4014  -18.9265  -45.7883 H         1 UNK         0.0600 
    195 H195       -3.3925  -22.2124  -46.0857 H         1 UNK         0.3000 
    196 H196       -5.9909  -23.3618  -46.8673 H         1 UNK         0.0600 
    197 H197       -5.3879  -25.0906  -45.2019 H         1 UNK         0.0600 
    198 H198       -5.1792  -23.4941  -44.4998 H         1 UNK         0.0600 
    199 H199       -3.7727  -24.4145  -45.0326 H         1 UNK         0.0600 
    200 H200       -2.9728  -23.1994  -48.3634 H         1 UNK         0.3000 
    201 H201       -3.3609  -25.7164  -49.8746 H         1 UNK         0.0600 
    202 H202       -1.6711  -26.1159  -48.0412 H         1 UNK         0.0600 
    203 H203       -0.7258  -24.7503  -48.6285 H         1 UNK         0.0600 
    204 H204       -0.9311  -26.1849  -49.6285 H         1 UNK         0.0600 
    205 H205       -1.5671  -25.6291  -51.6712 H         1 UNK         0.3000 
    206 H206       -0.7515  -24.8393  -53.5580 H         1 UNK         0.0600 
    207 H207        0.8554  -23.8138  -52.0057 H         1 UNK         0.0600 
    208 H208        0.6238  -22.7545  -53.3827 H         1 UNK         0.0600 
    209 H209       -0.1357  -22.3740  -51.8376 H         1 UNK         0.0600 
    210 H210       -1.3409  -21.4974  -53.1642 H         1 UNK         0.3000 
    211 H211       -2.5339  -19.9473  -54.2092 H         1 UNK         0.0600 
    212 H212       -4.8291  -21.9726  -54.1648 H         1 UNK         0.0600 
    213 H213       -4.9697  -20.2182  -54.1964 H         1 UNK         0.0600 
    214 H214       -4.3238  -21.0335  -52.7789 H         1 UNK         0.0600 
    215 H215       -0.9217  -21.4442  -55.9543 H         1 UNK         0.3000 
    216 H216       -0.4547  -21.8848  -58.0884 H         1 UNK         0.0600 
    217 H217       -1.3453  -20.3671  -59.8169 H         1 UNK         0.0600 
    218 H218       -1.0031  -19.4582  -58.3544 H         1 UNK         0.0600 
    219 H219       -2.6660  -19.8733  -58.7669 H         1 UNK         0.0600 
    220 H220       -2.0216  -23.7428  -56.8746 H         1 UNK         0.3000 
    221 H221       -2.9354  -25.6896  -57.2301 H         1 UNK         0.0600 
    222 H222       -3.2890  -25.1079  -60.2096 H         1 UNK         0.0600 
    223 H223       -1.8228  -25.7684  -59.4829 H         1 UNK         0.0600 
    224 H224       -3.3250  -26.6731  -59.4185 H         1 UNK         0.0600 
    225 H225       -4.5784  -22.9563  -57.0329 H         1 UNK         0.3000 
    226 H226       -7.2825  -23.9955  -57.4524 H         1 UNK         0.0600 
    227 H227       -6.7511  -21.5372  -57.5574 H         1 UNK         0.0600 
    228 H228       -8.0118  -21.9295  -56.3979 H         1 UNK         0.0600 
    229 H229       -6.3951  -21.5615  -55.8317 H         1 UNK         0.0600 
    230 H230       -4.8376  -24.4662  -55.1223 H         1 UNK         0.3000 
    231 H231       -4.6031  -25.9283  -53.5540 H         1 UNK         0.0600 
    232 H232       -7.5747  -26.6415  -53.6393 H         1 UNK         0.0600 
    233 H233       -6.2843  -27.5772  -52.9072 H         1 UNK         0.0600 
    234 H234       -6.3255  -27.3707  -54.6508 H         1 UNK         0.0600 
    235 H235       -6.6163  -23.2174  -53.0798 H         1 UNK         0.3000 
    236 H236       -5.5146  -22.7514  -50.5214 H         1 UNK         0.0600 
    237 H237       -7.2698  -24.2924  -49.6418 H         1 UNK         0.0600 
    238 H238       -7.7122  -22.6496  -49.2348 H         1 UNK         0.0600 
    239 H239       -8.5137  -23.4605  -50.5749 H         1 UNK         0.0600 
    240 H240       -6.0559  -20.6168  -49.7886 H         1 UNK         0.3000 
    241 H241       -7.7612  -18.9559  -51.5273 H         1 UNK         0.0600 
    242 H242       -8.0750  -18.6899  -47.5930 H         1 UNK         0.3800 
    243 H243       -7.1926  -19.9980  -48.3365 H         1 UNK         0.3800 
    244 H244       -5.5063  -18.5047  -52.3707 H         1 UNK         0.0800 
    245 H245       -6.2217  -17.1037  -51.6475 H         1 UNK         0.0800 
    246 H246       -3.3259  -19.7987  -51.2582 H         1 UNK         0.0800 
    247 H247       -3.0922  -18.4195  -52.3193 H         1 UNK         0.0800 
@<TRIPOS>BOND
     1    1    2 1    
     2    1  127 1    
     3    1  128 1    
     4    1  129 1    
     5    2    3 2    
     6    2    4 am   BACKBONE|DICT|INTERRES
     7    4    5 1    
     8    4  130 1    
     9    5    6 1    
    10    5   65 1    
    11    5  131 1    
    12    6    7 1    
    13    6  132 1    
    14    6  133 1    
    15    7    8 1    
    16    8    9 1    
    17    8  134 1    
    18    8  135 1    
    19    9   10 ar   
    20    9   14 ar   
    21   10   11 ar   
    22   10  136 1    
    23   11   12 ar   
    24   11  126 1    
    25   12   13 ar   
    26   12  137 1    
    27   13   14 ar   
    28   13   15 1    
    29   14  138 1    
    30   15   16 1    
    31   15  139 1    
    32   15  140 1    
    33   16   17 1    
    34   17   18 1    
    35   17  141 1    
    36   17  142 1    
    37   18   19 1    
    38   18   67 1    
    39   18  143 1    
    40   19   20 am   BACKBONE|DICT|INTERRES
    41   19  144 1    
    42   20   21 2    
    43   20   22 1    
    44   22   23 1    
    45   22   24 1    
    46   22  145 1    
    47   23  146 1    
    48   23  147 1    
    49   23  148 1    
    50   24   25 am   BACKBONE|DICT|INTERRES
    51   24  149 1    
    52   25   26 2    
    53   25   27 1    
    54   27   28 1    
    55   27   29 1    
    56   27  150 1    
    57   28  151 1    
    58   28  152 1    
    59   28  153 1    
    60   29   30 am   BACKBONE|DICT|INTERRES
    61   29  154 1    
    62   30   31 2    
    63   30   32 1    
    64   32   33 1    
    65   32   34 1    
    66   32  155 1    
    67   33  156 1    
    68   33  157 1    
    69   33  158 1    
    70   34   35 am   BACKBONE|DICT|INTERRES
    71   34  159 1    
    72   35   36 2    
    73   35   37 1    
    74   37   38 1    
    75   37   39 1    
    76   37  160 1    
    77   38  161 1    
    78   38  162 1    
    79   38  163 1    
    80   39   40 am   BACKBONE|DICT|INTERRES
    81   39  164 1    
    82   40   41 2    
    83   40   42 1    
    84   42   43 1    
    85   42   44 1    
    86   42  165 1    
    87   43  166 1    
    88   43  167 1    
    89   43  168 1    
    90   44   45 am   BACKBONE|DICT|INTERRES
    91   44  169 1    
    92   45   46 2    
    93   45   47 1    
    94   47   48 1    
    95   47   49 1    
    96   47  170 1    
    97   48  171 1    
    98   48  172 1    
    99   48  173 1    
   100   49   50 am   BACKBONE|DICT|INTERRES
   101   49  174 1    
   102   50   51 2    
   103   50   52 1    
   104   52   53 1    
   105   52   54 1    
   106   52  175 1    
   107   53  176 1    
   108   53  177 1    
   109   53  178 1    
   110   54   55 am   BACKBONE|DICT|INTERRES
   111   54  179 1    
   112   55   56 2    
   113   55   57 1    
   114   57   58 1    
   115   57   59 1    
   116   57  180 1    
   117   58  181 1    
   118   58  182 1    
   119   58  183 1    
   120   59   60 am   BACKBONE|DICT|INTERRES
   121   59  184 1    
   122   60   61 2    
   123   60   62 1    
   124   62   63 1    
   125   62   64 1    
   126   62  185 1    
   127   63  186 1    
   128   63  187 1    
   129   63  188 1    
   130   64   65 am   BACKBONE|DICT|INTERRES
   131   64  189 1    
   132   65   66 2    
   133   67   68 2    
   134   67   69 am   BACKBONE|DICT|INTERRES
   135   69   70 1    
   136   69  190 1    
   137   70   71 1    
   138   70   72 1    
   139   70  191 1    
   140   71  192 1    
   141   71  193 1    
   142   71  194 1    
   143   72   73 2    
   144   72   74 am   BACKBONE|DICT|INTERRES
   145   74   75 1    
   146   74  195 1    
   147   75   76 1    
   148   75   77 1    
   149   75  196 1    
   150   76  197 1    
   151   76  198 1    
   152   76  199 1    
   153   77   78 2    
   154   77   79 am   BACKBONE|DICT|INTERRES
   155   79   80 1    
   156   79  200 1    
   157   80   81 1    
   158   80   82 1    
   159   80  201 1    
   160   81  202 1    
   161   81  203 1    
   162   81  204 1    
   163   82   83 2    
   164   82   84 am   BACKBONE|DICT|INTERRES
   165   84   85 1    
   166   84  205 1    
   167   85   86 1    
   168   85   87 1    
   169   85  206 1    
   170   86  207 1    
   171   86  208 1    
   172   86  209 1    
   173   87   88 2    
   174   87   89 am   BACKBONE|DICT|INTERRES
   175   89   90 1    
   176   89  210 1    
   177   90   91 1    
   178   90   92 1    
   179   90  211 1    
   180   91  212 1    
   181   91  213 1    
   182   91  214 1    
   183   92   93 2    
   184   92   94 am   BACKBONE|DICT|INTERRES
   185   94   95 1    
   186   94  215 1    
   187   95   96 1    
   188   95   97 1    
   189   95  216 1    
   190   96  217 1    
   191   96  218 1    
   192   96  219 1    
   193   97   98 2    
   194   97   99 am   BACKBONE|DICT|INTERRES
   195   99  100 1    
   196   99  220 1    
   197  100  101 1    
   198  100  102 1    
   199  100  221 1    
   200  101  222 1    
   201  101  223 1    
   202  101  224 1    
   203  102  103 2    
   204  102  104 am   BACKBONE|DICT|INTERRES
   205  104  105 1    
   206  104  225 1    
   207  105  106 1    
   208  105  107 1    
   209  105  226 1    
   210  106  227 1    
   211  106  228 1    
   212  106  229 1    
   213  107  108 2    
   214  107  109 am   BACKBONE|DICT|INTERRES
   215  109  110 1    
   216  109  230 1    
   217  110  111 1    
   218  110  112 1    
   219  110  231 1    
   220  111  232 1    
   221  111  233 1    
   222  111  234 1    
   223  112  113 2    
   224  112  114 am   BACKBONE|DICT|INTERRES
   225  114  115 1    
   226  114  235 1    
   227  115  116 1    
   228  115  117 1    
   229  115  236 1    
   230  116  237 1    
   231  116  238 1    
   232  116  239 1    
   233  117  118 2    
   234  117  119 am   BACKBONE|DICT|INTERRES
   235  119  120 1    
   236  119  240 1    
   237  120  121 1    
   238  120  124 1    
   239  120  241 1    
   240  121  122 am   BACKBONE|DICT|INTERRES
   241  121  123 2    
   242  122  242 1    
   243  122  243 1    
   244  124  125 1    
   245  124  244 1    
   246  124  245 1    
   247  125  126 1    
   248  126  246 1    
   249  126  247 1    
@<TRIPOS>SUBSTRUCTURE
     1 UNK         1 GROUP             0       ****    0 ROOT    
