@<TRIPOS>MOLECULE
3R540
247   249    1
SMALL
USER_CHARGES


@<TRIPOS>ATOM
      1 CA          0.9382   -8.9538  -52.1394 C.3       0 UNK        -0.1800 
      2 C           1.7471   -9.9752  -51.3518 C.2       0 UNK         0.5000 
      3 O           2.9089   -9.7203  -51.0316 O.2       0 UNK        -0.5000 
      4 N           1.1413  -11.1297  -51.0478 N.am      1 UNK        -0.5000 
      5 CA          1.7328  -12.2026  -50.2410 C.3       1 UNK         0.1400 
      6 C6          1.0765  -13.5727  -50.5650 C.3       23 UNK        -0.0398 
      7 S7          2.2763  -14.9468  -50.4729 S.3       23 UNK        -0.2404 
      8 C8          1.6460  -15.9111  -49.0675 C.3       23 UNK        -0.0205 
      9 C9          0.5007  -16.8241  -49.4718 C.ar      23 UNK        -0.0193 
     10 C10        -0.8251  -16.4498  -49.2383 C.ar      23 UNK        -0.1150 
     11 C11        -1.8732  -17.3241  -49.5369 C.ar      23 UNK        -0.0193 
     12 C12        -1.5863  -18.5670  -50.1094 C.ar      23 UNK        -0.1150 
     13 C13        -0.2647  -18.9461  -50.3676 C.ar      23 UNK        -0.0193 
     14 C14         0.7733  -18.0705  -50.0395 C.ar      23 UNK        -0.1150 
     15 C15         0.0587  -20.2980  -50.9939 C.3       23 UNK        -0.0205 
     16 S16        -0.7209  -21.7030  -50.1353 S.3       23 UNK        -0.2404 
     17 C17        -0.2291  -21.3896  -48.4113 C.3       23 UNK        -0.0398 
     18 CA         -0.4317  -22.5941  -47.4643 C.3       11 UNK         0.1400 
     19 N           0.2899  -22.3812  -46.2069 N.am      11 UNK        -0.5000 
     20 C           0.4397  -23.2874  -45.2322 C.2       10 UNK         0.5000 
     21 O           0.0019  -24.4356  -45.2915 O.2       10 UNK        -0.5000 
     22 CA          1.1631  -22.8146  -43.9578 C.3       10 UNK         0.1400 
     23 CB          2.6836  -22.7798  -44.1721 C.3       10 UNK        -0.1800 
     24 N           0.7007  -21.5027  -43.5012 N.am      10 UNK        -0.5000 
     25 C          -0.5478  -21.2423  -43.0869 C.2       9 UNK         0.5000 
     26 O          -1.4334  -22.0926  -43.0092 O.2       9 UNK        -0.5000 
     27 CA         -0.8832  -19.7772  -42.7566 C.3       9 UNK         0.1400 
     28 CB         -0.3550  -19.3887  -41.3675 C.3       9 UNK        -0.1800 
     29 N          -0.3723  -18.8449  -43.7611 N.am      9 UNK        -0.5000 
     30 C          -0.7375  -18.8442  -45.0514 C.2       8 UNK         0.5000 
     31 O          -1.5787  -19.6044  -45.5278 O.2       8 UNK        -0.5000 
     32 CA         -0.0005  -17.8663  -45.9776 C.3       8 UNK         0.1400 
     33 CB         -0.5737  -16.4505  -45.8513 C.3       8 UNK        -0.1800 
     34 N           1.4370  -17.8368  -45.7171 N.am      8 UNK        -0.5000 
     35 C           2.2638  -18.8630  -45.9584 C.2       7 UNK         0.5000 
     36 O           1.9050  -19.9371  -46.4386 O.2       7 UNK        -0.5000 
     37 CA          3.7322  -18.6685  -45.5487 C.3       7 UNK         0.1400 
     38 CB          4.4896  -17.8624  -46.6152 C.3       7 UNK        -0.1800 
     39 N           3.8703  -18.0100  -44.2485 N.am      7 UNK        -0.5000 
     40 C           3.4728  -18.5432  -43.0823 C.2       6 UNK         0.5000 
     41 O           2.9315  -19.6457  -42.9943 O.2       6 UNK        -0.5000 
     42 CA          3.6912  -17.7163  -41.8021 C.3       6 UNK         0.1400 
     43 CB          4.7218  -18.3862  -40.8802 C.3       6 UNK        -0.1800 
     44 N           4.1346  -16.3494  -42.1038 N.am      6 UNK        -0.5000 
     45 C           3.6227  -15.1858  -41.6789 C.2       5 UNK         0.5000 
     46 O           4.0186  -14.1200  -42.1505 O.2       5 UNK        -0.5000 
     47 CA          2.5415  -15.1408  -40.5735 C.3       5 UNK         0.1400 
     48 CB          2.9365  -14.1475  -39.4675 C.3       5 UNK        -0.1800 
     49 N           1.2420  -14.7403  -41.1047 N.am      5 UNK        -0.5000 
     50 C           0.4946  -15.4106  -41.9884 C.2       4 UNK         0.5000 
     51 O           0.8201  -16.4805  -42.5041 O.2       4 UNK        -0.5000 
     52 CA         -0.8492  -14.7650  -42.3715 C.3       4 UNK         0.1400 
     53 CB         -1.7645  -14.5454  -41.1494 C.3       4 UNK        -0.1800 
     54 N          -0.6750  -13.5428  -43.1653 N.am      4 UNK        -0.5000 
     55 C          -0.1802  -12.3603  -42.7755 C.2       3 UNK         0.5000 
     56 O           0.1932  -12.1115  -41.6270 O.2       3 UNK        -0.5000 
     57 CA         -0.0485  -11.2934  -43.8787 C.3       3 UNK         0.1400 
     58 CB          0.0835   -9.8702  -43.3075 C.3       3 UNK        -0.1800 
     59 N           1.1103  -11.5677  -44.7265 N.am      3 UNK        -0.5000 
     60 C           1.1463  -12.4611  -45.7221 C.2       2 UNK         0.5000 
     61 O           0.1924  -13.1761  -46.0373 O.2       2 UNK        -0.5000 
     62 CA          2.4912  -12.5973  -46.4645 C.3       2 UNK         0.1400 
     63 CB          3.2452  -13.8346  -45.9493 C.3       2 UNK        -0.1800 
     64 N           2.3628  -12.6994  -47.9218 N.am      2 UNK        -0.5000 
     65 C           1.6938  -11.8640  -48.7294 C.2       1 UNK         0.5000 
     66 O           1.0816  -10.8692  -48.3298 O.2       1 UNK        -0.5000 
     67 C          -1.9268  -22.9098  -47.2290 C.2       11 UNK         0.5000 
     68 O          -2.4658  -23.8249  -47.8561 O.2       11 UNK        -0.5000 
     69 N          -2.5605  -22.1754  -46.3038 N.am      12 UNK        -0.5000 
     70 CA         -3.9397  -22.3916  -45.8719 C.3       12 UNK         0.1400 
     71 CB         -4.4089  -21.2037  -45.0198 C.3       12 UNK        -0.1800 
     72 C          -4.1219  -23.7197  -45.1169 C.2       12 UNK         0.5000 
     73 O          -5.0723  -24.4460  -45.4059 O.2       12 UNK        -0.5000 
     74 N          -3.1970  -24.0382  -44.1990 N.am      13 UNK        -0.5000 
     75 CA         -3.1788  -25.2874  -43.4299 C.3       13 UNK         0.1400 
     76 CB         -2.0929  -25.2126  -42.3462 C.3       13 UNK        -0.1800 
     77 C          -2.9819  -26.5368  -44.3089 C.2       13 UNK         0.5000 
     78 O          -3.5969  -27.5705  -44.0452 O.2       13 UNK        -0.5000 
     79 N          -2.1623  -26.4061  -45.3601 N.am      14 UNK        -0.5000 
     80 CA         -1.9524  -27.4206  -46.3945 C.3       14 UNK         0.1400 
     81 CB         -0.6675  -27.0744  -47.1647 C.3       14 UNK        -0.1800 
     82 C          -3.1371  -27.5572  -47.3745 C.2       14 UNK         0.5000 
     83 O          -3.1580  -28.5103  -48.1540 O.2       14 UNK        -0.5000 
     84 N          -4.0729  -26.5945  -47.3453 N.am      15 UNK        -0.5000 
     85 CA         -5.2150  -26.4148  -48.2503 C.3       15 UNK         0.1400 
     86 CB         -6.2028  -27.5949  -48.1477 C.3       15 UNK        -0.1800 
     87 C          -4.7990  -26.1054  -49.7049 C.2       15 UNK         0.5000 
     88 O          -5.5993  -26.2761  -50.6258 O.2       15 UNK        -0.5000 
     89 N          -3.5606  -25.6294  -49.8859 N.am      16 UNK        -0.5000 
     90 CA         -2.9845  -25.2510  -51.1728 C.3       16 UNK         0.1400 
     91 CB         -1.4537  -25.3104  -51.0687 C.3       16 UNK        -0.1800 
     92 C          -3.4497  -23.8582  -51.6259 C.2       16 UNK         0.5000 
     93 O          -3.4727  -23.5930  -52.8277 O.2       16 UNK        -0.5000 
     94 N          -3.8427  -23.0043  -50.6683 N.am      17 UNK        -0.5000 
     95 CA         -4.2846  -21.6244  -50.8891 C.3       17 UNK         0.1400 
     96 CB         -4.5749  -20.9624  -49.5336 C.3       17 UNK        -0.1800 
     97 C          -5.4975  -21.4988  -51.8284 C.2       17 UNK         0.5000 
     98 O          -5.5819  -20.5304  -52.5825 O.2       17 UNK        -0.5000 
     99 N          -6.3842  -22.5028  -51.8025 N.am      18 UNK        -0.5000 
    100 CA        -7.5475  -22.6107  -52.6829 C.3       18 UNK         0.1400 
    101 CB        -8.4598  -23.7324  -52.1634 C.3       18 UNK        -0.1800 
    102 C         -7.1768  -22.8574  -54.1593 C.2       18 UNK         0.5000 
    103 O         -7.9167  -22.4272  -55.0446 O.2       18 UNK        -0.5000 
    104 N         -6.0474  -23.5375  -54.3987 N.am      19 UNK        -0.5000 
    105 CA        -5.5179  -23.8188  -55.7323 C.3       19 UNK         0.1400 
    106 CB        -4.7850  -25.1698  -55.7134 C.3       19 UNK        -0.1800 
    107 C         -4.5801  -22.6973  -56.2080 C.2       19 UNK         0.5000 
    108 O         -4.6450  -22.3032  -57.3729 O.2       19 UNK        -0.5000 
    109 N         -3.7291  -22.2025  -55.2983 N.am      20 UNK        -0.5000 
    110 CA        -2.7531  -21.1422  -55.5527 C.3       20 UNK         0.1400 
    111 CB        -1.7559  -21.0982  -54.3850 C.3       20 UNK        -0.1800 
    112 C         -3.3900  -19.7552  -55.7572 C.2       20 UNK         0.5000 
    113 O         -2.8042  -18.9181  -56.4451 O.2       20 UNK        -0.5000 
    114 N         -4.5538  -19.5281  -55.1288 N.am      21 UNK        -0.5000 
    115 CA        -5.3443  -18.2903  -55.1209 C.3       21 UNK         0.1400 
    116 CB        -5.8609  -17.9585  -56.5362 C.3       21 UNK        -0.1800 
    117 C         -4.6305  -17.0941  -54.4516 C.2       21 UNK         0.5000 
    118 O         -5.0410  -15.9495  -54.6510 O.2       21 UNK        -0.5000 
    119 N         -3.5876  -17.3832  -53.6610 N.am      22 UNK        -0.5000 
    120 CA        -2.7652  -16.4293  -52.8955 C.3       22 UNK         0.1400 
    121 C         -1.9305  -15.4398  -53.7650 C.2       22 UNK         0.5000 
    122 N         -1.6819  -15.7335  -55.0363 N.am      22 UNK        -0.7600 
    123 O         -1.4758  -14.4067  -53.2812 O.2       22 UNK        -0.5000 
    124 C124       -3.5593  -15.7226  -51.7596 C.3       23 UNK        -0.0398 
    125 S125       -4.4031  -16.9137  -50.6580 S.3       23 UNK        -0.2404 
    126 C126       -3.3076  -16.9344  -49.2035 C.3       23 UNK        -0.0205 
    127 H127       -0.0642   -9.3178  -52.3665 H         1 UNK         0.0600 
    128 H128        0.8430   -8.0302  -51.5685 H         1 UNK         0.0600 
    129 H129        1.4375   -8.7243  -53.0808 H         1 UNK         0.0600 
    130 H130        0.1755  -11.2618  -51.3120 H         1 UNK         0.3000 
    131 H131        2.7875  -12.2567  -50.5209 H         1 UNK         0.0600 
    132 H132        0.6988  -13.5780  -51.5888 H         1 UNK         0.0800 
    133 H133        0.2057  -13.7636  -49.9362 H         1 UNK         0.0800 
    134 H134        1.3384  -15.2430  -48.2639 H         1 UNK         0.0800 
    135 H135        2.4600  -16.5142  -48.6630 H         1 UNK         0.0800 
    136 H136       -1.0399  -15.4899  -48.7909 H         1 UNK         0.1150 
    137 H137       -2.3945  -19.2415  -50.3475 H         1 UNK         0.1150 
    138 H138        1.7994  -18.3585  -50.2198 H         1 UNK         0.1150 
    139 H139       -0.2685  -20.2912  -52.0329 H         1 UNK         0.0800 
    140 H140        1.1366  -20.4653  -51.0136 H         1 UNK         0.0800 
    141 H141        0.8275  -21.1222  -48.4368 H         1 UNK         0.0800 
    142 H142       -0.7568  -20.5106  -48.0381 H         1 UNK         0.0800 
    143 H143        0.0129  -23.4730  -47.9358 H         1 UNK         0.0600 
    144 H144        0.7183  -21.4677  -46.0888 H         1 UNK         0.3000 
    145 H145        0.9490  -23.5371  -43.1677 H         1 UNK         0.0600 
    146 H146        2.9686  -22.0440  -44.9247 H         1 UNK         0.0600 
    147 H147        3.2049  -22.5293  -43.2480 H         1 UNK         0.0600 
    148 H148        3.0545  -23.7507  -44.5027 H         1 UNK         0.0600 
    149 H149        1.3867  -20.7532  -43.4982 H         1 UNK         0.3000 
    150 H150       -1.9710  -19.6836  -42.7425 H         1 UNK         0.0600 
    151 H151       -0.6816  -18.3870  -41.0882 H         1 UNK         0.0600 
    152 H152        0.7342  -19.4088  -41.3288 H         1 UNK         0.0600 
    153 H153       -0.7239  -20.0744  -40.6038 H         1 UNK         0.0600 
    154 H154        0.2994  -18.1553  -43.4397 H         1 UNK         0.3000 
    155 H155       -0.1556  -18.2093  -47.0021 H         1 UNK         0.0600 
    156 H156       -1.6570  -16.4455  -45.9781 H         1 UNK         0.0600 
    157 H157       -0.1541  -15.7865  -46.6022 H         1 UNK         0.0600 
    158 H158       -0.3434  -16.0146  -44.8846 H         1 UNK         0.0600 
    159 H159        1.8034  -17.0139  -45.2633 H         1 UNK         0.3000 
    160 H160        4.1903  -19.6574  -45.4780 H         1 UNK         0.0600 
    161 H161        4.1093  -16.8441  -46.7010 H         1 UNK         0.0600 
    162 H162        4.3982  -18.3306  -47.5963 H         1 UNK         0.0600 
    163 H163        5.5530  -17.8041  -46.3826 H         1 UNK         0.0600 
    164 H164        4.2721  -17.0862  -44.2530 H         1 UNK         0.3000 
    165 H165        2.7255  -17.7367  -41.3033 H         1 UNK         0.0600 
    166 H166        5.7076  -18.4304  -41.3446 H         1 UNK         0.0600 
    167 H167        4.8183  -17.8444  -39.9392 H         1 UNK         0.0600 
    168 H168        4.4264  -19.4078  -40.6369 H         1 UNK         0.0600 
    169 H169        4.9050  -16.2937  -42.7518 H         1 UNK         0.3000 
    170 H170        2.4305  -16.1025  -40.0786 H         1 UNK         0.0600 
    171 H171        3.9089  -14.4017  -39.0438 H         1 UNK         0.0600 
    172 H172        2.9974  -13.1248  -39.8424 H         1 UNK         0.0600 
    173 H173        2.2141  -14.1595  -38.6510 H         1 UNK         0.0600 
    174 H174        0.9190  -13.8128  -40.8498 H         1 UNK         0.3000 
    175 H175       -1.3727  -15.4744  -43.0121 H         1 UNK         0.0600 
    176 H176       -2.7350  -14.1532  -41.4534 H         1 UNK         0.0600 
    177 H177       -1.9446  -15.4873  -40.6298 H         1 UNK         0.0600 
    178 H178       -1.3396  -13.8532  -40.4226 H         1 UNK         0.0600 
    179 H179       -0.8559  -13.6461  -44.1575 H         1 UNK         0.3000 
    180 H180       -0.9554  -11.3231  -44.4868 H         1 UNK         0.0600 
    181 H181        0.1050   -9.1271  -44.1049 H         1 UNK         0.0600 
    182 H182       -0.7626   -9.6290  -42.6627 H         1 UNK         0.0600 
    183 H183        0.9921   -9.7521  -42.7156 H         1 UNK         0.0600 
    184 H184        1.9492  -11.0513  -44.5047 H         1 UNK         0.3000 
    185 H185        3.0957  -11.7119  -46.2581 H         1 UNK         0.0600 
    186 H186        4.2283  -13.9234  -46.4120 H         1 UNK         0.0600 
    187 H187        3.3997  -13.7767  -44.8711 H         1 UNK         0.0600 
    188 H188        2.6932  -14.7533  -46.1504 H         1 UNK         0.0600 
    189 H189        2.8316  -13.4858  -48.3473 H         1 UNK         0.3000 
    190 H190       -2.0693  -21.3975  -45.8701 H         1 UNK         0.3000 
    191 H191       -4.5666  -22.4322  -46.7647 H         1 UNK         0.0600 
    192 H192       -5.4411  -21.3383  -44.6946 H         1 UNK         0.0600 
    193 H193       -4.3645  -20.2732  -45.5863 H         1 UNK         0.0600 
    194 H194       -3.7949  -21.0801  -44.1272 H         1 UNK         0.0600 
    195 H195       -2.4670  -23.3643  -43.9813 H         1 UNK         0.3000 
    196 H196       -4.1464  -25.3842  -42.9334 H         1 UNK         0.0600 
    197 H197       -2.0660  -26.1285  -41.7545 H         1 UNK         0.0600 
    198 H198       -2.2791  -24.3875  -41.6586 H         1 UNK         0.0600 
    199 H199       -1.1023  -25.0709  -42.7790 H         1 UNK         0.0600 
    200 H200       -1.6315  -25.5451  -45.4577 H         1 UNK         0.3000 
    201 H201       -1.8129  -28.3888  -45.9095 H         1 UNK         0.0600 
    202 H202        0.1938  -27.0369  -46.4974 H         1 UNK         0.0600 
    203 H203       -0.7464  -26.1072  -47.6628 H         1 UNK         0.0600 
    204 H204       -0.4524  -27.8214  -47.9297 H         1 UNK         0.0600 
    205 H205       -3.9654  -25.8623  -46.6541 H         1 UNK         0.3000 
    206 H206       -5.7353  -25.5237  -47.8971 H         1 UNK         0.0600 
    207 H207       -6.4747  -27.7914  -47.1105 H         1 UNK         0.0600 
    208 H208       -7.1253  -27.3800  -48.6883 H         1 UNK         0.0600 
    209 H209       -5.7874  -28.5116  -48.5665 H         1 UNK         0.0600 
    210 H210       -3.0031  -25.4251  -49.0641 H         1 UNK         0.3000 
    211 H211       -3.3032  -25.9685  -51.9318 H         1 UNK         0.0600 
    212 H212       -0.9835  -24.9925  -52.0003 H         1 UNK         0.0600 
    213 H213       -1.1145  -26.3254  -50.8613 H         1 UNK         0.0600 
    214 H214       -1.0787  -24.6665  -50.2730 H         1 UNK         0.0600 
    215 H215       -3.7430  -23.3028  -49.7071 H         1 UNK         0.3000 
    216 H216       -3.4595  -21.0900  -51.3612 H         1 UNK         0.0600 
    217 H217       -4.8970  -19.9285  -49.6647 H         1 UNK         0.0600 
    218 H218       -3.6854  -20.9444  -48.9039 H         1 UNK         0.0600 
    219 H219       -5.3626  -21.4858  -48.9908 H         1 UNK         0.0600 
    220 H220       -6.2231  -23.2689  -51.1651 H         1 UNK         0.3000 
    221 H221       -8.0988  -21.6693  -52.6336 H         1 UNK         0.0600 
    222 H222       -7.9497  -24.6968  -52.1600 H         1 UNK         0.0600 
    223 H223       -8.7974  -23.5278  -51.1472 H         1 UNK         0.0600 
    224 H224       -9.3496  -23.8330  -52.7864 H         1 UNK         0.0600 
    225 H225       -5.4627  -23.8046  -53.6172 H         1 UNK         0.3000 
    226 H226       -6.3409  -23.8961  -56.4461 H         1 UNK         0.0600 
    227 H227       -4.3959  -25.4153  -56.7023 H         1 UNK         0.0600 
    228 H228       -3.9423  -25.1668  -55.0212 H         1 UNK         0.0600 
    229 H229       -5.4563  -25.9766  -55.4188 H         1 UNK         0.0600 
    230 H230       -3.7039  -22.6288  -54.3747 H         1 UNK         0.3000 
    231 H231       -2.2053  -21.3934  -56.4633 H         1 UNK         0.0600 
    232 H232       -0.9903  -20.3392  -54.5510 H         1 UNK         0.0600 
    233 H233       -1.2458  -22.0542  -54.2643 H         1 UNK         0.0600 
    234 H234       -2.2529  -20.8659  -53.4430 H         1 UNK         0.0600 
    235 H235       -4.9128  -20.2554  -54.5195 H         1 UNK         0.3000 
    236 H236       -6.2143  -18.5004  -54.4972 H         1 UNK         0.0600 
    237 H237       -5.0531  -17.6559  -57.2029 H         1 UNK         0.0600 
    238 H238       -6.3621  -18.8170  -56.9835 H         1 UNK         0.0600 
    239 H239       -6.5828  -17.1416  -56.5082 H         1 UNK         0.0600 
    240 H240       -3.3440  -18.3557  -53.5543 H         1 UNK         0.3000 
    241 H241       -2.0041  -17.0422  -52.4145 H         1 UNK         0.0600 
    242 H242       -1.1353  -15.0973  -55.5947 H         1 UNK         0.3800 
    243 H243       -2.0453  -16.5804  -55.4484 H         1 UNK         0.3800 
    244 H244       -4.3102  -15.0531  -52.1808 H         1 UNK         0.0800 
    245 H245       -2.8994  -15.0936  -51.1602 H         1 UNK         0.0800 
    246 H246       -3.3437  -15.9555  -48.7230 H         1 UNK         0.0800 
    247 H247       -3.7025  -17.6459  -48.4770 H         1 UNK         0.0800 
@<TRIPOS>BOND
     1    1    2 1    
     2    1  127 1    
     3    1  128 1    
     4    1  129 1    
     5    2    3 2    
     6    2    4 am   BACKBONE|DICT|INTERRES
     7    4    5 1    
     8    4  130 1    
     9    5    6 1    
    10    5   65 1    
    11    5  131 1    
    12    6    7 1    
    13    6  132 1    
    14    6  133 1    
    15    7    8 1    
    16    8    9 1    
    17    8  134 1    
    18    8  135 1    
    19    9   10 ar   
    20    9   14 ar   
    21   10   11 ar   
    22   10  136 1    
    23   11   12 ar   
    24   11  126 1    
    25   12   13 ar   
    26   12  137 1    
    27   13   14 ar   
    28   13   15 1    
    29   14  138 1    
    30   15   16 1    
    31   15  139 1    
    32   15  140 1    
    33   16   17 1    
    34   17   18 1    
    35   17  141 1    
    36   17  142 1    
    37   18   19 1    
    38   18   67 1    
    39   18  143 1    
    40   19   20 am   BACKBONE|DICT|INTERRES
    41   19  144 1    
    42   20   21 2    
    43   20   22 1    
    44   22   23 1    
    45   22   24 1    
    46   22  145 1    
    47   23  146 1    
    48   23  147 1    
    49   23  148 1    
    50   24   25 am   BACKBONE|DICT|INTERRES
    51   24  149 1    
    52   25   26 2    
    53   25   27 1    
    54   27   28 1    
    55   27   29 1    
    56   27  150 1    
    57   28  151 1    
    58   28  152 1    
    59   28  153 1    
    60   29   30 am   BACKBONE|DICT|INTERRES
    61   29  154 1    
    62   30   31 2    
    63   30   32 1    
    64   32   33 1    
    65   32   34 1    
    66   32  155 1    
    67   33  156 1    
    68   33  157 1    
    69   33  158 1    
    70   34   35 am   BACKBONE|DICT|INTERRES
    71   34  159 1    
    72   35   36 2    
    73   35   37 1    
    74   37   38 1    
    75   37   39 1    
    76   37  160 1    
    77   38  161 1    
    78   38  162 1    
    79   38  163 1    
    80   39   40 am   BACKBONE|DICT|INTERRES
    81   39  164 1    
    82   40   41 2    
    83   40   42 1    
    84   42   43 1    
    85   42   44 1    
    86   42  165 1    
    87   43  166 1    
    88   43  167 1    
    89   43  168 1    
    90   44   45 am   BACKBONE|DICT|INTERRES
    91   44  169 1    
    92   45   46 2    
    93   45   47 1    
    94   47   48 1    
    95   47   49 1    
    96   47  170 1    
    97   48  171 1    
    98   48  172 1    
    99   48  173 1    
   100   49   50 am   BACKBONE|DICT|INTERRES
   101   49  174 1    
   102   50   51 2    
   103   50   52 1    
   104   52   53 1    
   105   52   54 1    
   106   52  175 1    
   107   53  176 1    
   108   53  177 1    
   109   53  178 1    
   110   54   55 am   BACKBONE|DICT|INTERRES
   111   54  179 1    
   112   55   56 2    
   113   55   57 1    
   114   57   58 1    
   115   57   59 1    
   116   57  180 1    
   117   58  181 1    
   118   58  182 1    
   119   58  183 1    
   120   59   60 am   BACKBONE|DICT|INTERRES
   121   59  184 1    
   122   60   61 2    
   123   60   62 1    
   124   62   63 1    
   125   62   64 1    
   126   62  185 1    
   127   63  186 1    
   128   63  187 1    
   129   63  188 1    
   130   64   65 am   BACKBONE|DICT|INTERRES
   131   64  189 1    
   132   65   66 2    
   133   67   68 2    
   134   67   69 am   BACKBONE|DICT|INTERRES
   135   69   70 1    
   136   69  190 1    
   137   70   71 1    
   138   70   72 1    
   139   70  191 1    
   140   71  192 1    
   141   71  193 1    
   142   71  194 1    
   143   72   73 2    
   144   72   74 am   BACKBONE|DICT|INTERRES
   145   74   75 1    
   146   74  195 1    
   147   75   76 1    
   148   75   77 1    
   149   75  196 1    
   150   76  197 1    
   151   76  198 1    
   152   76  199 1    
   153   77   78 2    
   154   77   79 am   BACKBONE|DICT|INTERRES
   155   79   80 1    
   156   79  200 1    
   157   80   81 1    
   158   80   82 1    
   159   80  201 1    
   160   81  202 1    
   161   81  203 1    
   162   81  204 1    
   163   82   83 2    
   164   82   84 am   BACKBONE|DICT|INTERRES
   165   84   85 1    
   166   84  205 1    
   167   85   86 1    
   168   85   87 1    
   169   85  206 1    
   170   86  207 1    
   171   86  208 1    
   172   86  209 1    
   173   87   88 2    
   174   87   89 am   BACKBONE|DICT|INTERRES
   175   89   90 1    
   176   89  210 1    
   177   90   91 1    
   178   90   92 1    
   179   90  211 1    
   180   91  212 1    
   181   91  213 1    
   182   91  214 1    
   183   92   93 2    
   184   92   94 am   BACKBONE|DICT|INTERRES
   185   94   95 1    
   186   94  215 1    
   187   95   96 1    
   188   95   97 1    
   189   95  216 1    
   190   96  217 1    
   191   96  218 1    
   192   96  219 1    
   193   97   98 2    
   194   97   99 am   BACKBONE|DICT|INTERRES
   195   99  100 1    
   196   99  220 1    
   197  100  101 1    
   198  100  102 1    
   199  100  221 1    
   200  101  222 1    
   201  101  223 1    
   202  101  224 1    
   203  102  103 2    
   204  102  104 am   BACKBONE|DICT|INTERRES
   205  104  105 1    
   206  104  225 1    
   207  105  106 1    
   208  105  107 1    
   209  105  226 1    
   210  106  227 1    
   211  106  228 1    
   212  106  229 1    
   213  107  108 2    
   214  107  109 am   BACKBONE|DICT|INTERRES
   215  109  110 1    
   216  109  230 1    
   217  110  111 1    
   218  110  112 1    
   219  110  231 1    
   220  111  232 1    
   221  111  233 1    
   222  111  234 1    
   223  112  113 2    
   224  112  114 am   BACKBONE|DICT|INTERRES
   225  114  115 1    
   226  114  235 1    
   227  115  116 1    
   228  115  117 1    
   229  115  236 1    
   230  116  237 1    
   231  116  238 1    
   232  116  239 1    
   233  117  118 2    
   234  117  119 am   BACKBONE|DICT|INTERRES
   235  119  120 1    
   236  119  240 1    
   237  120  121 1    
   238  120  124 1    
   239  120  241 1    
   240  121  122 am   BACKBONE|DICT|INTERRES
   241  121  123 2    
   242  122  242 1    
   243  122  243 1    
   244  124  125 1    
   245  124  244 1    
   246  124  245 1    
   247  125  126 1    
   248  126  246 1    
   249  126  247 1    
@<TRIPOS>SUBSTRUCTURE
     1 UNK         1 GROUP             0       ****    0 ROOT    
