@<TRIPOS>MOLECULE
3R540
247   249    1
SMALL
USER_CHARGES


@<TRIPOS>ATOM
      1 CA          2.5746  -11.6472  -52.3241 C.3       0 UNK        -0.1800 
      2 C           2.2219  -12.1294  -50.9236 C.2       0 UNK         0.5000 
      3 O           1.9930  -11.3066  -50.0367 O.2       0 UNK        -0.5000 
      4 N           2.1721  -13.4552  -50.7331 N.am      1 UNK        -0.5000 
      5 CA          1.9054  -14.1531  -49.4682 C.3       1 UNK         0.1400 
      6 C6          0.5211  -13.7730  -48.8605 C.3       23 UNK        -0.0398 
      7 S7         -0.1602  -14.9613  -47.6504 S.3       23 UNK        -0.2404 
      8 C8         -1.0700  -16.1513  -48.6950 C.3       23 UNK        -0.0205 
      9 C9         -0.1592  -17.0727  -49.4998 C.ar      23 UNK        -0.0193 
     10 C10        -0.4444  -17.3449  -50.8422 C.ar      23 UNK        -0.1150 
     11 C11         0.3791  -18.1964  -51.5874 C.ar      23 UNK        -0.0193 
     12 C12         1.5054  -18.7620  -50.9830 C.ar      23 UNK        -0.1150 
     13 C13         1.8084  -18.4907  -49.6471 C.ar      23 UNK        -0.0193 
     14 C14         0.9625  -17.6627  -48.9069 C.ar      23 UNK        -0.1150 
     15 C15         3.0700  -19.0627  -49.0197 C.3       23 UNK        -0.0205 
     16 S16         2.8320  -20.7661  -48.4336 S.3       23 UNK        -0.2404 
     17 C17         1.9058  -20.4844  -46.8886 C.3       23 UNK        -0.0398 
     18 CA          0.9442  -21.6427  -46.5472 C.3       11 UNK         0.1400 
     19 N           0.5981  -21.6452  -45.1255 N.am      11 UNK        -0.5000 
     20 C           0.0033  -22.6607  -44.4875 C.2       10 UNK         0.5000 
     21 O          -0.3401  -23.7064  -45.0389 O.2       10 UNK        -0.5000 
     22 CA         -0.2885  -22.4568  -42.9906 C.3       10 UNK         0.1400 
     23 CB          0.9968  -22.5743  -42.1575 C.3       10 UNK        -0.1800 
     24 N          -0.9336  -21.1724  -42.7209 N.am      10 UNK        -0.5000 
     25 C          -2.1566  -20.8392  -43.1578 C.2       9 UNK         0.5000 
     26 O          -2.8839  -21.5957  -43.8032 O.2       9 UNK        -0.5000 
     27 CA         -2.6332  -19.4077  -42.8517 C.3       9 UNK         0.1400 
     28 CB         -3.1433  -19.3023  -41.4068 C.3       9 UNK        -0.1800 
     29 N          -1.5994  -18.3969  -43.0811 N.am      9 UNK        -0.5000 
     30 C          -1.0255  -18.1531  -44.2684 C.2       8 UNK         0.5000 
     31 O          -1.3039  -18.7510  -45.3036 O.2       8 UNK        -0.5000 
     32 CA          0.0924  -17.1043  -44.3004 C.3       8 UNK         0.1400 
     33 CB         -0.4857  -15.6851  -44.1960 C.3       8 UNK        -0.1800 
     34 N           1.0789  -17.3174  -43.2462 N.am      8 UNK        -0.5000 
     35 C           1.8263  -18.4186  -43.0910 C.2       7 UNK         0.5000 
     36 O           1.7922  -19.3871  -43.8483 O.2       7 UNK        -0.5000 
     37 CA          2.7309  -18.4606  -41.8501 C.3       7 UNK         0.1400 
     38 CB          4.0185  -17.6568  -42.0808 C.3       7 UNK        -0.1800 
     39 N           2.0445  -17.9551  -40.6633 N.am      7 UNK        -0.5000 
     40 C           1.0194  -18.5733  -40.0611 C.2       6 UNK         0.5000 
     41 O           0.5557  -19.6547  -40.4266 O.2       6 UNK        -0.5000 
     42 CA          0.3860  -17.8308  -38.8718 C.3       6 UNK         0.1400 
     43 CB          1.2204  -18.0288  -37.5973 C.3       6 UNK        -0.1800 
     44 N           0.2203  -16.3983  -39.1298 N.am      6 UNK        -0.5000 
     45 C          -0.6322  -15.8974  -40.0336 C.2       5 UNK         0.5000 
     46 O          -1.3525  -16.5904  -40.7526 O.2       5 UNK        -0.5000 
     47 CA         -0.6713  -14.3651  -40.1765 C.3       5 UNK         0.1400 
     48 CB         -1.5104  -13.7400  -39.0515 C.3       5 UNK        -0.1800 
     49 N           0.6410  -13.7094  -40.2267 N.am      5 UNK        -0.5000 
     50 C           1.6030  -13.9800  -41.1179 C.2       4 UNK         0.5000 
     51 O           1.5830  -14.9429  -41.8853 O.2       4 UNK        -0.5000 
     52 CA          2.7736  -12.9976  -41.2096 C.3       4 UNK         0.1400 
     53 CB          4.0624  -13.6001  -40.6278 C.3       4 UNK        -0.1800 
     54 N           2.9496  -12.7045  -42.6272 N.am      4 UNK        -0.5000 
     55 C           3.3527  -11.5425  -43.1512 C.2       3 UNK         0.5000 
     56 O           3.7282  -10.5880  -42.4681 O.2       3 UNK        -0.5000 
     57 CA          3.2827  -11.4080  -44.6912 C.3       3 UNK         0.1400 
     58 CB          4.3533  -10.4507  -45.2567 C.3       3 UNK        -0.1800 
     59 N           3.2841  -12.6876  -45.4157 N.am      3 UNK        -0.5000 
     60 C           4.2785  -13.5871  -45.4768 C.2       2 UNK         0.5000 
     61 O           5.3579  -13.4618  -44.8983 O.2       2 UNK        -0.5000 
     62 CA          4.0202  -14.8571  -46.3111 C.3       2 UNK         0.1400 
     63 CB          3.6482  -16.0256  -45.3879 C.3       2 UNK        -0.1800 
     64 N           2.9663  -14.7041  -47.3178 N.am      2 UNK        -0.5000 
     65 C           3.1015  -14.0586  -48.4831 C.2       1 UNK         0.5000 
     66 O           4.1385  -13.4721  -48.8048 O.2       1 UNK        -0.5000 
     67 C          -0.3061  -21.6669  -47.4536 C.2       11 UNK         0.5000 
     68 O          -0.3167  -22.3937  -48.4468 O.2       11 UNK        -0.5000 
     69 N          -1.3603  -20.9333  -47.0662 N.am      12 UNK        -0.5000 
     70 CA         -2.6596  -20.9163  -47.7390 C.3       12 UNK         0.1400 
     71 CB         -3.5801  -19.8811  -47.0738 C.3       12 UNK        -0.1800 
     72 C          -3.3471  -22.2903  -47.7722 C.2       12 UNK         0.5000 
     73 O          -3.9634  -22.6293  -48.7833 O.2       12 UNK        -0.5000 
     74 N          -3.2102  -23.0565  -46.6815 N.am      13 UNK        -0.5000 
     75 CA         -3.6706  -24.4386  -46.5870 C.3       13 UNK         0.1400 
     76 CB         -3.7387  -24.8606  -45.1116 C.3       13 UNK        -0.1800 
     77 C          -2.7757  -25.3919  -47.3982 C.2       13 UNK         0.5000 
     78 O          -3.2981  -26.2145  -48.1505 O.2       13 UNK        -0.5000 
     79 N          -1.4486  -25.2455  -47.2601 N.am      14 UNK        -0.5000 
     80 CA         -0.4323  -26.0583  -47.9393 C.3       14 UNK         0.1400 
     81 CB          0.9596  -25.6969  -47.4015 C.3       14 UNK        -0.1800 
     82 C          -0.4591  -25.9474  -49.4765 C.2       14 UNK         0.5000 
     83 O          -0.1185  -26.9161  -50.1563 O.2       14 UNK        -0.5000 
     84 N          -0.8960  -24.7913  -49.9963 N.am      15 UNK        -0.5000 
     85 CA         -1.1468  -24.5406  -51.4184 C.3       15 UNK         0.1400 
     86 CB         -1.4612  -23.0471  -51.6115 C.3       15 UNK        -0.1800 
     87 C          -2.2802  -25.4056  -52.0126 C.2       15 UNK         0.5000 
     88 O          -2.3192  -25.5845  -53.2299 O.2       15 UNK        -0.5000 
     89 N          -3.1682  -25.9147  -51.1437 N.am      16 UNK        -0.5000 
     90 CA         -4.3465  -26.7422  -51.4140 C.3       16 UNK         0.1400 
     91 CB         -3.8954  -28.1904  -51.6923 C.3       16 UNK        -0.1800 
     92 C          -5.2769  -26.1812  -52.5187 C.2       16 UNK         0.5000 
     93 O          -5.4773  -26.8461  -53.5354 O.2       16 UNK        -0.5000 
     94 N          -5.8508  -24.9806  -52.3697 N.am      17 UNK        -0.5000 
     95 CA         -5.7418  -24.0169  -51.2770 C.3       17 UNK         0.1400 
     96 CB         -6.8717  -24.2506  -50.2628 C.3       17 UNK        -0.1800 
     97 C          -5.8280  -22.6155  -51.8920 C.2       17 UNK         0.5000 
     98 O          -6.4141  -22.4662  -52.9704 O.2       17 UNK        -0.5000 
     99 N          -5.2409  -21.6228  -51.2111 N.am      18 UNK        -0.5000 
    100 CA        -5.2188  -20.2196  -51.6313 C.3       18 UNK         0.1400 
    101 CB        -4.2886  -19.4085  -50.7195 C.3       18 UNK        -0.1800 
    102 C         -6.6401  -19.6257  -51.6779 C.2       18 UNK         0.5000 
    103 O         -7.1994  -19.2961  -50.6308 O.2       18 UNK        -0.5000 
    104 N         -7.1868  -19.5647  -52.8955 N.am      19 UNK        -0.5000 
    105 CA        -8.5525  -19.2386  -53.3132 C.3       19 UNK         0.1400 
    106 CB        -9.6385  -19.7186  -52.3246 C.3       19 UNK        -0.1800 
    107 C         -8.7806  -19.9147  -54.6737 C.2       19 UNK         0.5000 
    108 O         -9.2313  -19.2614  -55.6151 O.2       19 UNK        -0.5000 
    109 N         -8.4274  -21.2060  -54.7524 N.am      20 UNK        -0.5000 
    110 CA        -8.3567  -21.9813  -55.9902 C.3       20 UNK         0.1400 
    111 CB        -8.6954  -23.4511  -55.6934 C.3       20 UNK        -0.1800 
    112 C         -6.9516  -21.8484  -56.5990 C.2       20 UNK         0.5000 
    113 O         -6.8186  -21.5566  -57.7882 O.2       20 UNK        -0.5000 
    114 N         -5.9328  -22.0129  -55.7466 N.am      21 UNK        -0.5000 
    115 CA        -4.5495  -21.6267  -56.0024 C.3       21 UNK         0.1400 
    116 CB        -3.6318  -22.5279  -55.1570 C.3       21 UNK        -0.1800 
    117 C         -4.3497  -20.1469  -55.6242 C.2       21 UNK         0.5000 
    118 O         -5.2366  -19.5403  -55.0165 O.2       21 UNK        -0.5000 
    119 N         -3.1718  -19.6040  -55.9518 N.am      22 UNK        -0.5000 
    120 CA        -2.7004  -18.2655  -55.5395 C.3       22 UNK         0.1400 
    121 C         -3.4616  -17.0647  -56.1833 C.2       22 UNK         0.5000 
    122 N         -4.2531  -17.2655  -57.2296 N.am      22 UNK        -0.7600 
    123 O         -3.3068  -15.9244  -55.7543 O.2       22 UNK        -0.5000 
    124 C124       -2.5616  -18.1211  -53.9938 C.3       23 UNK        -0.0398 
    125 S125       -1.4799  -19.4044  -53.2679 S.3       23 UNK        -0.2404 
    126 C126        0.0798  -18.4877  -53.0518 C.3       23 UNK        -0.0205 
    127 H127        3.4829  -11.0453  -52.2953 H         1 UNK         0.0600 
    128 H128        1.7686  -11.0312  -52.7231 H         1 UNK         0.0600 
    129 H129        2.7390  -12.4780  -53.0107 H         1 UNK         0.0600 
    130 H130        2.3996  -14.0609  -51.5089 H         1 UNK         0.3000 
    131 H131        1.8621  -15.2011  -49.7595 H         1 UNK         0.0600 
    132 H132        0.5739  -12.7970  -48.3761 H         1 UNK         0.0800 
    133 H133       -0.2134  -13.6629  -49.6595 H         1 UNK         0.0800 
    134 H134       -1.6928  -16.7712  -48.0485 H         1 UNK         0.0800 
    135 H135       -1.7513  -15.6051  -49.3492 H         1 UNK         0.0800 
    136 H136       -1.3117  -16.9005  -51.3096 H         1 UNK         0.1150 
    137 H137        2.1568  -19.4088  -51.5540 H         1 UNK         0.1150 
    138 H138        1.1913  -17.4560  -47.8718 H         1 UNK         0.1150 
    139 H139        3.8743  -19.0566  -49.7569 H         1 UNK         0.0800 
    140 H140        3.4123  -18.4338  -48.1961 H         1 UNK         0.0800 
    141 H141        1.3689  -19.5368  -46.9115 H         1 UNK         0.0800 
    142 H142        2.6562  -20.3824  -46.1040 H         1 UNK         0.0800 
    143 H143        1.4849  -22.5738  -46.7239 H         1 UNK         0.0600 
    144 H144        0.8644  -20.8173  -44.5967 H         1 UNK         0.3000 
    145 H145       -0.9705  -23.2490  -42.6746 H         1 UNK         0.0600 
    146 H146        0.7801  -22.5149  -41.0908 H         1 UNK         0.0600 
    147 H147        1.4929  -23.5290  -42.3367 H         1 UNK         0.0600 
    148 H148        1.7081  -21.7831  -42.3965 H         1 UNK         0.0600 
    149 H149       -0.4057  -20.5002  -42.1757 H         1 UNK         0.3000 
    150 H150       -3.4657  -19.1867  -43.5228 H         1 UNK         0.0600 
    151 H151       -3.9159  -20.0463  -41.2083 H         1 UNK         0.0600 
    152 H152       -3.5789  -18.3218  -41.2143 H         1 UNK         0.0600 
    153 H153       -2.3409  -19.4582  -40.6846 H         1 UNK         0.0600 
    154 H154       -1.3246  -17.8382  -42.2782 H         1 UNK         0.3000 
    155 H155        0.6041  -17.1950  -45.2606 H         1 UNK         0.0600 
    156 H156       -0.9230  -15.4977  -43.2161 H         1 UNK         0.0600 
    157 H157       -1.2704  -15.5255  -44.9360 H         1 UNK         0.0600 
    158 H158        0.2837  -14.9326  -44.3686 H         1 UNK         0.0600 
    159 H159        1.2045  -16.5470  -42.5922 H         1 UNK         0.3000 
    160 H160        3.0053  -19.5021  -41.6691 H         1 UNK         0.0600 
    161 H161        3.8080  -16.6046  -42.2735 H         1 UNK         0.0600 
    162 H162        4.5696  -18.0453  -42.9380 H         1 UNK         0.0600 
    163 H163        4.6802  -17.7140  -41.2165 H         1 UNK         0.0600 
    164 H164        2.3207  -17.0431  -40.3313 H         1 UNK         0.3000 
    165 H165       -0.6028  -18.2623  -38.7007 H         1 UNK         0.0600 
    166 H166        0.7343  -17.5745  -36.7338 H         1 UNK         0.0600 
    167 H167        1.3483  -19.0894  -37.3762 H         1 UNK         0.0600 
    168 H168        2.2148  -17.5908  -37.6920 H         1 UNK         0.0600 
    169 H169        0.7843  -15.7606  -38.5875 H         1 UNK         0.3000 
    170 H170       -1.1711  -14.1471  -41.1224 H         1 UNK         0.0600 
    171 H171       -2.4989  -14.1987  -38.9993 H         1 UNK         0.0600 
    172 H172       -1.0375  -13.8671  -38.0769 H         1 UNK         0.0600 
    173 H173       -1.6588  -12.6726  -39.2161 H         1 UNK         0.0600 
    174 H174        0.7548  -12.9072  -39.6240 H         1 UNK         0.3000 
    175 H175        2.5195  -12.0843  -40.6675 H         1 UNK         0.0600 
    176 H176        4.3589  -14.5061  -41.1570 H         1 UNK         0.0600 
    177 H177        4.8893  -12.8926  -40.6919 H         1 UNK         0.0600 
    178 H178        3.9336  -13.8578  -39.5760 H         1 UNK         0.0600 
    179 H179        2.6271  -13.4376  -43.2446 H         1 UNK         0.3000 
    180 H180        2.3110  -10.9573  -44.8974 H         1 UNK         0.0600 
    181 H181        5.3634  -10.7844  -45.0183 H         1 UNK         0.0600 
    182 H182        4.2375   -9.4468  -44.8466 H         1 UNK         0.0600 
    183 H183        4.2740  -10.3671  -46.3407 H         1 UNK         0.0600 
    184 H184        2.4394  -12.8985  -45.9273 H         1 UNK         0.3000 
    185 H185        4.9505  -15.1114  -46.8235 H         1 UNK         0.0600 
    186 H186        4.4599  -16.2395  -44.6924 H         1 UNK         0.0600 
    187 H187        2.7624  -15.7954  -44.7968 H         1 UNK         0.0600 
    188 H188        3.4536  -16.9389  -45.9505 H         1 UNK         0.0600 
    189 H189        2.0795  -15.1483  -47.1195 H         1 UNK         0.3000 
    190 H190       -1.2681  -20.3122  -46.2649 H         1 UNK         0.3000 
    191 H191       -2.4828  -20.6143  -48.7713 H         1 UNK         0.0600 
    192 H192       -3.2142  -18.8676  -47.2382 H         1 UNK         0.0600 
    193 H193       -4.5941  -19.9308  -47.4710 H         1 UNK         0.0600 
    194 H194       -3.6523  -20.0429  -45.9983 H         1 UNK         0.0600 
    195 H195       -2.7109  -22.6839  -45.8835 H         1 UNK         0.3000 
    196 H196       -4.6804  -24.4946  -46.9996 H         1 UNK         0.0600 
    197 H197       -4.1037  -25.8838  -45.0152 H         1 UNK         0.0600 
    198 H198       -4.4175  -24.2178  -44.5507 H         1 UNK         0.0600 
    199 H199       -2.7624  -24.8131  -44.6288 H         1 UNK         0.0600 
    200 H200       -1.1024  -24.5611  -46.5930 H         1 UNK         0.3000 
    201 H201       -0.6318  -27.1013  -47.6859 H         1 UNK         0.0600 
    202 H202        1.0091  -25.8073  -46.3182 H         1 UNK         0.0600 
    203 H203        1.2283  -24.6710  -47.6504 H         1 UNK         0.0600 
    204 H204        1.7235  -26.3470  -47.8298 H         1 UNK         0.0600 
    205 H205       -1.0446  -24.0099  -49.3646 H         1 UNK         0.3000 
    206 H206       -0.2323  -24.7744  -51.9668 H         1 UNK         0.0600 
    207 H207       -0.6363  -22.4209  -51.2707 H         1 UNK         0.0600 
    208 H208       -1.6301  -22.8127  -52.6632 H         1 UNK         0.0600 
    209 H209       -2.3543  -22.7487  -51.0617 H         1 UNK         0.0600 
    210 H210       -3.0145  -25.7245  -50.1597 H         1 UNK         0.3000 
    211 H211       -4.9321  -26.7566  -50.4941 H         1 UNK         0.0600 
    212 H212       -3.2855  -28.2568  -52.5941 H         1 UNK         0.0600 
    213 H213       -4.7532  -28.8509  -51.8238 H         1 UNK         0.0600 
    214 H214       -3.3077  -28.5838  -50.8626 H         1 UNK         0.0600 
    215 H215       -6.3925  -24.6159  -53.1414 H         1 UNK         0.3000 
    216 H216       -4.7859  -24.0889  -50.7672 H         1 UNK         0.0600 
    217 H217       -6.8152  -23.5302  -49.4456 H         1 UNK         0.0600 
    218 H218       -6.8101  -25.2449  -49.8210 H         1 UNK         0.0600 
    219 H219       -7.8542  -24.1489  -50.7254 H         1 UNK         0.0600 
    220 H220       -4.8037  -21.8422  -50.3199 H         1 UNK         0.3000 
    221 H221       -4.7844  -20.1914  -52.6292 H         1 UNK         0.0600 
    222 H222       -4.6268  -19.4270  -49.6858 H         1 UNK         0.0600 
    223 H223       -3.2696  -19.7919  -50.7591 H         1 UNK         0.0600 
    224 H224       -4.2510  -18.3644  -51.0316 H         1 UNK         0.0600 
    225 H225       -6.5753  -19.7900  -53.6786 H         1 UNK         0.3000 
    226 H226       -8.6266  -18.1577  -53.4419 H         1 UNK         0.0600 
    227 H227       -9.6448  -19.1191  -51.4149 H         1 UNK         0.0600 
    228 H228      -10.6338  -19.6288  -52.7621 H         1 UNK         0.0600 
    229 H229       -9.4976  -20.7624  -52.0416 H         1 UNK         0.0600 
    230 H230       -8.0191  -21.6380  -53.9304 H         1 UNK         0.3000 
    231 H231       -9.0835  -21.6014  -56.7115 H         1 UNK         0.0600 
    232 H232       -8.0097  -23.8889  -54.9669 H         1 UNK         0.0600 
    233 H233       -8.6423  -24.0537  -56.6009 H         1 UNK         0.0600 
    234 H234       -9.7063  -23.5475  -55.2973 H         1 UNK         0.0600 
    235 H235       -6.1511  -22.2120  -54.7742 H         1 UNK         0.3000 
    236 H236       -4.3126  -21.7609  -57.0597 H         1 UNK         0.0600 
    237 H237       -3.8227  -23.5837  -55.3515 H         1 UNK         0.0600 
    238 H238       -2.5807  -22.3436  -55.3809 H         1 UNK         0.0600 
    239 H239       -3.7699  -22.3569  -54.0890 H         1 UNK         0.0600 
    240 H240       -2.4998  -20.1625  -56.4578 H         1 UNK         0.3000 
    241 H241       -1.6938  -18.1844  -55.9509 H         1 UNK         0.0600 
    242 H242       -4.7327  -16.4837  -57.6475 H         1 UNK         0.3800 
    243 H243       -4.3916  -18.1938  -57.5954 H         1 UNK         0.3800 
    244 H244       -2.1739  -17.1371  -53.7274 H         1 UNK         0.0800 
    245 H245       -3.5389  -18.1840  -53.5157 H         1 UNK         0.0800 
    246 H246        0.0682  -17.5529  -53.6131 H         1 UNK         0.0800 
    247 H247        0.8807  -19.0847  -53.4904 H         1 UNK         0.0800 
@<TRIPOS>BOND
     1    1    2 1    
     2    1  127 1    
     3    1  128 1    
     4    1  129 1    
     5    2    3 2    
     6    2    4 am   BACKBONE|DICT|INTERRES
     7    4    5 1    
     8    4  130 1    
     9    5    6 1    
    10    5   65 1    
    11    5  131 1    
    12    6    7 1    
    13    6  132 1    
    14    6  133 1    
    15    7    8 1    
    16    8    9 1    
    17    8  134 1    
    18    8  135 1    
    19    9   10 ar   
    20    9   14 ar   
    21   10   11 ar   
    22   10  136 1    
    23   11   12 ar   
    24   11  126 1    
    25   12   13 ar   
    26   12  137 1    
    27   13   14 ar   
    28   13   15 1    
    29   14  138 1    
    30   15   16 1    
    31   15  139 1    
    32   15  140 1    
    33   16   17 1    
    34   17   18 1    
    35   17  141 1    
    36   17  142 1    
    37   18   19 1    
    38   18   67 1    
    39   18  143 1    
    40   19   20 am   BACKBONE|DICT|INTERRES
    41   19  144 1    
    42   20   21 2    
    43   20   22 1    
    44   22   23 1    
    45   22   24 1    
    46   22  145 1    
    47   23  146 1    
    48   23  147 1    
    49   23  148 1    
    50   24   25 am   BACKBONE|DICT|INTERRES
    51   24  149 1    
    52   25   26 2    
    53   25   27 1    
    54   27   28 1    
    55   27   29 1    
    56   27  150 1    
    57   28  151 1    
    58   28  152 1    
    59   28  153 1    
    60   29   30 am   BACKBONE|DICT|INTERRES
    61   29  154 1    
    62   30   31 2    
    63   30   32 1    
    64   32   33 1    
    65   32   34 1    
    66   32  155 1    
    67   33  156 1    
    68   33  157 1    
    69   33  158 1    
    70   34   35 am   BACKBONE|DICT|INTERRES
    71   34  159 1    
    72   35   36 2    
    73   35   37 1    
    74   37   38 1    
    75   37   39 1    
    76   37  160 1    
    77   38  161 1    
    78   38  162 1    
    79   38  163 1    
    80   39   40 am   BACKBONE|DICT|INTERRES
    81   39  164 1    
    82   40   41 2    
    83   40   42 1    
    84   42   43 1    
    85   42   44 1    
    86   42  165 1    
    87   43  166 1    
    88   43  167 1    
    89   43  168 1    
    90   44   45 am   BACKBONE|DICT|INTERRES
    91   44  169 1    
    92   45   46 2    
    93   45   47 1    
    94   47   48 1    
    95   47   49 1    
    96   47  170 1    
    97   48  171 1    
    98   48  172 1    
    99   48  173 1    
   100   49   50 am   BACKBONE|DICT|INTERRES
   101   49  174 1    
   102   50   51 2    
   103   50   52 1    
   104   52   53 1    
   105   52   54 1    
   106   52  175 1    
   107   53  176 1    
   108   53  177 1    
   109   53  178 1    
   110   54   55 am   BACKBONE|DICT|INTERRES
   111   54  179 1    
   112   55   56 2    
   113   55   57 1    
   114   57   58 1    
   115   57   59 1    
   116   57  180 1    
   117   58  181 1    
   118   58  182 1    
   119   58  183 1    
   120   59   60 am   BACKBONE|DICT|INTERRES
   121   59  184 1    
   122   60   61 2    
   123   60   62 1    
   124   62   63 1    
   125   62   64 1    
   126   62  185 1    
   127   63  186 1    
   128   63  187 1    
   129   63  188 1    
   130   64   65 am   BACKBONE|DICT|INTERRES
   131   64  189 1    
   132   65   66 2    
   133   67   68 2    
   134   67   69 am   BACKBONE|DICT|INTERRES
   135   69   70 1    
   136   69  190 1    
   137   70   71 1    
   138   70   72 1    
   139   70  191 1    
   140   71  192 1    
   141   71  193 1    
   142   71  194 1    
   143   72   73 2    
   144   72   74 am   BACKBONE|DICT|INTERRES
   145   74   75 1    
   146   74  195 1    
   147   75   76 1    
   148   75   77 1    
   149   75  196 1    
   150   76  197 1    
   151   76  198 1    
   152   76  199 1    
   153   77   78 2    
   154   77   79 am   BACKBONE|DICT|INTERRES
   155   79   80 1    
   156   79  200 1    
   157   80   81 1    
   158   80   82 1    
   159   80  201 1    
   160   81  202 1    
   161   81  203 1    
   162   81  204 1    
   163   82   83 2    
   164   82   84 am   BACKBONE|DICT|INTERRES
   165   84   85 1    
   166   84  205 1    
   167   85   86 1    
   168   85   87 1    
   169   85  206 1    
   170   86  207 1    
   171   86  208 1    
   172   86  209 1    
   173   87   88 2    
   174   87   89 am   BACKBONE|DICT|INTERRES
   175   89   90 1    
   176   89  210 1    
   177   90   91 1    
   178   90   92 1    
   179   90  211 1    
   180   91  212 1    
   181   91  213 1    
   182   91  214 1    
   183   92   93 2    
   184   92   94 am   BACKBONE|DICT|INTERRES
   185   94   95 1    
   186   94  215 1    
   187   95   96 1    
   188   95   97 1    
   189   95  216 1    
   190   96  217 1    
   191   96  218 1    
   192   96  219 1    
   193   97   98 2    
   194   97   99 am   BACKBONE|DICT|INTERRES
   195   99  100 1    
   196   99  220 1    
   197  100  101 1    
   198  100  102 1    
   199  100  221 1    
   200  101  222 1    
   201  101  223 1    
   202  101  224 1    
   203  102  103 2    
   204  102  104 am   BACKBONE|DICT|INTERRES
   205  104  105 1    
   206  104  225 1    
   207  105  106 1    
   208  105  107 1    
   209  105  226 1    
   210  106  227 1    
   211  106  228 1    
   212  106  229 1    
   213  107  108 2    
   214  107  109 am   BACKBONE|DICT|INTERRES
   215  109  110 1    
   216  109  230 1    
   217  110  111 1    
   218  110  112 1    
   219  110  231 1    
   220  111  232 1    
   221  111  233 1    
   222  111  234 1    
   223  112  113 2    
   224  112  114 am   BACKBONE|DICT|INTERRES
   225  114  115 1    
   226  114  235 1    
   227  115  116 1    
   228  115  117 1    
   229  115  236 1    
   230  116  237 1    
   231  116  238 1    
   232  116  239 1    
   233  117  118 2    
   234  117  119 am   BACKBONE|DICT|INTERRES
   235  119  120 1    
   236  119  240 1    
   237  120  121 1    
   238  120  124 1    
   239  120  241 1    
   240  121  122 am   BACKBONE|DICT|INTERRES
   241  121  123 2    
   242  122  242 1    
   243  122  243 1    
   244  124  125 1    
   245  124  244 1    
   246  124  245 1    
   247  125  126 1    
   248  126  246 1    
   249  126  247 1    
@<TRIPOS>SUBSTRUCTURE
     1 UNK         1 GROUP             0       ****    0 ROOT    
