@<TRIPOS>MOLECULE
3R540
247   249    1
SMALL
USER_CHARGES


@<TRIPOS>ATOM
      1 CA         -1.4166  -10.2489  -52.4286 C.3       0 UNK        -0.1800 
      2 C          -0.3493  -10.8381  -51.5164 C.2       0 UNK         0.5000 
      3 O           0.7958  -10.3857  -51.5395 O.2       0 UNK        -0.5000 
      4 N          -0.7192  -11.8492  -50.7218 N.am      1 UNK        -0.5000 
      5 CA          0.1454  -12.4957  -49.7305 C.3       1 UNK         0.1400 
      6 C6         -0.3847  -13.9092  -49.3767 C.3       23 UNK        -0.0398 
      7 S7          0.9366  -15.0075  -48.7565 S.3       23 UNK        -0.2404 
      8 C8          1.1586  -16.1784  -50.1364 C.3       23 UNK        -0.0205 
      9 C9          0.3675  -17.4679  -49.9472 C.ar      23 UNK        -0.0193 
     10 C10        -1.0203  -17.4383  -49.7762 C.ar      23 UNK        -0.1150 
     11 C11        -1.7473  -18.6211  -49.6195 C.ar      23 UNK        -0.0193 
     12 C12        -1.0723  -19.8448  -49.6259 C.ar      23 UNK        -0.1150 
     13 C13         0.3107  -19.8939  -49.8166 C.ar      23 UNK        -0.0193 
     14 C14         1.0247  -18.7025  -49.9751 C.ar      23 UNK        -0.1150 
     15 C15         1.0238  -21.2386  -49.8648 C.3       23 UNK        -0.0205 
     16 S16         2.1787  -21.4893  -48.4760 S.3       23 UNK        -0.2404 
     17 C17         1.1168  -21.2187  -47.0181 C.3       23 UNK        -0.0398 
     18 CA          0.5405  -22.5209  -46.4167 C.3       11 UNK         0.1400 
     19 N           0.2048  -22.3443  -45.0047 N.am      11 UNK        -0.5000 
     20 C          -0.2162  -23.3084  -44.1759 C.2       10 UNK         0.5000 
     21 O          -0.3024  -24.4959  -44.4874 O.2       10 UNK        -0.5000 
     22 CA         -0.6688  -22.8486  -42.7802 C.3       10 UNK         0.1400 
     23 CB          0.5308  -22.7150  -41.8304 C.3       10 UNK        -0.1800 
     24 N          -1.3925  -21.5771  -42.8429 N.am      10 UNK        -0.5000 
     25 C          -2.6236  -21.4370  -43.3546 C.2       9 UNK         0.5000 
     26 O          -3.2953  -22.3764  -43.7814 O.2       9 UNK        -0.5000 
     27 CA         -3.1781  -20.0022  -43.4388 C.3       9 UNK         0.1400 
     28 CB         -3.7255  -19.5491  -42.0771 C.3       9 UNK        -0.1800 
     29 N          -2.1818  -19.0368  -43.9089 N.am      9 UNK        -0.5000 
     30 C          -1.6724  -19.0245  -45.1486 C.2       8 UNK         0.5000 
     31 O          -2.0110  -19.8105  -46.0294 O.2       8 UNK        -0.5000 
     32 CA         -0.5737  -17.9905  -45.4523 C.3       8 UNK         0.1400 
     33 CB         -1.2003  -16.6857  -45.9608 C.3       8 UNK        -0.1800 
     34 N           0.3138  -17.6972  -44.3237 N.am      8 UNK        -0.5000 
     35 C           1.0461  -18.5962  -43.6475 C.2       7 UNK         0.5000 
     36 O           0.9642  -19.8135  -43.8213 O.2       7 UNK        -0.5000 
     37 CA          2.0436  -18.0185  -42.6223 C.3       7 UNK         0.1400 
     38 CB          3.0173  -19.0714  -42.0544 C.3       7 UNK        -0.1800 
     39 N           2.7620  -16.8654  -43.1721 N.am      7 UNK        -0.5000 
     40 C           3.5631  -16.8384  -44.2489 C.2       6 UNK         0.5000 
     41 O           3.9562  -17.8427  -44.8430 O.2       6 UNK        -0.5000 
     42 CA          3.9620  -15.4495  -44.7834 C.3       6 UNK         0.1400 
     43 CB          3.2187  -15.1654  -46.0977 C.3       6 UNK        -0.1800 
     44 N           3.6602  -14.3763  -43.8333 N.am      6 UNK        -0.5000 
     45 C           4.5092  -13.9242  -42.9003 C.2       5 UNK         0.5000 
     46 O           5.6751  -14.3056  -42.7946 O.2       5 UNK        -0.5000 
     47 CA          3.9594  -12.8887  -41.8996 C.3       5 UNK         0.1400 
     48 CB          4.2925  -11.4604  -42.3529 C.3       5 UNK        -0.1800 
     49 N           2.5137  -13.0093  -41.6919 N.am      5 UNK        -0.5000 
     50 C           1.9389  -13.9977  -40.9903 C.2       4 UNK         0.5000 
     51 O           2.5728  -14.8931  -40.4327 O.2       4 UNK        -0.5000 
     52 CA          0.3996  -14.0239  -40.9298 C.3       4 UNK         0.1400 
     53 CB         -0.1012  -13.2976  -39.6726 C.3       4 UNK        -0.1800 
     54 N          -0.2527  -13.4476  -42.1066 N.am      4 UNK        -0.5000 
     55 C          -0.1389  -13.9073  -43.3591 C.2       3 UNK         0.5000 
     56 O           0.5576  -14.8766  -43.6666 O.2       3 UNK        -0.5000 
     57 CA         -0.9107  -13.1603  -44.4634 C.3       3 UNK         0.1400 
     58 CB         -1.9061  -12.1000  -43.9403 C.3       3 UNK        -0.1800 
     59 N          -0.0046  -12.5696  -45.4497 N.am      3 UNK        -0.5000 
     60 C           0.9461  -11.6473  -45.2368 C.2       2 UNK         0.5000 
     61 O           1.2404  -11.2229  -44.1180 O.2       2 UNK        -0.5000 
     62 CA          1.6972  -11.1033  -46.4742 C.3       2 UNK         0.1400 
     63 CB          3.2197  -11.1103  -46.2577 C.3       2 UNK        -0.1800 
     64 N           1.3852  -11.8165  -47.7195 N.am      2 UNK        -0.5000 
     65 C           0.2968  -11.6083  -48.4732 C.2       1 UNK         0.5000 
     66 O          -0.5812  -10.7912  -48.1841 O.2       1 UNK        -0.5000 
     67 C          -0.6679  -23.0482  -47.2199 C.2       11 UNK         0.5000 
     68 O          -0.5315  -24.0393  -47.9360 O.2       11 UNK        -0.5000 
     69 N          -1.8402  -22.4204  -47.0405 N.am      12 UNK        -0.5000 
     70 CA         -3.1107  -22.8374  -47.6324 C.3       12 UNK         0.1400 
     71 CB         -4.2091  -21.8162  -47.3095 C.3       12 UNK        -0.1800 
     72 C          -3.5493  -24.2360  -47.1788 C.2       12 UNK         0.5000 
     73 O          -3.9952  -25.0169  -48.0162 O.2       12 UNK        -0.5000 
     74 N          -3.3925  -24.5431  -45.8837 N.am      13 UNK        -0.5000 
     75 CA         -3.6909  -25.8579  -45.3127 C.3       13 UNK         0.1400 
     76 CB         -3.5731  -25.7994  -43.7824 C.3       13 UNK        -0.1800 
     77 C          -2.8049  -26.9772  -45.8926 C.2       13 UNK         0.5000 
     78 O          -3.3095  -28.0665  -46.1665 O.2       13 UNK        -0.5000 
     79 N          -1.5146  -26.6801  -46.0988 N.am      14 UNK        -0.5000 
     80 CA         -0.5480  -27.5791  -46.7284 C.3       14 UNK         0.1400 
     81 CB          0.8743  -27.0544  -46.4778 C.3       14 UNK        -0.1800 
     82 C          -0.8062  -27.7678  -48.2357 C.2       14 UNK         0.5000 
     83 O          -0.7425  -28.8959  -48.7259 O.2       14 UNK        -0.5000 
     84 N          -1.0931  -26.6656  -48.9414 N.am      15 UNK        -0.5000 
     85 CA         -1.3407  -26.6397  -50.3851 C.3       15 UNK         0.1400 
     86 CB         -1.1915  -25.1934  -50.8858 C.3       15 UNK        -0.1800 
     87 C          -2.7175  -27.1971  -50.7970 C.2       15 UNK         0.5000 
     88 O          -2.8759  -27.5982  -51.9503 O.2       15 UNK        -0.5000 
     89 N          -3.6794  -27.1846  -49.8622 N.am      16 UNK        -0.5000 
     90 CA         -5.1211  -27.3758  -50.0605 C.3       16 UNK         0.1400 
     91 CB         -5.4488  -28.7760  -50.6211 C.3       16 UNK        -0.1800 
     92 C          -5.7246  -26.2138  -50.8806 C.2       16 UNK         0.5000 
     93 O          -6.5006  -26.4394  -51.8117 O.2       16 UNK        -0.5000 
     94 N          -5.3308  -24.9887  -50.4987 N.am      17 UNK        -0.5000 
     95 CA         -5.6145  -23.6953  -51.1302 C.3       17 UNK         0.1400 
     96 CB         -7.1228  -23.3771  -51.0448 C.3       17 UNK        -0.1800 
     97 C          -5.0456  -23.5830  -52.5645 C.2       17 UNK         0.5000 
     98 O          -4.2167  -24.4044  -52.9645 O.2       17 UNK        -0.5000 
     99 N          -5.4886  -22.5519  -53.3007 N.am      18 UNK        -0.5000 
    100 CA        -5.1033  -22.2035  -54.6747 C.3       18 UNK         0.1400 
    101 CB        -5.4914  -23.3365  -55.6507 C.3       18 UNK        -0.1800 
    102 C         -3.6241  -21.7796  -54.8331 C.2       18 UNK         0.5000 
    103 O         -2.8624  -21.7623  -53.8644 O.2       18 UNK        -0.5000 
    104 N         -3.2592  -21.4139  -56.0729 N.am      19 UNK        -0.5000 
    105 CA        -1.9128  -21.0481  -56.5425 C.3       19 UNK         0.1400 
    106 CB        -0.9725  -22.2703  -56.4766 C.3       19 UNK        -0.1800 
    107 C         -1.3004  -19.7992  -55.8661 C.2       19 UNK         0.5000 
    108 O         -0.0820  -19.6175  -55.9060 O.2       19 UNK        -0.5000 
    109 N         -2.1501  -18.9522  -55.2774 N.am      20 UNK        -0.5000 
    110 CA        -1.8090  -17.7434  -54.5347 C.3       20 UNK         0.1400 
    111 CB        -1.1104  -18.1086  -53.2070 C.3       20 UNK        -0.1800 
    112 C         -3.1015  -16.9356  -54.3171 C.2       20 UNK         0.5000 
    113 O         -4.0946  -17.1728  -55.0111 O.2       20 UNK        -0.5000 
    114 N         -3.0918  -16.0181  -53.3395 N.am      21 UNK        -0.5000 
    115 CA        -4.2304  -15.1772  -52.9437 C.3       21 UNK         0.1400 
    116 CB        -3.7696  -14.2144  -51.8376 C.3       21 UNK        -0.1800 
    117 C         -5.4766  -15.9689  -52.4876 C.2       21 UNK         0.5000 
    118 O         -6.5971  -15.4791  -52.6301 O.2       21 UNK        -0.5000 
    119 N         -5.2518  -17.1847  -51.9782 N.am      22 UNK        -0.5000 
    120 CA        -6.2657  -18.1984  -51.6495 C.3       22 UNK         0.1400 
    121 C         -6.7055  -19.0780  -52.8609 C.2       22 UNK         0.5000 
    122 N         -6.2984  -18.7901  -54.0914 N.am      22 UNK        -0.7600 
    123 O         -7.4414  -20.0454  -52.6889 O.2       22 UNK        -0.5000 
    124 C124       -5.8410  -19.0422  -50.4158 C.3       23 UNK        -0.0398 
    125 S125       -4.1473  -19.7151  -50.5404 S.3       23 UNK        -0.2404 
    126 C126       -3.2572  -18.5612  -49.4387 C.3       23 UNK        -0.0205 
    127 H127       -1.1076  -10.3323  -53.4706 H         1 UNK         0.0600 
    128 H128       -1.5649   -9.1937  -52.1991 H         1 UNK         0.0600 
    129 H129       -2.3737  -10.7592  -52.3164 H         1 UNK         0.0600 
    130 H130       -1.6876  -12.1334  -50.7112 H         1 UNK         0.3000 
    131 H131        1.1328  -12.6033  -50.1859 H         1 UNK         0.0600 
    132 H132       -1.1911  -13.8657  -48.6421 H         1 UNK         0.0800 
    133 H133       -0.8238  -14.3672  -50.2631 H         1 UNK         0.0800 
    134 H134        0.8847  -15.7144  -51.0844 H         1 UNK         0.0800 
    135 H135        2.2240  -16.4015  -50.2103 H         1 UNK         0.0800 
    136 H136       -1.5387  -16.4919  -49.7635 H         1 UNK         0.1150 
    137 H137       -1.6303  -20.7612  -49.4977 H         1 UNK         0.1150 
    138 H138        2.0951  -18.7422  -50.1204 H         1 UNK         0.1150 
    139 H139        0.3042  -22.0586  -49.8830 H         1 UNK         0.0800 
    140 H140        1.5810  -21.3082  -50.7999 H         1 UNK         0.0800 
    141 H141        0.3289  -20.4997  -47.2359 H         1 UNK         0.0800 
    142 H142        1.7540  -20.7279  -46.2809 H         1 UNK         0.0800 
    143 H143        1.3170  -23.2881  -46.4523 H         1 UNK         0.0600 
    144 H144        0.2948  -21.4030  -44.6316 H         1 UNK         0.3000 
    145 H145       -1.3403  -23.6087  -42.3756 H         1 UNK         0.0600 
    146 H146        0.2118  -22.4208  -40.8304 H         1 UNK         0.0600 
    147 H147        1.0592  -23.6646  -41.7371 H         1 UNK         0.0600 
    148 H148        1.2488  -21.9753  -42.1853 H         1 UNK         0.0600 
    149 H149       -0.8774  -20.7494  -42.5796 H         1 UNK         0.3000 
    150 H150       -4.0053  -20.0090  -44.1520 H         1 UNK         0.0600 
    151 H151       -4.4817  -20.2445  -41.7102 H         1 UNK         0.0600 
    152 H152       -4.1954  -18.5680  -42.1484 H         1 UNK         0.0600 
    153 H153       -2.9393  -19.4912  -41.3234 H         1 UNK         0.0600 
    154 H154       -1.8447  -18.3585  -43.2423 H         1 UNK         0.3000 
    155 H155        0.0496  -18.3932  -46.2522 H         1 UNK         0.0600 
    156 H156       -1.7913  -16.8615  -46.8605 H         1 UNK         0.0600 
    157 H157       -0.4345  -15.9528  -46.2140 H         1 UNK         0.0600 
    158 H158       -1.8602  -16.2441  -45.2139 H         1 UNK         0.0600 
    159 H159        0.4503  -16.7125  -44.1091 H         1 UNK         0.3000 
    160 H160        1.4465  -17.6393  -41.7919 H         1 UNK         0.0600 
    161 H161        3.5960  -19.5588  -42.8394 H         1 UNK         0.0600 
    162 H162        2.4755  -19.8514  -41.5186 H         1 UNK         0.0600 
    163 H163        3.7173  -18.6209  -41.3508 H         1 UNK         0.0600 
    164 H164        2.4961  -15.9719  -42.7835 H         1 UNK         0.3000 
    165 H165        5.0329  -15.4737  -44.9957 H         1 UNK         0.0600 
    166 H166        2.1480  -15.0376  -45.9347 H         1 UNK         0.0600 
    167 H167        3.5977  -14.2679  -46.5827 H         1 UNK         0.0600 
    168 H168        3.3441  -15.9837  -46.8082 H         1 UNK         0.0600 
    169 H169        2.7086  -14.0341  -43.8310 H         1 UNK         0.3000 
    170 H170        4.4589  -13.0605  -40.9436 H         1 UNK         0.0600 
    171 H171        5.3677  -11.3324  -42.4844 H         1 UNK         0.0600 
    172 H172        3.8154  -11.2194  -43.3013 H         1 UNK         0.0600 
    173 H173        3.9649  -10.7261  -41.6169 H         1 UNK         0.0600 
    174 H174        1.9263  -12.3249  -42.1527 H         1 UNK         0.3000 
    175 H175        0.0947  -15.0704  -40.8637 H         1 UNK         0.0600 
    176 H176        0.1478  -12.2359  -39.6955 H         1 UNK         0.0600 
    177 H177       -1.1827  -13.3876  -39.5688 H         1 UNK         0.0600 
    178 H178        0.3462  -13.7206  -38.7721 H         1 UNK         0.0600 
    179 H179       -0.8242  -12.6304  -41.9488 H         1 UNK         0.3000 
    180 H180       -1.4921  -13.9142  -44.9931 H         1 UNK         0.0600 
    181 H181       -1.4086  -11.2865  -43.4111 H         1 UNK         0.0600 
    182 H182       -2.6364  -12.5441  -43.2625 H         1 UNK         0.0600 
    183 H183       -2.4662  -11.6576  -44.7643 H         1 UNK         0.0600 
    184 H184       -0.1317  -12.8829  -46.3998 H         1 UNK         0.3000 
    185 H185        1.3904  -10.0621  -46.5929 H         1 UNK         0.0600 
    186 H186        3.5008  -10.3988  -45.4812 H         1 UNK         0.0600 
    187 H187        3.5848  -12.0889  -45.9497 H         1 UNK         0.0600 
    188 H188        3.7530  -10.8187  -47.1626 H         1 UNK         0.0600 
    189 H189        2.0422  -12.5308  -48.0012 H         1 UNK         0.3000 
    190 H190       -1.8686  -21.5713  -46.4797 H         1 UNK         0.3000 
    191 H191       -2.9771  -22.8623  -48.7158 H         1 UNK         0.0600 
    192 H192       -3.9457  -20.8298  -47.6804 H         1 UNK         0.0600 
    193 H193       -4.3814  -21.7314  -46.2363 H         1 UNK         0.0600 
    194 H194       -5.1545  -22.0955  -47.7764 H         1 UNK         0.0600 
    195 H195       -3.0686  -23.8264  -45.2432 H         1 UNK         0.3000 
    196 H196       -4.7272  -26.0966  -45.5610 H         1 UNK         0.0600 
    197 H197       -3.8349  -26.7588  -43.3346 H         1 UNK         0.0600 
    198 H198       -4.2454  -25.0506  -43.3634 H         1 UNK         0.0600 
    199 H199       -2.5601  -25.5552  -43.4637 H         1 UNK         0.0600 
    200 H200       -1.1679  -25.7747  -45.7971 H         1 UNK         0.3000 
    201 H201       -0.6340  -28.5575  -46.2510 H         1 UNK         0.0600 
    202 H202        1.0873  -26.9907  -45.4105 H         1 UNK         0.0600 
    203 H203        1.0207  -26.0620  -46.9055 H         1 UNK         0.0600 
    204 H204        1.6192  -27.7168  -46.9203 H         1 UNK         0.0600 
    205 H205       -1.0622  -25.7629  -48.4727 H         1 UNK         0.3000 
    206 H206       -0.5787  -27.2492  -50.8753 H         1 UNK         0.0600 
    207 H207       -0.1965  -24.8013  -50.6745 H         1 UNK         0.0600 
    208 H208       -1.3437  -25.1326  -51.9644 H         1 UNK         0.0600 
    209 H209       -1.9199  -24.5304  -50.4170 H         1 UNK         0.0600 
    210 H210       -3.4320  -26.7836  -48.9648 H         1 UNK         0.3000 
    211 H211       -5.5697  -27.3121  -49.0680 H         1 UNK         0.0600 
    212 H212       -5.1170  -28.8943  -51.6526 H         1 UNK         0.0600 
    213 H213       -4.9805  -29.5587  -50.0245 H         1 UNK         0.0600 
    214 H214       -6.5244  -28.9549  -50.6061 H         1 UNK         0.0600 
    215 H215       -4.7129  -24.9489  -49.6917 H         1 UNK         0.3000 
    216 H216       -5.0834  -22.9520  -50.5336 H         1 UNK         0.0600 
    217 H217       -7.5049  -23.5513  -50.0388 H         1 UNK         0.0600 
    218 H218       -7.7052  -23.9894  -51.7340 H         1 UNK         0.0600 
    219 H219       -7.3239  -22.3327  -51.2809 H         1 UNK         0.0600 
    220 H220       -6.1440  -21.9085  -52.8740 H         1 UNK         0.3000 
    221 H221       -5.7032  -21.3327  -54.9347 H         1 UNK         0.0600 
    222 H222       -4.8463  -24.2084  -55.5389 H         1 UNK         0.0600 
    223 H223       -6.5200  -23.6597  -55.4897 H         1 UNK         0.0600 
    224 H224       -5.4194  -23.0115  -56.6888 H         1 UNK         0.0600 
    225 H225       -3.9669  -21.4266  -56.7941 H         1 UNK         0.3000 
    226 H226       -2.0265  -20.7834  -57.5946 H         1 UNK         0.0600 
    227 H227       -1.4097  -23.1321  -56.9809 H         1 UNK         0.0600 
    228 H228       -0.0195  -22.0618  -56.9641 H         1 UNK         0.0600 
    229 H229       -0.7567  -22.5580  -55.4471 H         1 UNK         0.0600 
    230 H230       -3.1437  -19.1298  -55.3435 H         1 UNK         0.3000 
    231 H231       -1.1377  -17.1354  -55.1437 H         1 UNK         0.0600 
    232 H232       -0.7803  -17.2190  -52.6717 H         1 UNK         0.0600 
    233 H233       -0.2204  -18.7159  -53.3693 H         1 UNK         0.0600 
    234 H234       -1.7739  -18.6723  -52.5501 H         1 UNK         0.0600 
    235 H235       -2.2384  -15.8853  -52.8179 H         1 UNK         0.3000 
    236 H236       -4.5222  -14.5866  -53.8145 H         1 UNK         0.0600 
    237 H237       -2.9469  -13.5866  -52.1801 H         1 UNK         0.0600 
    238 H238       -4.5800  -13.5495  -51.5357 H         1 UNK         0.0600 
    239 H239       -3.4379  -14.7525  -50.9486 H         1 UNK         0.0600 
    240 H240       -4.2973  -17.5069  -51.9206 H         1 UNK         0.3000 
    241 H241       -7.1761  -17.6712  -51.3595 H         1 UNK         0.0600 
    242 H242       -5.6588  -18.0246  -54.2776 H         1 UNK         0.3800 
    243 H243       -6.6497  -19.3348  -54.8607 H         1 UNK         0.3800 
    244 H244       -5.9112  -18.4251  -49.5193 H         1 UNK         0.0800 
    245 H245       -6.5323  -19.8684  -50.2417 H         1 UNK         0.0800 
    246 H246       -3.4978  -18.7727  -48.3974 H         1 UNK         0.0800 
    247 H247       -3.6127  -17.5479  -49.6304 H         1 UNK         0.0800 
@<TRIPOS>BOND
     1    1    2 1    
     2    1  127 1    
     3    1  128 1    
     4    1  129 1    
     5    2    3 2    
     6    2    4 am   BACKBONE|DICT|INTERRES
     7    4    5 1    
     8    4  130 1    
     9    5    6 1    
    10    5   65 1    
    11    5  131 1    
    12    6    7 1    
    13    6  132 1    
    14    6  133 1    
    15    7    8 1    
    16    8    9 1    
    17    8  134 1    
    18    8  135 1    
    19    9   10 ar   
    20    9   14 ar   
    21   10   11 ar   
    22   10  136 1    
    23   11   12 ar   
    24   11  126 1    
    25   12   13 ar   
    26   12  137 1    
    27   13   14 ar   
    28   13   15 1    
    29   14  138 1    
    30   15   16 1    
    31   15  139 1    
    32   15  140 1    
    33   16   17 1    
    34   17   18 1    
    35   17  141 1    
    36   17  142 1    
    37   18   19 1    
    38   18   67 1    
    39   18  143 1    
    40   19   20 am   BACKBONE|DICT|INTERRES
    41   19  144 1    
    42   20   21 2    
    43   20   22 1    
    44   22   23 1    
    45   22   24 1    
    46   22  145 1    
    47   23  146 1    
    48   23  147 1    
    49   23  148 1    
    50   24   25 am   BACKBONE|DICT|INTERRES
    51   24  149 1    
    52   25   26 2    
    53   25   27 1    
    54   27   28 1    
    55   27   29 1    
    56   27  150 1    
    57   28  151 1    
    58   28  152 1    
    59   28  153 1    
    60   29   30 am   BACKBONE|DICT|INTERRES
    61   29  154 1    
    62   30   31 2    
    63   30   32 1    
    64   32   33 1    
    65   32   34 1    
    66   32  155 1    
    67   33  156 1    
    68   33  157 1    
    69   33  158 1    
    70   34   35 am   BACKBONE|DICT|INTERRES
    71   34  159 1    
    72   35   36 2    
    73   35   37 1    
    74   37   38 1    
    75   37   39 1    
    76   37  160 1    
    77   38  161 1    
    78   38  162 1    
    79   38  163 1    
    80   39   40 am   BACKBONE|DICT|INTERRES
    81   39  164 1    
    82   40   41 2    
    83   40   42 1    
    84   42   43 1    
    85   42   44 1    
    86   42  165 1    
    87   43  166 1    
    88   43  167 1    
    89   43  168 1    
    90   44   45 am   BACKBONE|DICT|INTERRES
    91   44  169 1    
    92   45   46 2    
    93   45   47 1    
    94   47   48 1    
    95   47   49 1    
    96   47  170 1    
    97   48  171 1    
    98   48  172 1    
    99   48  173 1    
   100   49   50 am   BACKBONE|DICT|INTERRES
   101   49  174 1    
   102   50   51 2    
   103   50   52 1    
   104   52   53 1    
   105   52   54 1    
   106   52  175 1    
   107   53  176 1    
   108   53  177 1    
   109   53  178 1    
   110   54   55 am   BACKBONE|DICT|INTERRES
   111   54  179 1    
   112   55   56 2    
   113   55   57 1    
   114   57   58 1    
   115   57   59 1    
   116   57  180 1    
   117   58  181 1    
   118   58  182 1    
   119   58  183 1    
   120   59   60 am   BACKBONE|DICT|INTERRES
   121   59  184 1    
   122   60   61 2    
   123   60   62 1    
   124   62   63 1    
   125   62   64 1    
   126   62  185 1    
   127   63  186 1    
   128   63  187 1    
   129   63  188 1    
   130   64   65 am   BACKBONE|DICT|INTERRES
   131   64  189 1    
   132   65   66 2    
   133   67   68 2    
   134   67   69 am   BACKBONE|DICT|INTERRES
   135   69   70 1    
   136   69  190 1    
   137   70   71 1    
   138   70   72 1    
   139   70  191 1    
   140   71  192 1    
   141   71  193 1    
   142   71  194 1    
   143   72   73 2    
   144   72   74 am   BACKBONE|DICT|INTERRES
   145   74   75 1    
   146   74  195 1    
   147   75   76 1    
   148   75   77 1    
   149   75  196 1    
   150   76  197 1    
   151   76  198 1    
   152   76  199 1    
   153   77   78 2    
   154   77   79 am   BACKBONE|DICT|INTERRES
   155   79   80 1    
   156   79  200 1    
   157   80   81 1    
   158   80   82 1    
   159   80  201 1    
   160   81  202 1    
   161   81  203 1    
   162   81  204 1    
   163   82   83 2    
   164   82   84 am   BACKBONE|DICT|INTERRES
   165   84   85 1    
   166   84  205 1    
   167   85   86 1    
   168   85   87 1    
   169   85  206 1    
   170   86  207 1    
   171   86  208 1    
   172   86  209 1    
   173   87   88 2    
   174   87   89 am   BACKBONE|DICT|INTERRES
   175   89   90 1    
   176   89  210 1    
   177   90   91 1    
   178   90   92 1    
   179   90  211 1    
   180   91  212 1    
   181   91  213 1    
   182   91  214 1    
   183   92   93 2    
   184   92   94 am   BACKBONE|DICT|INTERRES
   185   94   95 1    
   186   94  215 1    
   187   95   96 1    
   188   95   97 1    
   189   95  216 1    
   190   96  217 1    
   191   96  218 1    
   192   96  219 1    
   193   97   98 2    
   194   97   99 am   BACKBONE|DICT|INTERRES
   195   99  100 1    
   196   99  220 1    
   197  100  101 1    
   198  100  102 1    
   199  100  221 1    
   200  101  222 1    
   201  101  223 1    
   202  101  224 1    
   203  102  103 2    
   204  102  104 am   BACKBONE|DICT|INTERRES
   205  104  105 1    
   206  104  225 1    
   207  105  106 1    
   208  105  107 1    
   209  105  226 1    
   210  106  227 1    
   211  106  228 1    
   212  106  229 1    
   213  107  108 2    
   214  107  109 am   BACKBONE|DICT|INTERRES
   215  109  110 1    
   216  109  230 1    
   217  110  111 1    
   218  110  112 1    
   219  110  231 1    
   220  111  232 1    
   221  111  233 1    
   222  111  234 1    
   223  112  113 2    
   224  112  114 am   BACKBONE|DICT|INTERRES
   225  114  115 1    
   226  114  235 1    
   227  115  116 1    
   228  115  117 1    
   229  115  236 1    
   230  116  237 1    
   231  116  238 1    
   232  116  239 1    
   233  117  118 2    
   234  117  119 am   BACKBONE|DICT|INTERRES
   235  119  120 1    
   236  119  240 1    
   237  120  121 1    
   238  120  124 1    
   239  120  241 1    
   240  121  122 am   BACKBONE|DICT|INTERRES
   241  121  123 2    
   242  122  242 1    
   243  122  243 1    
   244  124  125 1    
   245  124  244 1    
   246  124  245 1    
   247  125  126 1    
   248  126  246 1    
   249  126  247 1    
@<TRIPOS>SUBSTRUCTURE
     1 UNK         1 GROUP             0       ****    0 ROOT    
