@<TRIPOS>MOLECULE
3R540
247   249    1
SMALL
USER_CHARGES


@<TRIPOS>ATOM
      1 CA          1.7204   -9.3267  -49.6286 C.3       0 UNK        -0.1800 
      2 C           1.9005  -10.3747  -48.5401 C.2       0 UNK         0.5000 
      3 O           2.6834  -10.1670  -47.6125 O.2       0 UNK        -0.5000 
      4 N           1.1702  -11.4944  -48.6416 N.am      1 UNK        -0.5000 
      5 CA          1.2302  -12.6335  -47.7139 C.3       1 UNK         0.1400 
      6 C6          0.4031  -13.8430  -48.2099 C.3       23 UNK        -0.0398 
      7 S7          0.9176  -14.4871  -49.8342 S.3       23 UNK        -0.2404 
      8 C8         -0.6394  -15.2622  -50.3712 C.3       23 UNK        -0.0205 
      9 C9         -0.3876  -16.4289  -51.3119 C.ar      23 UNK        -0.0193 
     10 C10        -0.2152  -16.2089  -52.6816 C.ar      23 UNK        -0.1150 
     11 C11         0.0024  -17.2815  -53.5517 C.ar      23 UNK        -0.0193 
     12 C12         0.0550  -18.5794  -53.0334 C.ar      23 UNK        -0.1150 
     13 C13        -0.1467  -18.8178  -51.6724 C.ar      23 UNK        -0.0193 
     14 C14        -0.3568  -17.7348  -50.8135 C.ar      23 UNK        -0.1150 
     15 C15        -0.2320  -20.2495  -51.1633 C.3       23 UNK        -0.0205 
     16 S16         1.1575  -20.7304  -50.0889 S.3       23 UNK        -0.2404 
     17 C17         0.4476  -20.5139  -48.4212 C.3       23 UNK        -0.0398 
     18 CA         -0.2374  -21.7917  -47.8662 C.3       11 UNK         0.1400 
     19 N          -0.2662  -21.7919  -46.4016 N.am      11 UNK        -0.5000 
     20 C          -0.6867  -22.8124  -45.6432 C.2       10 UNK         0.5000 
     21 O          -1.0490  -23.8957  -46.0987 O.2       10 UNK        -0.5000 
     22 CA         -0.7787  -22.5617  -44.1265 C.3       10 UNK         0.1400 
     23 CB          0.6008  -22.6711  -43.4617 C.3       10 UNK        -0.1800 
     24 N          -1.3883  -21.2690  -43.8094 N.am      10 UNK        -0.5000 
     25 C          -2.6475  -20.9354  -44.1297 C.2       9 UNK         0.5000 
     26 O          -3.4365  -21.7017  -44.6832 O.2       9 UNK        -0.5000 
     27 CA         -3.0850  -19.4911  -43.8308 C.3       9 UNK         0.1400 
     28 CB         -3.4624  -19.3291  -42.3512 C.3       9 UNK        -0.1800 
     29 N          -2.0650  -18.5061  -44.1890 N.am      9 UNK        -0.5000 
     30 C          -1.6042  -18.2983  -45.4313 C.2       8 UNK         0.5000 
     31 O          -2.0117  -18.8955  -46.4259 O.2       8 UNK        -0.5000 
     32 CA         -0.4495  -17.2938  -45.5769 C.3       8 UNK         0.1400 
     33 CB         -0.9716  -15.8549  -45.4499 C.3       8 UNK        -0.1800 
     34 N           0.6097  -17.5318  -44.5948 N.am      8 UNK        -0.5000 
     35 C           1.3121  -18.6696  -44.4858 C.2       7 UNK         0.5000 
     36 O           1.1899  -19.6249  -45.2505 O.2       7 UNK        -0.5000 
     37 CA          2.2696  -18.7848  -43.2890 C.3       7 UNK         0.1400 
     38 CB          3.6435  -18.1831  -43.6207 C.3       7 UNK        -0.1800 
     39 N           1.7154  -18.1435  -42.0974 N.am      7 UNK        -0.5000 
     40 C           0.7028  -18.6439  -41.3756 C.2       6 UNK         0.5000 
     41 O           0.1685  -19.7287  -41.6102 O.2       6 UNK        -0.5000 
     42 CA          0.1730  -17.7632  -40.2272 C.3       6 UNK         0.1400 
     43 CB          1.0397  -17.9313  -38.9704 C.3       6 UNK        -0.1800 
     44 N           0.1094  -16.3446  -40.5882 N.am      6 UNK        -0.5000 
     45 C          -0.7296  -15.8406  -41.5039 C.2       5 UNK         0.5000 
     46 O          -1.5740  -16.5163  -42.0915 O.2       5 UNK        -0.5000 
     47 CA         -0.5777  -14.3464  -41.8589 C.3       5 UNK         0.1400 
     48 CB         -1.4945  -13.4872  -40.9766 C.3       5 UNK        -0.1800 
     49 N           0.7903  -13.8199  -41.7862 N.am      5 UNK        -0.5000 
     50 C           1.8539  -14.3188  -42.4315 C.2       4 UNK         0.5000 
     51 O           1.8216  -15.3550  -43.0952 O.2       4 UNK        -0.5000 
     52 CA          3.1445  -13.4916  -42.3456 C.3       4 UNK         0.1400 
     53 CB          4.3531  -14.1861  -42.9994 C.3       4 UNK        -0.1800 
     54 N           2.8985  -12.2188  -43.0114 N.am      4 UNK        -0.5000 
     55 C           3.2723  -11.0132  -42.5650 C.2       3 UNK         0.5000 
     56 O           3.9359  -10.8422  -41.5415 O.2       3 UNK        -0.5000 
     57 CA          2.8246   -9.7835  -43.3864 C.3       3 UNK         0.1400 
     58 CB          3.9794   -9.2750  -44.2628 C.3       3 UNK        -0.1800 
     59 N           1.6641  -10.0395  -44.2423 N.am      3 UNK        -0.5000 
     60 C           0.4304  -10.3285  -43.8031 C.2       2 UNK         0.5000 
     61 O           0.1077  -10.2983  -42.6152 O.2       2 UNK        -0.5000 
     62 CA         -0.6117  -10.7628  -44.8557 C.3       2 UNK         0.1400 
     63 CB         -1.5867   -9.6131  -45.1509 C.3       2 UNK        -0.1800 
     64 N          -0.0514  -11.2438  -46.1246 N.am      2 UNK        -0.5000 
     65 C           0.7942  -12.2749  -46.2759 C.2       1 UNK         0.5000 
     66 O           1.2437  -12.9241  -45.3334 O.2       1 UNK        -0.5000 
     67 C          -1.6500  -21.9773  -48.4642 C.2       11 UNK         0.5000 
     68 O          -1.8254  -22.7640  -49.3929 O.2       11 UNK        -0.5000 
     69 N          -2.6262  -21.2295  -47.9341 N.am      12 UNK        -0.5000 
     70 CA         -3.9935  -21.1956  -48.4359 C.3       12 UNK         0.1400 
     71 CB         -4.7164  -19.9605  -47.8793 C.3       12 UNK        -0.1800 
     72 C          -4.8008  -22.4682  -48.1384 C.2       12 UNK         0.5000 
     73 O          -5.4905  -22.9476  -49.0395 O.2       12 UNK        -0.5000 
     74 N          -4.7525  -22.9484  -46.8891 N.am      13 UNK        -0.5000 
     75 CA         -5.6570  -23.9845  -46.3910 C.3       13 UNK         0.1400 
     76 CB         -6.2712  -23.5169  -45.0611 C.3       13 UNK        -0.1800 
     77 C          -4.9806  -25.3507  -46.2090 C.2       13 UNK         0.5000 
     78 O          -5.5892  -26.3634  -46.5581 O.2       13 UNK        -0.5000 
     79 N          -3.7726  -25.3776  -45.6280 N.am      14 UNK        -0.5000 
     80 CA         -3.0939  -26.6248  -45.2631 C.3       14 UNK         0.1400 
     81 CB         -2.1268  -26.3863  -44.0914 C.3       14 UNK        -0.1800 
     82 C          -2.3804  -27.2680  -46.4629 C.2       14 UNK         0.5000 
     83 O          -2.5339  -28.4694  -46.6895 O.2       14 UNK        -0.5000 
     84 N          -1.6214  -26.4609  -47.2126 N.am      15 UNK        -0.5000 
     85 CA         -0.9444  -26.8719  -48.4391 C.3       15 UNK         0.1400 
     86 CB          0.1739  -25.8688  -48.7597 C.3       15 UNK        -0.1800 
     87 C          -1.9351  -26.9692  -49.6122 C.2       15 UNK         0.5000 
     88 O          -2.8195  -26.1212  -49.7433 O.2       15 UNK        -0.5000 
     89 N          -1.7508  -27.9886  -50.4599 N.am      16 UNK        -0.5000 
     90 CA         -2.5136  -28.1681  -51.6976 C.3       16 UNK         0.1400 
     91 CB         -2.5037  -29.6549  -52.0844 C.3       16 UNK        -0.1800 
     92 C          -1.9565  -27.3096  -52.8489 C.2       16 UNK         0.5000 
     93 O          -2.7171  -26.8988  -53.7267 O.2       16 UNK        -0.5000 
     94 N          -0.6394  -27.0602  -52.8286 N.am      17 UNK        -0.5000 
     95 CA          0.0823  -26.2543  -53.8095 C.3       17 UNK         0.1400 
     96 CB          1.5940  -26.4410  -53.6001 C.3       17 UNK        -0.1800 
     97 C          -0.3197  -24.7733  -53.7054 C.2       17 UNK         0.5000 
     98 O           0.0043  -24.1273  -52.7078 O.2       17 UNK        -0.5000 
     99 N          -1.0301  -24.2842  -54.7319 N.am      18 UNK        -0.5000 
    100 CA        -1.5730  -22.9267  -54.8594 C.3       18 UNK         0.1400 
    101 CB        -0.4377  -21.8998  -55.0295 C.3       18 UNK        -0.1800 
    102 C         -2.5732  -22.5586  -53.7408 C.2       18 UNK         0.5000 
    103 O         -2.6021  -21.4121  -53.2827 O.2       18 UNK        -0.5000 
    104 N         -3.3873  -23.5495  -53.3431 N.am      19 UNK        -0.5000 
    105 CA        -4.4474  -23.4469  -52.3384 C.3       19 UNK         0.1400 
    106 CB        -5.1684  -24.7987  -52.2315 C.3       19 UNK        -0.1800 
    107 C         -5.4586  -22.3221  -52.6351 C.2       19 UNK         0.5000 
    108 O         -5.6695  -21.9657  -53.7972 O.2       19 UNK        -0.5000 
    109 N         -6.0497  -21.7810  -51.5626 N.am      20 UNK        -0.5000 
    110 CA        -6.8798  -20.5712  -51.5341 C.3       20 UNK         0.1400 
    111 CB        -8.1851  -20.7609  -52.3352 C.3       20 UNK        -0.1800 
    112 C         -6.0936  -19.3024  -51.9379 C.2       20 UNK         0.5000 
    113 O         -6.6651  -18.3831  -52.5253 O.2       20 UNK        -0.5000 
    114 N         -4.7924  -19.2842  -51.6067 N.am      21 UNK        -0.5000 
    115 CA        -3.8310  -18.1916  -51.7890 C.3       21 UNK         0.1400 
    116 CB        -4.1360  -17.0398  -50.8088 C.3       21 UNK        -0.1800 
    117 C         -3.7223  -17.7220  -53.2531 C.2       21 UNK         0.5000 
    118 O         -3.9352  -16.5430  -53.5422 O.2       21 UNK        -0.5000 
    119 N         -3.4516  -18.6762  -54.1532 N.am      22 UNK        -0.5000 
    120 CA        -3.4610  -18.5129  -55.6193 C.3       22 UNK         0.1400 
    121 C         -4.8697  -18.2465  -56.2435 C.2       22 UNK         0.5000 
    122 N         -5.9652  -18.2422  -55.4928 N.am      22 UNK        -0.7600 
    123 O         -4.9825  -18.0795  -57.4550 O.2       22 UNK        -0.5000 
    124 C124       -2.3881  -17.5066  -56.1442 C.3       23 UNK        -0.0398 
    125 S125       -0.6952  -18.1859  -56.1224 S.3       23 UNK        -0.2404 
    126 C126        0.2122  -17.0273  -55.0407 C.3       23 UNK        -0.0205 
    127 H127        2.6702   -9.1400  -50.1295 H         1 UNK         0.0600 
    128 H128        1.3733   -8.3897  -49.1931 H         1 UNK         0.0600 
    129 H129        0.9959   -9.6423  -50.3797 H         1 UNK         0.0600 
    130 H130        0.5575  -11.6135  -49.4360 H         1 UNK         0.3000 
    131 H131        2.2756  -12.9440  -47.6549 H         1 UNK         0.0600 
    132 H132        0.5013  -14.6744  -47.5122 H         1 UNK         0.0800 
    133 H133       -0.6574  -13.5859  -48.2433 H         1 UNK         0.0800 
    134 H134       -1.2669  -14.5142  -50.8582 H         1 UNK         0.0800 
    135 H135       -1.1993  -15.6124  -49.5023 H         1 UNK         0.0800 
    136 H136       -0.2472  -15.1994  -53.0670 H         1 UNK         0.1150 
    137 H137        0.2230  -19.4118  -53.6999 H         1 UNK         0.1150 
    138 H138       -0.5222  -17.9056  -49.7605 H         1 UNK         0.1150 
    139 H139       -1.1860  -20.3796  -50.6561 H         1 UNK         0.0800 
    140 H140       -0.2547  -20.9479  -52.0000 H         1 UNK         0.0800 
    141 H141       -0.2214  -19.6540  -48.3915 H         1 UNK         0.0800 
    142 H142        1.2897  -20.2465  -47.7827 H         1 UNK         0.0800 
    143 H143        0.3620  -22.6555  -48.1605 H         1 UNK         0.0600 
    144 H144        0.0583  -20.9444  -45.9420 H         1 UNK         0.3000 
    145 H145       -1.4181  -23.3374  -43.7006 H         1 UNK         0.0600 
    146 H146        0.5299  -22.5390  -42.3819 H         1 UNK         0.0600 
    147 H147        1.0417  -23.6523  -43.6419 H         1 UNK         0.0600 
    148 H148        1.2961  -21.9249  -43.8449 H         1 UNK         0.0600 
    149 H149       -0.8097  -20.5945  -43.3223 H         1 UNK         0.3000 
    150 H150       -3.9721  -19.2833  -44.4324 H         1 UNK         0.0600 
    151 H151       -4.2329  -20.0453  -42.0633 H         1 UNK         0.0600 
    152 H152       -3.8544  -18.3314  -42.1527 H         1 UNK         0.0600 
    153 H153       -2.6047  -19.4861  -41.6964 H         1 UNK         0.0600 
    154 H154       -1.7034  -17.9323  -43.4325 H         1 UNK         0.3000 
    155 H155       -0.0085  -17.4154  -46.5685 H         1 UNK         0.0600 
    156 H156       -1.6325  -15.7314  -44.5933 H         1 UNK         0.0600 
    157 H157       -1.5417  -15.5721  -46.3353 H         1 UNK         0.0600 
    158 H158       -0.1544  -15.1450  -45.3365 H         1 UNK         0.0600 
    159 H159        0.8308  -16.7724  -43.9571 H         1 UNK         0.3000 
    160 H160        2.4119  -19.8454  -43.0724 H         1 UNK         0.0600 
    161 H161        3.5730  -17.1317  -43.8985 H         1 UNK         0.0600 
    162 H162        4.1029  -18.7094  -44.4583 H         1 UNK         0.0600 
    163 H163        4.3249  -18.2623  -42.7737 H         1 UNK         0.0600 
    164 H164        2.0325  -17.2025  -41.9075 H         1 UNK         0.3000 
    165 H165       -0.8386  -18.1003  -39.9906 H         1 UNK         0.0600 
    166 H166        0.6275  -17.3726  -38.1300 H         1 UNK         0.0600 
    167 H167        1.0907  -18.9786  -38.6695 H         1 UNK         0.0600 
    168 H168        2.0614  -17.5866  -39.1347 H         1 UNK         0.0600 
    169 H169        0.7743  -15.7254  -40.1490 H         1 UNK         0.3000 
    170 H170       -0.9036  -14.2268  -42.8932 H         1 UNK         0.0600 
    171 H171       -2.5274  -13.8341  -41.0307 H         1 UNK         0.0600 
    172 H172       -1.1906  -13.5201  -39.9297 H         1 UNK         0.0600 
    173 H173       -1.4865  -12.4450  -41.2969 H         1 UNK         0.0600 
    174 H174        0.9036  -12.9487  -41.2877 H         1 UNK         0.3000 
    175 H175        3.3607  -13.3379  -41.2865 H         1 UNK         0.0600 
    176 H176        4.1849  -14.3693  -44.0616 H         1 UNK         0.0600 
    177 H177        5.2539  -13.5800  -42.9033 H         1 UNK         0.0600 
    178 H178        4.5549  -15.1473  -42.5253 H         1 UNK         0.0600 
    179 H179        2.3263  -12.2822  -43.8502 H         1 UNK         0.3000 
    180 H180        2.5563   -8.9962  -42.6791 H         1 UNK         0.0600 
    181 H181        4.2752  -10.0169  -45.0060 H         1 UNK         0.0600 
    182 H182        4.8582   -9.0448  -43.6591 H         1 UNK         0.0600 
    183 H183        3.7014   -8.3635  -44.7923 H         1 UNK         0.0600 
    184 H184        1.8423  -10.0937  -45.2365 H         1 UNK         0.3000 
    185 H185       -1.1777  -11.5879  -44.4184 H         1 UNK         0.0600 
    186 H186       -2.0504   -9.2467  -44.2340 H         1 UNK         0.0600 
    187 H187       -1.0809   -8.7698  -45.6229 H         1 UNK         0.0600 
    188 H188       -2.3911   -9.9364  -45.8119 H         1 UNK         0.0600 
    189 H189       -0.3477  -10.7548  -46.9567 H         1 UNK         0.3000 
    190 H190       -2.3950  -20.5611  -47.2028 H         1 UNK         0.3000 
    191 H191       -3.9392  -21.0877  -49.5202 H         1 UNK         0.0600 
    192 H192       -4.7933  -19.9962  -46.7920 H         1 UNK         0.0600 
    193 H193       -5.7278  -19.8819  -48.2796 H         1 UNK         0.0600 
    194 H194       -4.1895  -19.0444  -48.1426 H         1 UNK         0.0600 
    195 H195       -4.1698  -22.4815  -46.1972 H         1 UNK         0.3000 
    196 H196       -6.4850  -24.1275  -47.0888 H         1 UNK         0.0600 
    197 H197       -6.9905  -24.2461  -44.6859 H         1 UNK         0.0600 
    198 H198       -6.8002  -22.5716  -45.1828 H         1 UNK         0.0600 
    199 H199       -5.5134  -23.3788  -44.2894 H         1 UNK         0.0600 
    200 H200       -3.2956  -24.5112  -45.4220 H         1 UNK         0.3000 
    201 H201       -3.8453  -27.3349  -44.9099 H         1 UNK         0.0600 
    202 H202       -2.6319  -25.9089  -43.2517 H         1 UNK         0.0600 
    203 H203       -1.2790  -25.7639  -44.3727 H         1 UNK         0.0600 
    204 H204       -1.7221  -27.3325  -43.7307 H         1 UNK         0.0600 
    205 H205       -1.5409  -25.4813  -46.9500 H         1 UNK         0.3000 
    206 H206       -0.4877  -27.8499  -48.2726 H         1 UNK         0.0600 
    207 H207       -0.2282  -24.8771  -48.9652 H         1 UNK         0.0600 
    208 H208        0.8772  -25.7799  -47.9315 H         1 UNK         0.0600 
    209 H209        0.7392  -26.1792  -49.6392 H         1 UNK         0.0600 
    210 H210       -1.0233  -28.6637  -50.2727 H         1 UNK         0.3000 
    211 H211       -3.5511  -27.8718  -51.5289 H         1 UNK         0.0600 
    212 H212       -1.4919  -30.0193  -52.2667 H         1 UNK         0.0600 
    213 H213       -3.0824  -29.8248  -52.9934 H         1 UNK         0.0600 
    214 H214       -2.9459  -30.2689  -51.2996 H         1 UNK         0.0600 
    215 H215       -0.0993  -27.4068  -52.0512 H         1 UNK         0.3000 
    216 H216       -0.1665  -26.6243  -54.8065 H         1 UNK         0.0600 
    217 H217        2.1621  -25.8490  -54.3188 H         1 UNK         0.0600 
    218 H218        1.8853  -27.4828  -53.7352 H         1 UNK         0.0600 
    219 H219        1.9059  -26.1323  -52.6014 H         1 UNK         0.0600 
    220 H220       -1.2676  -24.9153  -55.4850 H         1 UNK         0.3000 
    221 H221       -2.1538  -22.9177  -55.7828 H         1 UNK         0.0600 
    222 H222        0.1968  -21.8414  -54.1458 H         1 UNK         0.0600 
    223 H223        0.1959  -22.1490  -55.8804 H         1 UNK         0.0600 
    224 H224       -0.8451  -20.9069  -55.2110 H         1 UNK         0.0600 
    225 H225       -3.2723  -24.4571  -53.7726 H         1 UNK         0.3000 
    226 H226       -3.9618  -23.2338  -51.3837 H         1 UNK         0.0600 
    227 H227       -5.6272  -25.0870  -53.1780 H         1 UNK         0.0600 
    228 H228       -4.4789  -25.5883  -51.9359 H         1 UNK         0.0600 
    229 H229       -5.9563  -24.7643  -51.4778 H         1 UNK         0.0600 
    230 H230       -5.8696  -22.2089  -50.6549 H         1 UNK         0.3000 
    231 H231       -7.1600  -20.4276  -50.4897 H         1 UNK         0.0600 
    232 H232       -8.7028  -21.6722  -52.0361 H         1 UNK         0.0600 
    233 H233       -8.0022  -20.8145  -53.4086 H         1 UNK         0.0600 
    234 H234       -8.8697  -19.9292  -52.1652 H         1 UNK         0.0600 
    235 H235       -4.4095  -20.1301  -51.2144 H         1 UNK         0.3000 
    236 H236       -2.8603  -18.6036  -51.5248 H         1 UNK         0.0600 
    237 H237       -5.1199  -16.6055  -50.9881 H         1 UNK         0.0600 
    238 H238       -4.1023  -17.3792  -49.7749 H         1 UNK         0.0600 
    239 H239       -3.4039  -16.2384  -50.9078 H         1 UNK         0.0600 
    240 H240       -3.2841  -19.6223  -53.8214 H         1 UNK         0.3000 
    241 H241       -3.1972  -19.4980  -56.0056 H         1 UNK         0.0600 
    242 H242       -5.9206  -18.3464  -54.4868 H         1 UNK         0.3800 
    243 H243       -6.8575  -18.0839  -55.9326 H         1 UNK         0.3800 
    244 H244       -2.5775  -17.2404  -57.1850 H         1 UNK         0.0800 
    245 H245       -2.4228  -16.5642  -55.5986 H         1 UNK         0.0800 
    246 H246        1.2777  -17.1259  -55.2512 H         1 UNK         0.0800 
    247 H247       -0.0576  -16.0039  -55.3056 H         1 UNK         0.0800 
@<TRIPOS>BOND
     1    1    2 1    
     2    1  127 1    
     3    1  128 1    
     4    1  129 1    
     5    2    3 2    
     6    2    4 am   BACKBONE|DICT|INTERRES
     7    4    5 1    
     8    4  130 1    
     9    5    6 1    
    10    5   65 1    
    11    5  131 1    
    12    6    7 1    
    13    6  132 1    
    14    6  133 1    
    15    7    8 1    
    16    8    9 1    
    17    8  134 1    
    18    8  135 1    
    19    9   10 ar   
    20    9   14 ar   
    21   10   11 ar   
    22   10  136 1    
    23   11   12 ar   
    24   11  126 1    
    25   12   13 ar   
    26   12  137 1    
    27   13   14 ar   
    28   13   15 1    
    29   14  138 1    
    30   15   16 1    
    31   15  139 1    
    32   15  140 1    
    33   16   17 1    
    34   17   18 1    
    35   17  141 1    
    36   17  142 1    
    37   18   19 1    
    38   18   67 1    
    39   18  143 1    
    40   19   20 am   BACKBONE|DICT|INTERRES
    41   19  144 1    
    42   20   21 2    
    43   20   22 1    
    44   22   23 1    
    45   22   24 1    
    46   22  145 1    
    47   23  146 1    
    48   23  147 1    
    49   23  148 1    
    50   24   25 am   BACKBONE|DICT|INTERRES
    51   24  149 1    
    52   25   26 2    
    53   25   27 1    
    54   27   28 1    
    55   27   29 1    
    56   27  150 1    
    57   28  151 1    
    58   28  152 1    
    59   28  153 1    
    60   29   30 am   BACKBONE|DICT|INTERRES
    61   29  154 1    
    62   30   31 2    
    63   30   32 1    
    64   32   33 1    
    65   32   34 1    
    66   32  155 1    
    67   33  156 1    
    68   33  157 1    
    69   33  158 1    
    70   34   35 am   BACKBONE|DICT|INTERRES
    71   34  159 1    
    72   35   36 2    
    73   35   37 1    
    74   37   38 1    
    75   37   39 1    
    76   37  160 1    
    77   38  161 1    
    78   38  162 1    
    79   38  163 1    
    80   39   40 am   BACKBONE|DICT|INTERRES
    81   39  164 1    
    82   40   41 2    
    83   40   42 1    
    84   42   43 1    
    85   42   44 1    
    86   42  165 1    
    87   43  166 1    
    88   43  167 1    
    89   43  168 1    
    90   44   45 am   BACKBONE|DICT|INTERRES
    91   44  169 1    
    92   45   46 2    
    93   45   47 1    
    94   47   48 1    
    95   47   49 1    
    96   47  170 1    
    97   48  171 1    
    98   48  172 1    
    99   48  173 1    
   100   49   50 am   BACKBONE|DICT|INTERRES
   101   49  174 1    
   102   50   51 2    
   103   50   52 1    
   104   52   53 1    
   105   52   54 1    
   106   52  175 1    
   107   53  176 1    
   108   53  177 1    
   109   53  178 1    
   110   54   55 am   BACKBONE|DICT|INTERRES
   111   54  179 1    
   112   55   56 2    
   113   55   57 1    
   114   57   58 1    
   115   57   59 1    
   116   57  180 1    
   117   58  181 1    
   118   58  182 1    
   119   58  183 1    
   120   59   60 am   BACKBONE|DICT|INTERRES
   121   59  184 1    
   122   60   61 2    
   123   60   62 1    
   124   62   63 1    
   125   62   64 1    
   126   62  185 1    
   127   63  186 1    
   128   63  187 1    
   129   63  188 1    
   130   64   65 am   BACKBONE|DICT|INTERRES
   131   64  189 1    
   132   65   66 2    
   133   67   68 2    
   134   67   69 am   BACKBONE|DICT|INTERRES
   135   69   70 1    
   136   69  190 1    
   137   70   71 1    
   138   70   72 1    
   139   70  191 1    
   140   71  192 1    
   141   71  193 1    
   142   71  194 1    
   143   72   73 2    
   144   72   74 am   BACKBONE|DICT|INTERRES
   145   74   75 1    
   146   74  195 1    
   147   75   76 1    
   148   75   77 1    
   149   75  196 1    
   150   76  197 1    
   151   76  198 1    
   152   76  199 1    
   153   77   78 2    
   154   77   79 am   BACKBONE|DICT|INTERRES
   155   79   80 1    
   156   79  200 1    
   157   80   81 1    
   158   80   82 1    
   159   80  201 1    
   160   81  202 1    
   161   81  203 1    
   162   81  204 1    
   163   82   83 2    
   164   82   84 am   BACKBONE|DICT|INTERRES
   165   84   85 1    
   166   84  205 1    
   167   85   86 1    
   168   85   87 1    
   169   85  206 1    
   170   86  207 1    
   171   86  208 1    
   172   86  209 1    
   173   87   88 2    
   174   87   89 am   BACKBONE|DICT|INTERRES
   175   89   90 1    
   176   89  210 1    
   177   90   91 1    
   178   90   92 1    
   179   90  211 1    
   180   91  212 1    
   181   91  213 1    
   182   91  214 1    
   183   92   93 2    
   184   92   94 am   BACKBONE|DICT|INTERRES
   185   94   95 1    
   186   94  215 1    
   187   95   96 1    
   188   95   97 1    
   189   95  216 1    
   190   96  217 1    
   191   96  218 1    
   192   96  219 1    
   193   97   98 2    
   194   97   99 am   BACKBONE|DICT|INTERRES
   195   99  100 1    
   196   99  220 1    
   197  100  101 1    
   198  100  102 1    
   199  100  221 1    
   200  101  222 1    
   201  101  223 1    
   202  101  224 1    
   203  102  103 2    
   204  102  104 am   BACKBONE|DICT|INTERRES
   205  104  105 1    
   206  104  225 1    
   207  105  106 1    
   208  105  107 1    
   209  105  226 1    
   210  106  227 1    
   211  106  228 1    
   212  106  229 1    
   213  107  108 2    
   214  107  109 am   BACKBONE|DICT|INTERRES
   215  109  110 1    
   216  109  230 1    
   217  110  111 1    
   218  110  112 1    
   219  110  231 1    
   220  111  232 1    
   221  111  233 1    
   222  111  234 1    
   223  112  113 2    
   224  112  114 am   BACKBONE|DICT|INTERRES
   225  114  115 1    
   226  114  235 1    
   227  115  116 1    
   228  115  117 1    
   229  115  236 1    
   230  116  237 1    
   231  116  238 1    
   232  116  239 1    
   233  117  118 2    
   234  117  119 am   BACKBONE|DICT|INTERRES
   235  119  120 1    
   236  119  240 1    
   237  120  121 1    
   238  120  124 1    
   239  120  241 1    
   240  121  122 am   BACKBONE|DICT|INTERRES
   241  121  123 2    
   242  122  242 1    
   243  122  243 1    
   244  124  125 1    
   245  124  244 1    
   246  124  245 1    
   247  125  126 1    
   248  126  246 1    
   249  126  247 1    
@<TRIPOS>SUBSTRUCTURE
     1 UNK         1 GROUP             0       ****    0 ROOT    
