@<TRIPOS>MOLECULE
3R540
247   249    1
SMALL
USER_CHARGES


@<TRIPOS>ATOM
      1 CA         -1.2087  -12.1856  -48.5855 C.3       0 UNK        -0.1800 
      2 C          -0.0949  -12.6373  -47.6521 C.2       0 UNK         0.5000 
      3 O          -0.3785  -13.1929  -46.5919 O.2       0 UNK        -0.5000 
      4 N           1.1642  -12.4028  -48.0501 N.am      1 UNK        -0.5000 
      5 CA          2.3966  -12.7600  -47.3286 C.3       1 UNK         0.1400 
      6 C6          2.6394  -14.2907  -47.1971 C.3       23 UNK        -0.0398 
      7 S7          2.4083  -15.2621  -48.7304 S.3       23 UNK        -0.2404 
      8 C8          0.9025  -16.1800  -48.2735 C.3       23 UNK        -0.0205 
      9 C9          0.6916  -17.4532  -49.0728 C.ar      23 UNK        -0.0193 
     10 C10        -0.4680  -17.6241  -49.8329 C.ar      23 UNK        -0.1150 
     11 C11        -0.7274  -18.8445  -50.4606 C.ar      23 UNK        -0.0193 
     12 C12         0.1800  -19.8984  -50.3185 C.ar      23 UNK        -0.1150 
     13 C13         1.3413  -19.7451  -49.5546 C.ar      23 UNK        -0.0193 
     14 C14         1.6035  -18.5061  -48.9598 C.ar      23 UNK        -0.1150 
     15 C15         2.2809  -20.9383  -49.3847 C.3       23 UNK        -0.0205 
     16 S16         3.1088  -21.0838  -47.7562 S.3       23 UNK        -0.2404 
     17 C17         1.7843  -20.8123  -46.5259 C.3       23 UNK        -0.0398 
     18 CA          0.9188  -22.0585  -46.2195 C.3       11 UNK         0.1400 
     19 N           0.3806  -22.0106  -44.8579 N.am      11 UNK        -0.5000 
     20 C          -0.3428  -22.9707  -44.2662 C.2       10 UNK         0.5000 
     21 O          -0.5961  -24.0585  -44.7812 O.2       10 UNK        -0.5000 
     22 CA         -0.9283  -22.6334  -42.8846 C.3       10 UNK         0.1400 
     23 CB          0.1073  -22.8639  -41.7736 C.3       10 UNK        -0.1800 
     24 N          -1.4237  -21.2579  -42.8220 N.am      10 UNK        -0.5000 
     25 C          -2.4973  -20.8110  -43.4889 C.2       9 UNK         0.5000 
     26 O          -3.2024  -21.5209  -44.2058 O.2       9 UNK        -0.5000 
     27 CA         -2.8092  -19.3088  -43.3650 C.3       9 UNK         0.1400 
     28 CB         -3.5379  -19.0100  -42.0463 C.3       9 UNK        -0.1800 
     29 N          -1.6117  -18.4734  -43.4558 N.am      9 UNK        -0.5000 
     30 C          -0.8425  -18.3669  -44.5478 C.2       8 UNK         0.5000 
     31 O          -1.0615  -18.9585  -45.6044 O.2       8 UNK        -0.5000 
     32 CA          0.4091  -17.4817  -44.4209 C.3       8 UNK         0.1400 
     33 CB          0.0239  -16.0034  -44.5763 C.3       8 UNK        -0.1800 
     34 N           1.1387  -17.6514  -43.1629 N.am      8 UNK        -0.5000 
     35 C           1.5809  -18.8081  -42.6489 C.2       7 UNK         0.5000 
     36 O           1.3864  -19.9067  -43.1678 O.2       7 UNK        -0.5000 
     37 CA          2.3637  -18.7299  -41.3280 C.3       7 UNK         0.1400 
     38 CB          3.8737  -18.6932  -41.6063 C.3       7 UNK        -0.1800 
     39 N           1.9909  -17.5550  -40.5387 N.am      7 UNK        -0.5000 
     40 C           0.9724  -17.5159  -39.6688 C.2       6 UNK         0.5000 
     41 O           0.2528  -18.4830  -39.4169 O.2       6 UNK        -0.5000 
     42 CA          0.7067  -16.1699  -38.9647 C.3       6 UNK         0.1400 
     43 CB          1.5222  -16.0727  -37.6665 C.3       6 UNK        -0.1800 
     44 N           1.0106  -15.0126  -39.8087 N.am      6 UNK        -0.5000 
     45 C           0.2824  -14.6391  -40.8698 C.2       5 UNK         0.5000 
     46 O          -0.7620  -15.1974  -41.2056 O.2       5 UNK        -0.5000 
     47 CA          0.8192  -13.4639  -41.7149 C.3       5 UNK         0.1400 
     48 CB          0.1705  -12.1456  -41.2677 C.3       5 UNK        -0.1800 
     49 N           2.2785  -13.3035  -41.7065 N.am      5 UNK        -0.5000 
     50 C           3.1718  -14.2374  -42.0658 C.2       4 UNK         0.5000 
     51 O           2.8638  -15.3951  -42.3527 O.2       4 UNK        -0.5000 
     52 CA          4.6430  -13.7915  -42.1130 C.3       4 UNK         0.1400 
     53 CB          5.5647  -14.8221  -42.7911 C.3       4 UNK        -0.1800 
     54 N           4.7417  -12.5151  -42.8149 N.am      4 UNK        -0.5000 
     55 C           5.5401  -11.4953  -42.4745 C.2       3 UNK         0.5000 
     56 O           6.3030  -11.5239  -41.5079 O.2       3 UNK        -0.5000 
     57 CA          5.4910  -10.2252  -43.3531 C.3       3 UNK         0.1400 
     58 CB          6.7160  -10.1685  -44.2791 C.3       3 UNK        -0.1800 
     59 N           4.2808  -10.1113  -44.1705 N.am      3 UNK        -0.5000 
     60 C           3.0452   -9.9103  -43.6937 C.2       2 UNK         0.5000 
     61 O           2.7980   -9.7260  -42.5015 O.2       2 UNK        -0.5000 
     62 CA          1.8831   -9.9580  -44.7078 C.3       2 UNK         0.1400 
     63 CB          1.4827   -8.5357  -45.1281 C.3       2 UNK        -0.1800 
     64 N           2.1132  -10.7625  -45.9165 N.am      2 UNK        -0.5000 
     65 C           2.4729  -12.0554  -45.9516 C.2       1 UNK         0.5000 
     66 O           2.8220  -12.6870  -44.9538 O.2       1 UNK        -0.5000 
     67 C          -0.2065  -22.2308  -47.2594 C.2       11 UNK         0.5000 
     68 O          -0.1436  -23.1472  -48.0790 O.2       11 UNK        -0.5000 
     69 N          -1.2378  -21.3773  -47.1745 N.am      12 UNK        -0.5000 
     70 CA         -2.4156  -21.4142  -48.0390 C.3       12 UNK         0.1400 
     71 CB         -3.2933  -20.1838  -47.7719 C.3       12 UNK        -0.1800 
     72 C          -3.2255  -22.7132  -47.8949 C.2       12 UNK         0.5000 
     73 O          -3.6654  -23.2580  -48.9075 O.2       12 UNK        -0.5000 
     74 N          -3.3733  -23.2071  -46.6570 N.am      13 UNK        -0.5000 
     75 CA         -4.0165  -24.4846  -46.3494 C.3       13 UNK         0.1400 
     76 CB         -4.2014  -24.6267  -44.8313 C.3       13 UNK        -0.1800 
     77 C          -3.2476  -25.6868  -46.9263 C.2       13 UNK         0.5000 
     78 O          -3.8629  -26.5488  -47.5538 O.2       13 UNK        -0.5000 
     79 N          -1.9182  -25.7026  -46.7494 N.am      14 UNK        -0.5000 
     80 CA         -1.0150  -26.7232  -47.2897 C.3       14 UNK         0.1400 
     81 CB          0.3960  -26.5158  -46.7189 C.3       14 UNK        -0.1800 
     82 C          -0.9808  -26.7418  -48.8295 C.2       14 UNK         0.5000 
     83 O          -0.9227  -27.8178  -49.4255 O.2       14 UNK        -0.5000 
     84 N          -1.0584  -25.5540  -49.4428 N.am      15 UNK        -0.5000 
     85 CA         -1.1657  -25.3586  -50.8887 C.3       15 UNK         0.1400 
     86 CB         -0.7749  -23.9073  -51.2179 C.3       15 UNK        -0.1800 
     87 C          -2.5671  -25.6688  -51.4545 C.2       15 UNK         0.5000 
     88 O          -2.7259  -25.6573  -52.6756 O.2       15 UNK        -0.5000 
     89 N          -3.5671  -25.8766  -50.5812 N.am      16 UNK        -0.5000 
     90 CA         -4.9971  -26.0345  -50.8840 C.3       16 UNK         0.1400 
     91 CB         -5.2573  -27.3850  -51.5812 C.3       16 UNK        -0.1800 
     92 C          -5.5613  -24.8321  -51.6727 C.2       16 UNK         0.5000 
     93 O          -6.3393  -25.0059  -52.6143 O.2       16 UNK        -0.5000 
     94 N          -5.0735  -23.6324  -51.3195 N.am      17 UNK        -0.5000 
     95 CA         -5.2703  -22.3425  -51.9874 C.3       17 UNK         0.1400 
     96 CB         -6.7121  -21.8426  -51.7692 C.3       17 UNK        -0.1800 
     97 C          -4.8705  -22.3388  -53.4803 C.2       17 UNK         0.5000 
     98 O          -5.3626  -21.4963  -54.2310 O.2       17 UNK        -0.5000 
     99 N          -4.0184  -23.2887  -53.8991 N.am      18 UNK        -0.5000 
    100 CA        -3.6389  -23.5901  -55.2836 C.3       18 UNK         0.1400 
    101 CB        -2.7448  -22.4721  -55.8576 C.3       18 UNK        -0.1800 
    102 C         -4.8607  -23.9064  -56.1753 C.2       18 UNK         0.5000 
    103 O         -4.9057  -23.4803  -57.3290 O.2       18 UNK        -0.5000 
    104 N         -5.8556  -24.6055  -55.6035 N.am      19 UNK        -0.5000 
    105 CA        -7.1810  -24.8718  -56.1786 C.3       19 UNK         0.1400 
    106 CB        -7.0834  -25.7852  -57.4187 C.3       19 UNK        -0.1800 
    107 C         -7.9673  -23.5665  -56.4345 C.2       19 UNK         0.5000 
    108 O         -8.5782  -23.3965  -57.4902 O.2       19 UNK        -0.5000 
    109 N         -7.8962  -22.6623  -55.4476 N.am      20 UNK        -0.5000 
    110 CA        -8.4683  -21.3127  -55.3740 C.3       20 UNK         0.1400 
    111 CB        -9.9890  -21.3181  -55.6301 C.3       20 UNK        -0.1800 
    112 C         -7.7401  -20.2478  -56.2212 C.2       20 UNK         0.5000 
    113 O         -8.0971  -19.0719  -56.1255 O.2       20 UNK        -0.5000 
    114 N         -6.7097  -20.6313  -56.9906 N.am      21 UNK        -0.5000 
    115 CA        -5.9043  -19.7183  -57.8105 C.3       21 UNK         0.1400 
    116 CB        -5.0228  -20.5298  -58.7707 C.3       21 UNK        -0.1800 
    117 C         -5.0448  -18.7376  -56.9857 C.2       21 UNK         0.5000 
    118 O         -4.6878  -17.6745  -57.4952 O.2       21 UNK        -0.5000 
    119 N         -4.7457  -19.0961  -55.7308 N.am      22 UNK        -0.5000 
    120 CA        -4.0682  -18.2439  -54.7420 C.3       22 UNK         0.1400 
    121 C         -4.9952  -17.1644  -54.1006 C.2       22 UNK         0.5000 
    122 N         -6.3014  -17.1659  -54.3483 N.am      22 UNK        -0.7600 
    123 O         -4.5226  -16.2958  -53.3736 O.2       22 UNK        -0.5000 
    124 C124       -3.3685  -19.1233  -53.6727 C.3       23 UNK        -0.0398 
    125 S125       -1.8639  -18.3994  -52.9446 S.3       23 UNK        -0.2404 
    126 C126       -2.0107  -19.0413  -51.2500 C.3       23 UNK        -0.0205 
    127 H127       -0.8174  -11.7102  -49.4852 H         1 UNK         0.0600 
    128 H128       -1.8571  -11.4716  -48.0776 H         1 UNK         0.0600 
    129 H129       -1.8124  -13.0411  -48.8884 H         1 UNK         0.0600 
    130 H130        1.3110  -11.9495  -48.9411 H         1 UNK         0.3000 
    131 H131        3.2173  -12.3528  -47.9208 H         1 UNK         0.0600 
    132 H132        3.6594  -14.4701  -46.8528 H         1 UNK         0.0800 
    133 H133        1.9991  -14.6989  -46.4168 H         1 UNK         0.0800 
    134 H134        0.9660  -16.4798  -47.2302 H         1 UNK         0.0800 
    135 H135        0.0392  -15.5188  -48.3541 H         1 UNK         0.0800 
    136 H136       -1.1849  -16.8192  -49.9147 H         1 UNK         0.1150 
    137 H137       -0.0293  -20.8489  -50.7889 H         1 UNK         0.1150 
    138 H138        2.4944  -18.3710  -48.3630 H         1 UNK         0.1150 
    139 H139        1.7414  -21.8679  -49.5707 H         1 UNK         0.0800 
    140 H140        3.0499  -20.8789  -50.1556 H         1 UNK         0.0800 
    141 H141        1.1710  -19.9510  -46.7870 H         1 UNK         0.0800 
    142 H142        2.3084  -20.5101  -45.6185 H         1 UNK         0.0800 
    143 H143        1.5549  -22.9448  -46.2688 H         1 UNK         0.0600 
    144 H144        0.5740  -21.1667  -44.3246 H         1 UNK         0.3000 
    145 H145       -1.7703  -23.3053  -42.7057 H         1 UNK         0.0600 
    146 H146       -0.3214  -22.6733  -40.7896 H         1 UNK         0.0600 
    147 H147        0.4595  -23.8962  -41.7801 H         1 UNK         0.0600 
    148 H148        0.9797  -22.2205  -41.8893 H         1 UNK         0.0600 
    149 H149       -0.8633  -20.5962  -42.3050 H         1 UNK         0.3000 
    150 H150       -3.4712  -19.0386  -44.1904 H         1 UNK         0.0600 
    151 H151       -3.8379  -17.9634  -41.9907 H         1 UNK         0.0600 
    152 H152       -4.4428  -19.6123  -41.9553 H         1 UNK         0.0600 
    153 H153       -2.9106  -19.2251  -41.1801 H         1 UNK         0.0600 
    154 H154       -1.3493  -17.9529  -42.6308 H         1 UNK         0.3000 
    155 H155        1.0927  -17.7537  -45.2268 H         1 UNK         0.0600 
    156 H156       -0.6720  -15.6864  -43.8004 H         1 UNK         0.0600 
    157 H157       -0.4655  -15.8192  -45.5329 H         1 UNK         0.0600 
    158 H158        0.8985  -15.3562  -44.5211 H         1 UNK         0.0600 
    159 H159        1.4310  -16.7983  -42.7001 H         1 UNK         0.3000 
    160 H160        2.1475  -19.6360  -40.7579 H         1 UNK         0.0600 
    161 H161        4.1528  -17.8260  -42.2054 H         1 UNK         0.0600 
    162 H162        4.1903  -19.5830  -42.1522 H         1 UNK         0.0600 
    163 H163        4.4457  -18.6597  -40.6790 H         1 UNK         0.0600 
    164 H164        2.4875  -16.6988  -40.7521 H         1 UNK         0.3000 
    165 H165       -0.3533  -16.1360  -38.7033 H         1 UNK         0.0600 
    166 H166        1.2886  -15.1579  -37.1214 H         1 UNK         0.0600 
    167 H167        1.3012  -16.9101  -37.0033 H         1 UNK         0.0600 
    168 H168        2.5952  -16.0833  -37.8622 H         1 UNK         0.0600 
    169 H169        1.8501  -14.4947  -39.5948 H         1 UNK         0.3000 
    170 H170        0.5250  -13.6488  -42.7495 H         1 UNK         0.0600 
    171 H171       -0.9178  -12.2166  -41.2907 H         1 UNK         0.0600 
    172 H172        0.4617  -11.8796  -40.2509 H         1 UNK         0.0600 
    173 H173        0.4538  -11.3227  -41.9236 H         1 UNK         0.0600 
    174 H174        2.6229  -12.3768  -41.4980 H         1 UNK         0.3000 
    175 H175        4.9616  -13.6738  -41.0754 H         1 UNK         0.0600 
    176 H176        5.2602  -15.0129  -43.8210 H         1 UNK         0.0600 
    177 H177        6.5987  -14.4776  -42.8053 H         1 UNK         0.0600 
    178 H178        5.5484  -15.7733  -42.2585 H         1 UNK         0.0600 
    179 H179        4.1155  -12.4156  -43.6119 H         1 UNK         0.3000 
    180 H180        5.5285   -9.3642  -42.6826 H         1 UNK         0.0600 
    181 H181        6.7246  -11.0001  -44.9849 H         1 UNK         0.0600 
    182 H182        7.6429  -10.2153  -43.7058 H         1 UNK         0.0600 
    183 H183        6.7366   -9.2407  -44.8510 H         1 UNK         0.0600 
    184 H184        4.3879  -10.2621  -45.1626 H         1 UNK         0.3000 
    185 H185        1.0338  -10.4077  -44.1901 H         1 UNK         0.0600 
    186 H186        1.2725   -7.9134  -44.2570 H         1 UNK         0.0600 
    187 H187        2.2753   -8.0477  -45.6967 H         1 UNK         0.0600 
    188 H188        0.5825   -8.5434  -45.7430 H         1 UNK         0.0600 
    189 H189        1.8444  -10.3305  -46.7885 H         1 UNK         0.3000 
    190 H190       -1.2043  -20.6251  -46.4905 H         1 UNK         0.3000 
    191 H191       -2.0666  -21.3621  -49.0713 H         1 UNK         0.0600 
    192 H192       -2.7429  -19.2617  -47.9609 H         1 UNK         0.0600 
    193 H193       -4.1700  -20.1793  -48.4208 H         1 UNK         0.0600 
    194 H194       -3.6441  -20.1572  -46.7396 H         1 UNK         0.0600 
    195 H195       -3.0266  -22.6701  -45.8687 H         1 UNK         0.3000 
    196 H196       -5.0073  -24.4750  -46.8084 H         1 UNK         0.0600 
    197 H197       -4.6948  -25.5675  -44.5843 H         1 UNK         0.0600 
    198 H198       -4.8191  -23.8216  -44.4332 H         1 UNK         0.0600 
    199 H199       -3.2477  -24.6078  -44.3041 H         1 UNK         0.0600 
    200 H200       -1.4868  -24.9703  -46.1904 H         1 UNK         0.3000 
    201 H201       -1.3768  -27.6977  -46.9557 H         1 UNK         0.0600 
    202 H202        0.3954  -26.5917  -45.6314 H         1 UNK         0.0600 
    203 H203        0.7977  -25.5374  -46.9849 H         1 UNK         0.0600 
    204 H204        1.0869  -27.2700  -47.0974 H         1 UNK         0.0600 
    205 H205       -1.0220  -24.7120  -48.8746 H         1 UNK         0.3000 
    206 H206       -0.4577  -26.0255  -51.3846 H         1 UNK         0.0600 
    207 H207        0.2346  -23.6831  -50.8730 H         1 UNK         0.0600 
    208 H208       -0.7972  -23.7253  -52.2932 H         1 UNK         0.0600 
    209 H209       -1.4538  -23.1935  -50.7501 H         1 UNK         0.0600 
    210 H210       -3.3407  -25.8506  -49.5947 H         1 UNK         0.3000 
    211 H211       -5.5177  -26.0456  -49.9255 H         1 UNK         0.0600 
    212 H212       -4.8037  -27.4246  -52.5720 H         1 UNK         0.0600 
    213 H213       -6.3264  -27.5621  -51.7036 H         1 UNK         0.0600 
    214 H214       -4.8567  -28.2125  -50.9957 H         1 UNK         0.0600 
    215 H215       -4.4609  -23.6018  -50.5049 H         1 UNK         0.3000 
    216 H216       -4.5968  -21.6405  -51.4942 H         1 UNK         0.0600 
    217 H217       -6.8406  -20.8283  -52.1493 H         1 UNK         0.0600 
    218 H218       -6.9629  -21.8217  -50.7086 H         1 UNK         0.0600 
    219 H219       -7.4414  -22.4781  -52.2721 H         1 UNK         0.0600 
    220 H220       -3.6801  -23.9631  -53.2206 H         1 UNK         0.3000 
    221 H221       -3.0439  -24.5035  -55.2471 H         1 UNK         0.0600 
    222 H222       -3.2980  -21.5452  -56.0021 H         1 UNK         0.0600 
    223 H223       -1.9023  -22.2625  -55.1987 H         1 UNK         0.0600 
    224 H224       -2.3353  -22.7596  -56.8265 H         1 UNK         0.0600 
    225 H225       -5.7492  -24.8772  -54.6314 H         1 UNK         0.3000 
    226 H226       -7.7384  -25.4167  -55.4152 H         1 UNK         0.0600 
    227 H227       -6.5236  -26.6934  -57.1957 H         1 UNK         0.0600 
    228 H228       -8.0750  -26.0899  -57.7549 H         1 UNK         0.0600 
    229 H229       -6.5957  -25.2875  -58.2572 H         1 UNK         0.0600 
    230 H230       -7.3034  -22.8991  -54.6643 H         1 UNK         0.3000 
    231 H231       -8.3221  -21.0017  -54.3389 H         1 UNK         0.0600 
    232 H232      -10.2271  -21.5308  -56.6723 H         1 UNK         0.0600 
    233 H233      -10.4265  -20.3477  -55.3923 H         1 UNK         0.0600 
    234 H234      -10.4922  -22.0598  -55.0099 H         1 UNK         0.0600 
    235 H235       -6.4425  -21.6065  -56.9975 H         1 UNK         0.3000 
    236 H236       -6.5930  -19.1211  -58.4117 H         1 UNK         0.0600 
    237 H237       -5.6137  -21.2391  -59.3505 H         1 UNK         0.0600 
    238 H238       -4.5140  -19.8741  -59.4782 H         1 UNK         0.0600 
    239 H239       -4.2544  -21.0883  -58.2368 H         1 UNK         0.0600 
    240 H240       -5.0888  -19.9869  -55.3808 H         1 UNK         0.3000 
    241 H241       -3.2922  -17.6941  -55.2779 H         1 UNK         0.0600 
    242 H242       -6.7205  -17.8517  -54.9629 H         1 UNK         0.3800 
    243 H243       -6.8807  -16.4550  -53.9305 H         1 UNK         0.3800 
    244 H244       -4.0743  -19.4004  -52.8880 H         1 UNK         0.0800 
    245 H245       -3.0391  -20.0607  -54.1202 H         1 UNK         0.0800 
    246 H246       -2.8390  -18.5428  -50.7439 H         1 UNK         0.0800 
    247 H247       -2.2641  -20.1021  -51.2858 H         1 UNK         0.0800 
@<TRIPOS>BOND
     1    1    2 1    
     2    1  127 1    
     3    1  128 1    
     4    1  129 1    
     5    2    3 2    
     6    2    4 am   BACKBONE|DICT|INTERRES
     7    4    5 1    
     8    4  130 1    
     9    5    6 1    
    10    5   65 1    
    11    5  131 1    
    12    6    7 1    
    13    6  132 1    
    14    6  133 1    
    15    7    8 1    
    16    8    9 1    
    17    8  134 1    
    18    8  135 1    
    19    9   10 ar   
    20    9   14 ar   
    21   10   11 ar   
    22   10  136 1    
    23   11   12 ar   
    24   11  126 1    
    25   12   13 ar   
    26   12  137 1    
    27   13   14 ar   
    28   13   15 1    
    29   14  138 1    
    30   15   16 1    
    31   15  139 1    
    32   15  140 1    
    33   16   17 1    
    34   17   18 1    
    35   17  141 1    
    36   17  142 1    
    37   18   19 1    
    38   18   67 1    
    39   18  143 1    
    40   19   20 am   BACKBONE|DICT|INTERRES
    41   19  144 1    
    42   20   21 2    
    43   20   22 1    
    44   22   23 1    
    45   22   24 1    
    46   22  145 1    
    47   23  146 1    
    48   23  147 1    
    49   23  148 1    
    50   24   25 am   BACKBONE|DICT|INTERRES
    51   24  149 1    
    52   25   26 2    
    53   25   27 1    
    54   27   28 1    
    55   27   29 1    
    56   27  150 1    
    57   28  151 1    
    58   28  152 1    
    59   28  153 1    
    60   29   30 am   BACKBONE|DICT|INTERRES
    61   29  154 1    
    62   30   31 2    
    63   30   32 1    
    64   32   33 1    
    65   32   34 1    
    66   32  155 1    
    67   33  156 1    
    68   33  157 1    
    69   33  158 1    
    70   34   35 am   BACKBONE|DICT|INTERRES
    71   34  159 1    
    72   35   36 2    
    73   35   37 1    
    74   37   38 1    
    75   37   39 1    
    76   37  160 1    
    77   38  161 1    
    78   38  162 1    
    79   38  163 1    
    80   39   40 am   BACKBONE|DICT|INTERRES
    81   39  164 1    
    82   40   41 2    
    83   40   42 1    
    84   42   43 1    
    85   42   44 1    
    86   42  165 1    
    87   43  166 1    
    88   43  167 1    
    89   43  168 1    
    90   44   45 am   BACKBONE|DICT|INTERRES
    91   44  169 1    
    92   45   46 2    
    93   45   47 1    
    94   47   48 1    
    95   47   49 1    
    96   47  170 1    
    97   48  171 1    
    98   48  172 1    
    99   48  173 1    
   100   49   50 am   BACKBONE|DICT|INTERRES
   101   49  174 1    
   102   50   51 2    
   103   50   52 1    
   104   52   53 1    
   105   52   54 1    
   106   52  175 1    
   107   53  176 1    
   108   53  177 1    
   109   53  178 1    
   110   54   55 am   BACKBONE|DICT|INTERRES
   111   54  179 1    
   112   55   56 2    
   113   55   57 1    
   114   57   58 1    
   115   57   59 1    
   116   57  180 1    
   117   58  181 1    
   118   58  182 1    
   119   58  183 1    
   120   59   60 am   BACKBONE|DICT|INTERRES
   121   59  184 1    
   122   60   61 2    
   123   60   62 1    
   124   62   63 1    
   125   62   64 1    
   126   62  185 1    
   127   63  186 1    
   128   63  187 1    
   129   63  188 1    
   130   64   65 am   BACKBONE|DICT|INTERRES
   131   64  189 1    
   132   65   66 2    
   133   67   68 2    
   134   67   69 am   BACKBONE|DICT|INTERRES
   135   69   70 1    
   136   69  190 1    
   137   70   71 1    
   138   70   72 1    
   139   70  191 1    
   140   71  192 1    
   141   71  193 1    
   142   71  194 1    
   143   72   73 2    
   144   72   74 am   BACKBONE|DICT|INTERRES
   145   74   75 1    
   146   74  195 1    
   147   75   76 1    
   148   75   77 1    
   149   75  196 1    
   150   76  197 1    
   151   76  198 1    
   152   76  199 1    
   153   77   78 2    
   154   77   79 am   BACKBONE|DICT|INTERRES
   155   79   80 1    
   156   79  200 1    
   157   80   81 1    
   158   80   82 1    
   159   80  201 1    
   160   81  202 1    
   161   81  203 1    
   162   81  204 1    
   163   82   83 2    
   164   82   84 am   BACKBONE|DICT|INTERRES
   165   84   85 1    
   166   84  205 1    
   167   85   86 1    
   168   85   87 1    
   169   85  206 1    
   170   86  207 1    
   171   86  208 1    
   172   86  209 1    
   173   87   88 2    
   174   87   89 am   BACKBONE|DICT|INTERRES
   175   89   90 1    
   176   89  210 1    
   177   90   91 1    
   178   90   92 1    
   179   90  211 1    
   180   91  212 1    
   181   91  213 1    
   182   91  214 1    
   183   92   93 2    
   184   92   94 am   BACKBONE|DICT|INTERRES
   185   94   95 1    
   186   94  215 1    
   187   95   96 1    
   188   95   97 1    
   189   95  216 1    
   190   96  217 1    
   191   96  218 1    
   192   96  219 1    
   193   97   98 2    
   194   97   99 am   BACKBONE|DICT|INTERRES
   195   99  100 1    
   196   99  220 1    
   197  100  101 1    
   198  100  102 1    
   199  100  221 1    
   200  101  222 1    
   201  101  223 1    
   202  101  224 1    
   203  102  103 2    
   204  102  104 am   BACKBONE|DICT|INTERRES
   205  104  105 1    
   206  104  225 1    
   207  105  106 1    
   208  105  107 1    
   209  105  226 1    
   210  106  227 1    
   211  106  228 1    
   212  106  229 1    
   213  107  108 2    
   214  107  109 am   BACKBONE|DICT|INTERRES
   215  109  110 1    
   216  109  230 1    
   217  110  111 1    
   218  110  112 1    
   219  110  231 1    
   220  111  232 1    
   221  111  233 1    
   222  111  234 1    
   223  112  113 2    
   224  112  114 am   BACKBONE|DICT|INTERRES
   225  114  115 1    
   226  114  235 1    
   227  115  116 1    
   228  115  117 1    
   229  115  236 1    
   230  116  237 1    
   231  116  238 1    
   232  116  239 1    
   233  117  118 2    
   234  117  119 am   BACKBONE|DICT|INTERRES
   235  119  120 1    
   236  119  240 1    
   237  120  121 1    
   238  120  124 1    
   239  120  241 1    
   240  121  122 am   BACKBONE|DICT|INTERRES
   241  121  123 2    
   242  122  242 1    
   243  122  243 1    
   244  124  125 1    
   245  124  244 1    
   246  124  245 1    
   247  125  126 1    
   248  126  246 1    
   249  126  247 1    
@<TRIPOS>SUBSTRUCTURE
     1 UNK         1 GROUP             0       ****    0 ROOT    
