@<TRIPOS>MOLECULE
3R540
247   249    1
SMALL
USER_CHARGES


@<TRIPOS>ATOM
      1 CA         -0.9486   -9.7365  -48.1358 C.3       0 UNK        -0.1800 
      2 C          -0.3491  -11.0882  -47.7758 C.2       0 UNK         0.5000 
      3 O          -1.0846  -11.9955  -47.3923 O.2       0 UNK        -0.5000 
      4 N           0.9799  -11.2155  -47.8992 N.am      1 UNK        -0.5000 
      5 CA          1.7733  -12.4270  -47.6395 C.3       1 UNK         0.1400 
      6 C6          1.4362  -13.6163  -48.5740 C.3       23 UNK        -0.0398 
      7 S7          1.6016  -13.2443  -50.3564 S.3       23 UNK        -0.2404 
      8 C8         -0.1142  -13.3897  -50.9686 C.3       23 UNK        -0.0205 
      9 C9         -0.8552  -14.6069  -50.4254 C.ar      23 UNK        -0.0193 
     10 C10        -2.0833  -14.4372  -49.7827 C.ar      23 UNK        -0.1150 
     11 C11        -2.7551  -15.5270  -49.2245 C.ar      23 UNK        -0.0193 
     12 C12        -2.1794  -16.7992  -49.2976 C.ar      23 UNK        -0.1150 
     13 C13        -0.9448  -16.9828  -49.9311 C.ar      23 UNK        -0.0193 
     14 C14        -0.2996  -15.8872  -50.5113 C.ar      23 UNK        -0.1150 
     15 C15        -0.3045  -18.3613  -50.0029 C.3       23 UNK        -0.0205 
     16 S16         1.0475  -18.5864  -48.7886 S.3       23 UNK        -0.2404 
     17 C17         0.1900  -18.5703  -47.1734 C.3       23 UNK        -0.0398 
     18 CA         -0.2535  -19.9772  -46.6952 C.3       11 UNK         0.1400 
     19 N          -0.5582  -20.0242  -45.2617 N.am      11 UNK        -0.5000 
     20 C          -0.8980  -21.1353  -44.5875 C.2       10 UNK         0.5000 
     21 O          -0.8614  -22.2673  -45.0682 O.2       10 UNK        -0.5000 
     22 CA         -1.4437  -20.9456  -43.1621 C.3       10 UNK         0.1400 
     23 CB         -0.3136  -20.9433  -42.1234 C.3       10 UNK        -0.1800 
     24 N          -2.2362  -19.7203  -43.0486 N.am      10 UNK        -0.5000 
     25 C          -3.4646  -19.5731  -43.5657 C.2       9 UNK         0.5000 
     26 O          -4.0740  -20.4790  -44.1339 O.2       9 UNK        -0.5000 
     27 CA         -4.1020  -18.1732  -43.4668 C.3       9 UNK         0.1400 
     28 CB         -4.8131  -17.9989  -42.1169 C.3       9 UNK        -0.1800 
     29 N          -3.1276  -17.0945  -43.6421 N.am      9 UNK        -0.5000 
     30 C          -2.4983  -16.8206  -44.7940 C.2       8 UNK         0.5000 
     31 O          -2.7352  -17.4082  -45.8491 O.2       8 UNK        -0.5000 
     32 CA         -1.3767  -15.7591  -44.7425 C.3       8 UNK         0.1400 
     33 CB         -1.9319  -14.3680  -45.0735 C.3       8 UNK        -0.1800 
     34 N          -0.6762  -15.7036  -43.4531 N.am      8 UNK        -0.5000 
     35 C          -0.0069  -16.7305  -42.9138 C.2       7 UNK         0.5000 
     36 O           0.0624  -17.8433  -43.4446 O.2       7 UNK        -0.5000 
     37 CA          0.6095  -16.5104  -41.5230 C.3       7 UNK         0.1400 
     38 CB         -0.5093  -16.4250  -40.4628 C.3       7 UNK        -0.1800 
     39 N           1.4945  -17.6388  -41.2532 N.am      7 UNK        -0.5000 
     40 C           2.2704  -17.8538  -40.1840 C.2       6 UNK         0.5000 
     41 O           2.3739  -17.0715  -39.2387 O.2       6 UNK        -0.5000 
     42 CA          3.0653  -19.1770  -40.1604 C.3       6 UNK         0.1400 
     43 CB          2.3230  -20.2358  -39.3303 C.3       6 UNK        -0.1800 
     44 N           3.3010  -19.7037  -41.5075 N.am      6 UNK        -0.5000 
     45 C           4.2828  -19.2763  -42.3113 C.2       5 UNK         0.5000 
     46 O           5.1969  -18.5420  -41.9284 O.2       5 UNK        -0.5000 
     47 CA          4.2435  -19.7252  -43.7921 C.3       5 UNK         0.1400 
     48 CB          2.8977  -20.3493  -44.2301 C.3       5 UNK        -0.1800 
     49 N           4.6086  -18.6280  -44.6975 N.am      5 UNK        -0.5000 
     50 C           4.0225  -17.4229  -44.7614 C.2       4 UNK         0.5000 
     51 O           3.0310  -17.0986  -44.1067 O.2       4 UNK        -0.5000 
     52 CA          4.6415  -16.4100  -45.7358 C.3       4 UNK         0.1400 
     53 CB          3.8733  -16.4070  -47.0664 C.3       4 UNK        -0.1800 
     54 N           4.6196  -15.0698  -45.1469 N.am      4 UNK        -0.5000 
     55 C           5.5176  -14.6396  -44.2469 C.2       3 UNK         0.5000 
     56 O           6.4893  -15.3101  -43.8945 O.2       3 UNK        -0.5000 
     57 CA          5.3429  -13.2271  -43.6496 C.3       3 UNK         0.1400 
     58 CB          6.4457  -12.2876  -44.1649 C.3       3 UNK        -0.1800 
     59 N           4.0467  -12.6215  -43.9487 N.am      3 UNK        -0.5000 
     60 C           2.9248  -12.8048  -43.2398 C.2       2 UNK         0.5000 
     61 O           2.8642  -13.4780  -42.2113 O.2       2 UNK        -0.5000 
     62 CA          1.6474  -12.1281  -43.7828 C.3       2 UNK         0.1400 
     63 CB          1.3900  -10.7978  -43.0597 C.3       2 UNK        -0.1800 
     64 N           1.6696  -11.8888  -45.2312 N.am      2 UNK        -0.5000 
     65 C           1.7433  -12.8579  -46.1547 C.2       1 UNK         0.5000 
     66 O           1.8194  -14.0501  -45.8588 O.2       1 UNK        -0.5000 
     67 C          -1.4472  -20.4989  -47.5168 C.2       11 UNK         0.5000 
     68 O          -1.2672  -21.4016  -48.3309 O.2       11 UNK        -0.5000 
     69 N          -2.6471  -19.9577  -47.2576 N.am      12 UNK        -0.5000 
     70 CA         -3.8928  -20.3559  -47.9138 C.3       12 UNK         0.1400 
     71 CB         -5.0372  -19.4456  -47.4489 C.3       12 UNK        -0.1800 
     72 C          -4.2514  -21.8367  -47.6969 C.2       12 UNK         0.5000 
     73 O          -4.7072  -22.4851  -48.6364 O.2       12 UNK        -0.5000 
     74 N          -4.0080  -22.3513  -46.4838 N.am      13 UNK        -0.5000 
     75 CA         -4.1815  -23.7620  -46.1383 C.3       13 UNK         0.1400 
     76 CB         -4.0650  -23.9380  -44.6170 C.3       13 UNK        -0.1800 
     77 C          -3.1912  -24.6843  -46.8754 C.2       13 UNK         0.5000 
     78 O          -3.5947  -25.7454  -47.3502 O.2       13 UNK        -0.5000 
     79 N          -1.9225  -24.2643  -46.9760 N.am      14 UNK        -0.5000 
     80 CA         -0.8659  -24.9881  -47.6866 C.3       14 UNK         0.1400 
     81 CB          0.5004  -24.3975  -47.3052 C.3       14 UNK        -0.1800 
     82 C          -1.0581  -24.9744  -49.2152 C.2       14 UNK         0.5000 
     83 O          -0.8446  -25.9955  -49.8687 O.2       14 UNK        -0.5000 
     84 N          -1.4697  -23.8200  -49.7520 N.am      15 UNK        -0.5000 
     85 CA         -1.7106  -23.5788  -51.1743 C.3       15 UNK         0.1400 
     86 CB         -1.5597  -22.0722  -51.4434 C.3       15 UNK        -0.1800 
     87 C          -3.0768  -24.0869  -51.6740 C.2       15 UNK         0.5000 
     88 O          -3.3622  -23.9411  -52.8651 O.2       15 UNK        -0.5000 
     89 N          -3.9174  -24.6308  -50.7823 N.am      16 UNK        -0.5000 
     90 CA         -5.2520  -25.1538  -51.0808 C.3       16 UNK         0.1400 
     91 CB         -5.8985  -25.6847  -49.7935 C.3       16 UNK        -0.1800 
     92 C          -5.2088  -26.2437  -52.1656 C.2       16 UNK         0.5000 
     93 O          -4.4838  -27.2283  -52.0098 O.2       16 UNK        -0.5000 
     94 N          -5.9314  -26.0045  -53.2689 N.am      17 UNK        -0.5000 
     95 CA         -5.9818  -26.7700  -54.5246 C.3       17 UNK         0.1400 
     96 CB         -6.4741  -28.2108  -54.2903 C.3       17 UNK        -0.1800 
     97 C          -4.6719  -26.7555  -55.3437 C.2       17 UNK         0.5000 
     98 O          -4.7356  -26.6955  -56.5716 O.2       17 UNK        -0.5000 
     99 N          -3.5183  -26.7917  -54.6660 N.am      18 UNK        -0.5000 
    100 CA        -2.1747  -26.7922  -55.2441 C.3       18 UNK         0.1400 
    101 CB        -1.1537  -27.0578  -54.1268 C.3       18 UNK        -0.1800 
    102 C         -1.8238  -25.4941  -55.9942 C.2       18 UNK         0.5000 
    103 O         -1.1840  -25.5578  -57.0450 O.2       18 UNK        -0.5000 
    104 N         -2.2489  -24.3489  -55.4479 N.am      19 UNK        -0.5000 
    105 CA        -2.0082  -23.0151  -55.9994 C.3       19 UNK         0.1400 
    106 CB        -0.6770  -22.4603  -55.4574 C.3       19 UNK        -0.1800 
    107 C         -3.2093  -22.0805  -55.7560 C.2       19 UNK         0.5000 
    108 O         -3.0363  -20.8630  -55.6968 O.2       19 UNK        -0.5000 
    109 N         -4.4090  -22.6723  -55.6415 N.am      20 UNK        -0.5000 
    110 CA        -5.7150  -22.0207  -55.4793 C.3       20 UNK         0.1400 
    111 CB        -6.0838  -21.2182  -56.7449 C.3       20 UNK        -0.1800 
    112 C         -5.8573  -21.1933  -54.1822 C.2       20 UNK         0.5000 
    113 O         -6.5633  -20.1818  -54.1725 O.2       20 UNK        -0.5000 
    114 N         -5.2107  -21.6532  -53.1007 N.am      21 UNK        -0.5000 
    115 CA        -5.2261  -21.0620  -51.7588 C.3       21 UNK         0.1400 
    116 CB        -6.6190  -21.2385  -51.1078 C.3       21 UNK        -0.1800 
    117 C         -4.7091  -19.6065  -51.7656 C.2       21 UNK         0.5000 
    118 O         -3.5720  -19.3714  -52.1732 O.2       21 UNK        -0.5000 
    119 N         -5.5480  -18.6668  -51.3180 N.am      22 UNK        -0.5000 
    120 CA        -5.3107  -17.2166  -51.3648 C.3       22 UNK         0.1400 
    121 C         -5.6371  -16.5719  -52.7506 C.2       22 UNK         0.5000 
    122 N         -6.1410  -17.3051  -53.7376 N.am      22 UNK        -0.7600 
    123 O         -5.4162  -15.3816  -52.9518 O.2       22 UNK        -0.5000 
    124 C124       -6.0531  -16.5328  -50.1844 C.3       23 UNK        -0.0398 
    125 S125       -5.4130  -14.8929  -49.7022 S.3       23 UNK        -0.2404 
    126 C126       -4.0862  -15.3038  -48.5225 C.3       23 UNK        -0.0205 
    127 H127       -0.1867   -9.0263  -48.4581 H         1 UNK         0.0600 
    128 H128       -1.6700   -9.8515  -48.9448 H         1 UNK         0.0600 
    129 H129       -1.4653   -9.3142  -47.2740 H         1 UNK         0.0600 
    130 H130        1.5123  -10.4219  -48.2277 H         1 UNK         0.3000 
    131 H131        2.8094  -12.1484  -47.8366 H         1 UNK         0.0600 
    132 H132        2.1111  -14.4508  -48.3838 H         1 UNK         0.0800 
    133 H133        0.4422  -13.9912  -48.3347 H         1 UNK         0.0800 
    134 H134       -0.0997  -13.4398  -52.0579 H         1 UNK         0.0800 
    135 H135       -0.6448  -12.4722  -50.7094 H         1 UNK         0.0800 
    136 H136       -2.5169  -13.4501  -49.7016 H         1 UNK         0.1150 
    137 H137       -2.6885  -17.6428  -48.8552 H         1 UNK         0.1150 
    138 H138        0.6561  -16.0250  -50.9973 H         1 UNK         0.1150 
    139 H139       -1.0595  -19.1385  -49.8922 H         1 UNK         0.0800 
    140 H140        0.1089  -18.5046  -51.0022 H         1 UNK         0.0800 
    141 H141       -0.6418  -17.8698  -47.2089 H         1 UNK         0.0800 
    142 H142        0.8929  -18.1512  -46.4511 H         1 UNK         0.0800 
    143 H143        0.5805  -20.6645  -46.8536 H         1 UNK         0.0600 
    144 H144       -0.5505  -19.1428  -44.7575 H         1 UNK         0.3000 
    145 H145       -2.0936  -21.7946  -42.9404 H         1 UNK         0.0600 
    146 H146       -0.7117  -20.8494  -41.1131 H         1 UNK         0.0600 
    147 H147        0.2536  -21.8740  -42.1650 H         1 UNK         0.0600 
    148 H148        0.3862  -20.1265  -42.2852 H         1 UNK         0.0600 
    149 H149       -1.7645  -18.9119  -42.6694 H         1 UNK         0.3000 
    150 H150       -4.8485  -18.0908  -44.2597 H         1 UNK         0.0600 
    151 H151       -5.5594  -18.7801  -41.9658 H         1 UNK         0.0600 
    152 H152       -5.3317  -17.0414  -42.0654 H         1 UNK         0.0600 
    153 H153       -4.1129  -18.0476  -41.2819 H         1 UNK         0.0600 
    154 H154       -2.8818  -16.5616  -42.8215 H         1 UNK         0.3000 
    155 H155       -0.6394  -16.0192  -45.5049 H         1 UNK         0.0600 
    156 H156       -2.6861  -14.0493  -44.3533 H         1 UNK         0.0600 
    157 H157       -1.1394  -13.6198  -45.0859 H         1 UNK         0.0600 
    158 H158       -2.3918  -14.3593  -46.0616 H         1 UNK         0.0600 
    159 H159       -0.7134  -14.8257  -42.9572 H         1 UNK         0.3000 
    160 H160        1.1975  -15.5914  -41.5353 H         1 UNK         0.0600 
    161 H161       -1.0796  -17.3532  -40.4069 H         1 UNK         0.0600 
    162 H162       -1.2108  -15.6212  -40.6887 H         1 UNK         0.0600 
    163 H163       -0.1102  -16.2196  -39.4701 H         1 UNK         0.0600 
    164 H164        1.5242  -18.2930  -42.0249 H         1 UNK         0.3000 
    165 H165        4.0236  -18.9815  -39.6743 H         1 UNK         0.0600 
    166 H166        2.8904  -21.1652  -39.2774 H         1 UNK         0.0600 
    167 H167        2.1706  -19.8905  -38.3069 H         1 UNK         0.0600 
    168 H168        1.3421  -20.4635  -39.7469 H         1 UNK         0.0600 
    169 H169        2.6106  -20.3393  -41.8770 H         1 UNK         0.3000 
    170 H170        5.0159  -20.4877  -43.9002 H         1 UNK         0.0600 
    171 H171        2.6711  -21.2550  -43.6669 H         1 UNK         0.0600 
    172 H172        2.0676  -19.6548  -44.1007 H         1 UNK         0.0600 
    173 H173        2.9231  -20.6312  -45.2828 H         1 UNK         0.0600 
    174 H174        5.4340  -18.7886  -45.2571 H         1 UNK         0.3000 
    175 H175        5.6766  -16.6907  -45.9423 H         1 UNK         0.0600 
    176 H176        2.8060  -16.2429  -46.9155 H         1 UNK         0.0600 
    177 H177        4.2455  -15.6350  -47.7397 H         1 UNK         0.0600 
    178 H178        3.9801  -17.3647  -47.5770 H         1 UNK         0.0600 
    179 H179        3.7794  -14.5279  -45.3104 H         1 UNK         0.3000 
    180 H180        5.4543  -13.3167  -42.5669 H         1 UNK         0.0600 
    181 H181        7.4363  -12.6770  -43.9263 H         1 UNK         0.0600 
    182 H182        6.3689  -11.3009  -43.7076 H         1 UNK         0.0600 
    183 H183        6.3945  -12.1621  -45.2471 H         1 UNK         0.0600 
    184 H184        3.9985  -12.0440  -44.7747 H         1 UNK         0.3000 
    185 H185        0.8124  -12.7986  -43.5705 H         1 UNK         0.0600 
    186 H186        1.3390  -10.9432  -41.9798 H         1 UNK         0.0600 
    187 H187        2.1813  -10.0735  -43.2565 H         1 UNK         0.0600 
    188 H188        0.4434  -10.3559  -43.3714 H         1 UNK         0.0600 
    189 H189        1.6014  -10.9296  -45.5392 H         1 UNK         0.3000 
    190 H190       -2.7079  -19.1912  -46.5929 H         1 UNK         0.3000 
    191 H191       -3.7524  -20.2044  -48.9851 H         1 UNK         0.0600 
    192 H192       -5.2438  -19.5672  -46.3857 H         1 UNK         0.0600 
    193 H193       -5.9581  -19.6665  -47.9891 H         1 UNK         0.0600 
    194 H194       -4.8003  -18.3980  -47.6216 H         1 UNK         0.0600 
    195 H195       -3.6955  -21.7314  -45.7448 H         1 UNK         0.3000 
    196 H196       -5.1907  -24.0554  -46.4350 H         1 UNK         0.0600 
    197 H197       -4.2453  -24.9747  -44.3301 H         1 UNK         0.0600 
    198 H198       -4.7952  -23.3225  -44.0912 H         1 UNK         0.0600 
    199 H199       -3.0742  -23.6656  -44.2538 H         1 UNK         0.0600 
    200 H200       -1.6530  -23.3970  -46.5216 H         1 UNK         0.3000 
    201 H201       -0.8871  -26.0293  -47.3581 H         1 UNK         0.0600 
    202 H202        0.6762  -24.4742  -46.2321 H         1 UNK         0.0600 
    203 H203        0.5759  -23.3448  -47.5800 H         1 UNK         0.0600 
    204 H204        1.3103  -24.9281  -47.8072 H         1 UNK         0.0600 
    205 H205       -1.5619  -23.0098  -49.1411 H         1 UNK         0.3000 
    206 H206       -0.9493  -24.1024  -51.7559 H         1 UNK         0.0600 
    207 H207       -1.8091  -21.8137  -52.4723 H         1 UNK         0.0600 
    208 H208       -2.2128  -21.4833  -50.8005 H         1 UNK         0.0600 
    209 H209       -0.5368  -21.7418  -51.2628 H         1 UNK         0.0600 
    210 H210       -3.6165  -24.6930  -49.8202 H         1 UNK         0.3000 
    211 H211       -5.8532  -24.3195  -51.4431 H         1 UNK         0.0600 
    212 H212       -5.3265  -26.5107  -49.3691 H         1 UNK         0.0600 
    213 H213       -6.9087  -26.0484  -49.9848 H         1 UNK         0.0600 
    214 H214       -5.9718  -24.9040  -49.0364 H         1 UNK         0.0600 
    215 H215       -6.4721  -25.1517  -53.2863 H         1 UNK         0.3000 
    216 H216       -6.7317  -26.2690  -55.1389 H         1 UNK         0.0600 
    217 H217       -6.6273  -28.7266  -55.2390 H         1 UNK         0.0600 
    218 H218       -7.4252  -28.2210  -53.7579 H         1 UNK         0.0600 
    219 H219       -5.7601  -28.7999  -53.7144 H         1 UNK         0.0600 
    220 H220       -3.5830  -26.8748  -53.6558 H         1 UNK         0.3000 
    221 H221       -2.1206  -27.6143  -55.9606 H         1 UNK         0.0600 
    222 H222       -1.1915  -26.2877  -53.3551 H         1 UNK         0.0600 
    223 H223       -1.3360  -28.0196  -53.6470 H         1 UNK         0.0600 
    224 H224       -0.1370  -27.0791  -54.5216 H         1 UNK         0.0600 
    225 H225       -2.7376  -24.3739  -54.5547 H         1 UNK         0.3000 
    226 H226       -1.9220  -23.0876  -57.0854 H         1 UNK         0.0600 
    227 H227        0.1587  -23.0987  -55.7442 H         1 UNK         0.0600 
    228 H228       -0.4695  -21.4650  -55.8517 H         1 UNK         0.0600 
    229 H229       -0.6833  -22.3927  -54.3709 H         1 UNK         0.0600 
    230 H230       -4.4302  -23.6790  -55.7165 H         1 UNK         0.3000 
    231 H231       -6.4409  -22.8299  -55.3892 H         1 UNK         0.0600 
    232 H232       -7.1132  -20.8610  -56.6970 H         1 UNK         0.0600 
    233 H233       -5.9978  -21.8326  -57.6411 H         1 UNK         0.0600 
    234 H234       -5.4420  -20.3460  -56.8725 H         1 UNK         0.0600 
    235 H235       -4.5991  -22.4551  -53.2171 H         1 UNK         0.3000 
    236 H236       -4.5177  -21.6306  -51.1600 H         1 UNK         0.0600 
    237 H237       -6.9080  -22.2879  -51.0804 H         1 UNK         0.0600 
    238 H238       -6.6188  -20.8897  -50.0748 H         1 UNK         0.0600 
    239 H239       -7.4015  -20.7005  -51.6438 H         1 UNK         0.0600 
    240 H240       -6.4758  -18.9520  -51.0408 H         1 UNK         0.3000 
    241 H241       -4.2419  -17.0586  -51.2172 H         1 UNK         0.0600 
    242 H242       -6.3355  -16.8618  -54.6209 H         1 UNK         0.3800 
    243 H243       -6.2966  -18.3040  -53.6436 H         1 UNK         0.3800 
    244 H244       -7.1142  -16.4293  -50.4171 H         1 UNK         0.0800 
    245 H245       -6.0156  -17.1670  -49.2986 H         1 UNK         0.0800 
    246 H246       -3.9783  -14.4681  -47.8303 H         1 UNK         0.0800 
    247 H247       -4.3630  -16.1623  -47.9115 H         1 UNK         0.0800 
@<TRIPOS>BOND
     1    1    2 1    
     2    1  127 1    
     3    1  128 1    
     4    1  129 1    
     5    2    3 2    
     6    2    4 am   BACKBONE|DICT|INTERRES
     7    4    5 1    
     8    4  130 1    
     9    5    6 1    
    10    5   65 1    
    11    5  131 1    
    12    6    7 1    
    13    6  132 1    
    14    6  133 1    
    15    7    8 1    
    16    8    9 1    
    17    8  134 1    
    18    8  135 1    
    19    9   10 ar   
    20    9   14 ar   
    21   10   11 ar   
    22   10  136 1    
    23   11   12 ar   
    24   11  126 1    
    25   12   13 ar   
    26   12  137 1    
    27   13   14 ar   
    28   13   15 1    
    29   14  138 1    
    30   15   16 1    
    31   15  139 1    
    32   15  140 1    
    33   16   17 1    
    34   17   18 1    
    35   17  141 1    
    36   17  142 1    
    37   18   19 1    
    38   18   67 1    
    39   18  143 1    
    40   19   20 am   BACKBONE|DICT|INTERRES
    41   19  144 1    
    42   20   21 2    
    43   20   22 1    
    44   22   23 1    
    45   22   24 1    
    46   22  145 1    
    47   23  146 1    
    48   23  147 1    
    49   23  148 1    
    50   24   25 am   BACKBONE|DICT|INTERRES
    51   24  149 1    
    52   25   26 2    
    53   25   27 1    
    54   27   28 1    
    55   27   29 1    
    56   27  150 1    
    57   28  151 1    
    58   28  152 1    
    59   28  153 1    
    60   29   30 am   BACKBONE|DICT|INTERRES
    61   29  154 1    
    62   30   31 2    
    63   30   32 1    
    64   32   33 1    
    65   32   34 1    
    66   32  155 1    
    67   33  156 1    
    68   33  157 1    
    69   33  158 1    
    70   34   35 am   BACKBONE|DICT|INTERRES
    71   34  159 1    
    72   35   36 2    
    73   35   37 1    
    74   37   38 1    
    75   37   39 1    
    76   37  160 1    
    77   38  161 1    
    78   38  162 1    
    79   38  163 1    
    80   39   40 am   BACKBONE|DICT|INTERRES
    81   39  164 1    
    82   40   41 2    
    83   40   42 1    
    84   42   43 1    
    85   42   44 1    
    86   42  165 1    
    87   43  166 1    
    88   43  167 1    
    89   43  168 1    
    90   44   45 am   BACKBONE|DICT|INTERRES
    91   44  169 1    
    92   45   46 2    
    93   45   47 1    
    94   47   48 1    
    95   47   49 1    
    96   47  170 1    
    97   48  171 1    
    98   48  172 1    
    99   48  173 1    
   100   49   50 am   BACKBONE|DICT|INTERRES
   101   49  174 1    
   102   50   51 2    
   103   50   52 1    
   104   52   53 1    
   105   52   54 1    
   106   52  175 1    
   107   53  176 1    
   108   53  177 1    
   109   53  178 1    
   110   54   55 am   BACKBONE|DICT|INTERRES
   111   54  179 1    
   112   55   56 2    
   113   55   57 1    
   114   57   58 1    
   115   57   59 1    
   116   57  180 1    
   117   58  181 1    
   118   58  182 1    
   119   58  183 1    
   120   59   60 am   BACKBONE|DICT|INTERRES
   121   59  184 1    
   122   60   61 2    
   123   60   62 1    
   124   62   63 1    
   125   62   64 1    
   126   62  185 1    
   127   63  186 1    
   128   63  187 1    
   129   63  188 1    
   130   64   65 am   BACKBONE|DICT|INTERRES
   131   64  189 1    
   132   65   66 2    
   133   67   68 2    
   134   67   69 am   BACKBONE|DICT|INTERRES
   135   69   70 1    
   136   69  190 1    
   137   70   71 1    
   138   70   72 1    
   139   70  191 1    
   140   71  192 1    
   141   71  193 1    
   142   71  194 1    
   143   72   73 2    
   144   72   74 am   BACKBONE|DICT|INTERRES
   145   74   75 1    
   146   74  195 1    
   147   75   76 1    
   148   75   77 1    
   149   75  196 1    
   150   76  197 1    
   151   76  198 1    
   152   76  199 1    
   153   77   78 2    
   154   77   79 am   BACKBONE|DICT|INTERRES
   155   79   80 1    
   156   79  200 1    
   157   80   81 1    
   158   80   82 1    
   159   80  201 1    
   160   81  202 1    
   161   81  203 1    
   162   81  204 1    
   163   82   83 2    
   164   82   84 am   BACKBONE|DICT|INTERRES
   165   84   85 1    
   166   84  205 1    
   167   85   86 1    
   168   85   87 1    
   169   85  206 1    
   170   86  207 1    
   171   86  208 1    
   172   86  209 1    
   173   87   88 2    
   174   87   89 am   BACKBONE|DICT|INTERRES
   175   89   90 1    
   176   89  210 1    
   177   90   91 1    
   178   90   92 1    
   179   90  211 1    
   180   91  212 1    
   181   91  213 1    
   182   91  214 1    
   183   92   93 2    
   184   92   94 am   BACKBONE|DICT|INTERRES
   185   94   95 1    
   186   94  215 1    
   187   95   96 1    
   188   95   97 1    
   189   95  216 1    
   190   96  217 1    
   191   96  218 1    
   192   96  219 1    
   193   97   98 2    
   194   97   99 am   BACKBONE|DICT|INTERRES
   195   99  100 1    
   196   99  220 1    
   197  100  101 1    
   198  100  102 1    
   199  100  221 1    
   200  101  222 1    
   201  101  223 1    
   202  101  224 1    
   203  102  103 2    
   204  102  104 am   BACKBONE|DICT|INTERRES
   205  104  105 1    
   206  104  225 1    
   207  105  106 1    
   208  105  107 1    
   209  105  226 1    
   210  106  227 1    
   211  106  228 1    
   212  106  229 1    
   213  107  108 2    
   214  107  109 am   BACKBONE|DICT|INTERRES
   215  109  110 1    
   216  109  230 1    
   217  110  111 1    
   218  110  112 1    
   219  110  231 1    
   220  111  232 1    
   221  111  233 1    
   222  111  234 1    
   223  112  113 2    
   224  112  114 am   BACKBONE|DICT|INTERRES
   225  114  115 1    
   226  114  235 1    
   227  115  116 1    
   228  115  117 1    
   229  115  236 1    
   230  116  237 1    
   231  116  238 1    
   232  116  239 1    
   233  117  118 2    
   234  117  119 am   BACKBONE|DICT|INTERRES
   235  119  120 1    
   236  119  240 1    
   237  120  121 1    
   238  120  124 1    
   239  120  241 1    
   240  121  122 am   BACKBONE|DICT|INTERRES
   241  121  123 2    
   242  122  242 1    
   243  122  243 1    
   244  124  125 1    
   245  124  244 1    
   246  124  245 1    
   247  125  126 1    
   248  126  246 1    
   249  126  247 1    
@<TRIPOS>SUBSTRUCTURE
     1 UNK         1 GROUP             0       ****    0 ROOT    
