@<TRIPOS>MOLECULE
3R540
247   249    1
SMALL
USER_CHARGES


@<TRIPOS>ATOM
      1 CA          6.1670  -15.9680  -45.4532 C.3       0 UNK        -0.1800 
      2 C           4.7532  -15.4142  -45.5422 C.2       0 UNK         0.5000 
      3 O           3.9584  -15.6172  -44.6260 O.2       0 UNK        -0.5000 
      4 N           4.4375  -14.7032  -46.6343 N.am      1 UNK        -0.5000 
      5 CA          3.1123  -14.1360  -46.9326 C.3       1 UNK         0.1400 
      6 C6          3.0494  -13.5695  -48.3779 C.3       23 UNK        -0.0398 
      7 S7          1.4780  -13.9591  -49.2173 S.3       23 UNK        -0.2404 
      8 C8          1.8385  -15.6606  -49.7535 C.3       23 UNK        -0.0205 
      9 C9          0.6373  -16.3401  -50.3908 C.ar      23 UNK        -0.0193 
     10 C10         0.6635  -16.7224  -51.7361 C.ar      23 UNK        -0.1150 
     11 C11        -0.4257  -17.3918  -52.3036 C.ar      23 UNK        -0.0193 
     12 C12        -1.5463  -17.6729  -51.5156 C.ar      23 UNK        -0.1150 
     13 C13        -1.5902  -17.2801  -50.1770 C.ar      23 UNK        -0.0193 
     14 C14        -0.4916  -16.6224  -49.6180 C.ar      23 UNK        -0.1150 
     15 C15        -2.8267  -17.5482  -49.3344 C.3       23 UNK        -0.0205 
     16 S16        -3.0461  -19.3104  -48.9288 S.3       23 UNK        -0.2404 
     17 C17        -1.4491  -19.7365  -48.1520 C.3       23 UNK        -0.0398 
     18 CA         -0.5689  -20.6063  -49.0917 C.3       11 UNK         0.1400 
     19 N           0.8605  -20.3781  -48.8585 N.am      11 UNK        -0.5000 
     20 C           1.8223  -20.4443  -49.7928 C.2       10 UNK         0.5000 
     21 O           1.5939  -20.6907  -50.9762 O.2       10 UNK        -0.5000 
     22 CA          3.2868  -20.2697  -49.3393 C.3       10 UNK         0.1400 
     23 CB          3.7978  -18.8588  -49.6620 C.3       10 UNK        -0.1800 
     24 N           3.4874  -20.5286  -47.9149 N.am      10 UNK        -0.5000 
     25 C           3.3751  -21.7263  -47.3250 C.2       9 UNK         0.5000 
     26 O           3.2092  -22.7774  -47.9428 O.2       9 UNK        -0.5000 
     27 CA          3.4248  -21.7436  -45.7837 C.3       9 UNK         0.1400 
     28 CB          4.8169  -22.1710  -45.2951 C.3       9 UNK        -0.1800 
     29 N           3.0763  -20.4593  -45.1628 N.am      9 UNK        -0.5000 
     30 C           1.8862  -19.8508  -45.2572 C.2       8 UNK         0.5000 
     31 O           0.9369  -20.2966  -45.9046 O.2       8 UNK        -0.5000 
     32 CA          1.7516  -18.4907  -44.5515 C.3       8 UNK         0.1400 
     33 CB          1.3411  -17.4054  -45.5612 C.3       8 UNK        -0.1800 
     34 N           0.7748  -18.5314  -43.4652 N.am      8 UNK        -0.5000 
     35 C           0.8755  -19.2838  -42.3609 C.2       7 UNK         0.5000 
     36 O           1.8436  -20.0073  -42.1239 O.2       7 UNK        -0.5000 
     37 CA         -0.2778  -19.2429  -41.3428 C.3       7 UNK         0.1400 
     38 CB          0.0613  -18.3304  -40.1535 C.3       7 UNK        -0.1800 
     39 N          -1.5653  -18.8456  -41.9218 N.am      7 UNK        -0.5000 
     40 C          -2.7470  -19.3309  -41.5116 C.2       6 UNK         0.5000 
     41 O          -2.8566  -20.1350  -40.5844 O.2       6 UNK        -0.5000 
     42 CA         -4.0323  -18.8341  -42.2096 C.3       6 UNK         0.1400 
     43 CB         -5.0110  -18.2270  -41.1901 C.3       6 UNK        -0.1800 
     44 N          -3.7831  -17.8367  -43.2486 N.am      6 UNK        -0.5000 
     45 C          -3.5764  -18.0982  -44.5438 C.2       5 UNK         0.5000 
     46 O          -3.6067  -19.2306  -45.0286 O.2       5 UNK        -0.5000 
     47 CA         -3.2860  -16.8899  -45.4600 C.3       5 UNK         0.1400 
     48 CB         -4.5292  -16.5315  -46.2870 C.3       5 UNK        -0.1800 
     49 N          -2.8297  -15.6634  -44.7957 N.am      5 UNK        -0.5000 
     50 C          -1.7362  -15.5347  -44.0365 C.2       4 UNK         0.5000 
     51 O          -1.0681  -16.4954  -43.6530 O.2       4 UNK        -0.5000 
     52 CA         -1.3355  -14.0910  -43.6806 C.3       4 UNK         0.1400 
     53 CB         -2.3700  -13.4135  -42.7578 C.3       4 UNK        -0.1800 
     54 N           0.0274  -13.9987  -43.1477 N.am      4 UNK        -0.5000 
     55 C           0.4832  -14.3626  -41.9379 C.2       3 UNK         0.5000 
     56 O          -0.2341  -14.7562  -41.0183 O.2       3 UNK        -0.5000 
     57 CA          2.0067  -14.2691  -41.7006 C.3       3 UNK         0.1400 
     58 CB          2.6239  -15.6738  -41.6150 C.3       3 UNK        -0.1800 
     59 N           2.7108  -13.5051  -42.7337 N.am      3 UNK        -0.5000 
     60 C           2.6707  -12.1684  -42.8497 C.2       2 UNK         0.5000 
     61 O           2.1036  -11.4360  -42.0383 O.2       2 UNK        -0.5000 
     62 CA          3.3512  -11.5335  -44.0819 C.3       2 UNK         0.1400 
     63 CB          4.6953  -10.9028  -43.6865 C.3       2 UNK        -0.1800 
     64 N           3.5770  -12.4612  -45.1929 N.am      2 UNK        -0.5000 
     65 C           2.6270  -13.1083  -45.8842 C.2       1 UNK         0.5000 
     66 O           1.4210  -12.9646  -45.6792 O.2       1 UNK        -0.5000 
     67 C          -0.9103  -22.1161  -49.0292 C.2       11 UNK         0.5000 
     68 O          -1.8955  -22.5011  -48.3954 O.2       11 UNK        -0.5000 
     69 N          -0.0778  -22.9449  -49.6795 N.am      12 UNK        -0.5000 
     70 CA         -0.1382  -24.4061  -49.7918 C.3       12 UNK         0.1400 
     71 CB         -1.2516  -24.8262  -50.7752 C.3       12 UNK        -0.1800 
     72 C          -0.2389  -25.1097  -48.4232 C.2       12 UNK         0.5000 
     73 O           0.7841  -25.3406  -47.7786 O.2       12 UNK        -0.5000 
     74 N          -1.4703  -25.4257  -48.0034 N.am      13 UNK        -0.5000 
     75 CA         -1.8001  -26.0254  -46.7109 C.3       13 UNK         0.1400 
     76 CB         -3.2296  -26.5862  -46.7900 C.3       13 UNK        -0.1800 
     77 C          -1.6760  -25.0496  -45.5220 C.2       13 UNK         0.5000 
     78 O          -1.7173  -25.5058  -44.3790 O.2       13 UNK        -0.5000 
     79 N          -1.5578  -23.7415  -45.8055 N.am      14 UNK        -0.5000 
     80 CA         -1.5708  -22.6222  -44.8564 C.3       14 UNK         0.1400 
     81 CB         -0.3806  -22.6917  -43.8776 C.3       14 UNK        -0.1800 
     82 C          -2.9372  -22.5078  -44.1542 C.2       14 UNK         0.5000 
     83 O          -3.0067  -22.3501  -42.9356 O.2       14 UNK        -0.5000 
     84 N          -4.0046  -22.6330  -44.9504 N.am      15 UNK        -0.5000 
     85 CA         -5.3929  -22.6501  -44.4999 C.3       15 UNK         0.1400 
     86 CB         -5.8123  -24.1005  -44.1903 C.3       15 UNK        -0.1800 
     87 C          -6.2936  -21.9633  -45.5396 C.2       15 UNK         0.5000 
     88 O          -7.3811  -22.4604  -45.8360 O.2       15 UNK        -0.5000 
     89 N          -5.8130  -20.8332  -46.0795 N.am      16 UNK        -0.5000 
     90 CA         -6.4797  -19.9735  -47.0618 C.3       16 UNK         0.1400 
     91 CB         -7.6699  -19.2334  -46.4184 C.3       16 UNK        -0.1800 
     92 C          -6.8383  -20.6957  -48.3756 C.2       16 UNK         0.5000 
     93 O          -7.9741  -20.6132  -48.8469 O.2       16 UNK        -0.5000 
     94 N          -5.8418  -21.3847  -48.9485 N.am      17 UNK        -0.5000 
     95 CA         -5.9272  -22.0490  -50.2510 C.3       17 UNK         0.1400 
     96 CB         -4.6809  -22.9232  -50.4408 C.3       17 UNK        -0.1800 
     97 C          -6.0792  -21.0585  -51.4230 C.2       17 UNK         0.5000 
     98 O          -6.7592  -21.3774  -52.3997 O.2       17 UNK        -0.5000 
     99 N          -5.4620  -19.8730  -51.2899 N.am      18 UNK        -0.5000 
    100 CA        -5.5237  -18.7332  -52.2091 C.3       18 UNK         0.1400 
    101 CB        -6.9035  -18.0473  -52.1035 C.3       18 UNK        -0.1800 
    102 C         -5.1207  -19.1299  -53.6434 C.2       18 UNK         0.5000 
    103 O         -3.9792  -19.5419  -53.8514 O.2       18 UNK        -0.5000 
    104 N         -6.0593  -19.0496  -54.5958 N.am      19 UNK        -0.5000 
    105 CA        -5.8761  -19.4064  -56.0045 C.3       19 UNK         0.1400 
    106 CB        -7.1806  -19.1288  -56.7658 C.3       19 UNK        -0.1800 
    107 C         -5.4142  -20.8585  -56.2397 C.2       19 UNK         0.5000 
    108 O         -4.7030  -21.1080  -57.2135 O.2       19 UNK        -0.5000 
    109 N         -5.7776  -21.7801  -55.3344 N.am      20 UNK        -0.5000 
    110 CA        -5.3293  -23.1744  -55.3668 C.3       20 UNK         0.1400 
    111 CB        -6.1959  -24.0186  -54.4203 C.3       20 UNK        -0.1800 
    112 C         -3.8337  -23.3351  -55.0282 C.2       20 UNK         0.5000 
    113 O         -3.2260  -24.3165  -55.4573 O.2       20 UNK        -0.5000 
    114 N         -3.2650  -22.3731  -54.2880 N.am      21 UNK        -0.5000 
    115 CA        -1.8328  -22.2843  -54.0205 C.3       21 UNK         0.1400 
    116 CB        -1.6020  -21.6500  -52.6409 C.3       21 UNK        -0.1800 
    117 C         -1.1208  -21.4715  -55.1121 C.2       21 UNK         0.5000 
    118 O         -0.0576  -21.8855  -55.5756 O.2       21 UNK        -0.5000 
    119 N         -1.7048  -20.3239  -55.4862 N.am      22 UNK        -0.5000 
    120 CA        -1.1079  -19.3733  -56.4385 C.3       22 UNK         0.1400 
    121 C         -1.1107  -19.8649  -57.9148 C.2       22 UNK         0.5000 
    122 N         -2.0585  -20.6919  -58.3388 N.am      22 UNK        -0.7600 
    123 O         -0.2338  -19.4897  -58.6881 O.2       22 UNK        -0.5000 
    124 C124       -1.7473  -17.9626  -56.3474 C.3       23 UNK        -0.0398 
    125 S125       -1.7608  -17.1216  -54.7185 S.3       23 UNK        -0.2404 
    126 C126       -0.3885  -17.8455  -53.7552 C.3       23 UNK        -0.0205 
    127 H127        6.1379  -17.0546  -45.3745 H         1 UNK         0.0600 
    128 H128        6.7620  -15.7052  -46.3281 H         1 UNK         0.0600 
    129 H129        6.6678  -15.5743  -44.5688 H         1 UNK         0.0600 
    130 H130        5.1460  -14.5577  -47.3395 H         1 UNK         0.3000 
    131 H131        2.4199  -14.9757  -46.8599 H         1 UNK         0.0600 
    132 H132        3.8536  -13.9777  -48.9920 H         1 UNK         0.0800 
    133 H133        3.2017  -12.4886  -48.3966 H         1 UNK         0.0800 
    134 H134        2.1392  -16.2415  -48.8828 H         1 UNK         0.0800 
    135 H135        2.6886  -15.6546  -50.4376 H         1 UNK         0.0800 
    136 H136        1.5375  -16.5135  -52.3367 H         1 UNK         0.1150 
    137 H137       -2.3860  -18.1961  -51.9499 H         1 UNK         0.1150 
    138 H138       -0.5119  -16.3238  -48.5792 H         1 UNK         0.1150 
    139 H139       -2.7785  -16.9701  -48.4141 H         1 UNK         0.0800 
    140 H140       -3.7098  -17.1913  -49.8647 H         1 UNK         0.0800 
    141 H141       -1.6348  -20.2244  -47.1952 H         1 UNK         0.0800 
    142 H142       -0.9314  -18.8131  -47.8937 H         1 UNK         0.0800 
    143 H143       -0.7805  -20.2916  -50.1157 H         1 UNK         0.0600 
    144 H144        1.1229  -20.2564  -47.8857 H         1 UNK         0.3000 
    145 H145        3.8860  -20.9860  -49.9054 H         1 UNK         0.0600 
    146 H146        4.8776  -18.7928  -49.5282 H         1 UNK         0.0600 
    147 H147        3.5801  -18.5825  -50.6948 H         1 UNK         0.0600 
    148 H148        3.3376  -18.1156  -49.0142 H         1 UNK         0.0600 
    149 H149        3.6461  -19.7252  -47.3261 H         1 UNK         0.3000 
    150 H150        2.7002  -22.4866  -45.4461 H         1 UNK         0.0600 
    151 H151        5.0988  -23.1377  -45.7146 H         1 UNK         0.0600 
    152 H152        4.8406  -22.2710  -44.2097 H         1 UNK         0.0600 
    153 H153        5.5836  -21.4512  -45.5843 H         1 UNK         0.0600 
    154 H154        3.7932  -20.0335  -44.5930 H         1 UNK         0.3000 
    155 H155        2.7177  -18.2103  -44.1269 H         1 UNK         0.0600 
    156 H156        0.3490  -17.5909  -45.9747 H         1 UNK         0.0600 
    157 H157        2.0431  -17.3607  -46.3944 H         1 UNK         0.0600 
    158 H158        1.3277  -16.4208  -45.0933 H         1 UNK         0.0600 
    159 H159       -0.0048  -17.8854  -43.5616 H         1 UNK         0.3000 
    160 H160       -0.3601  -20.2654  -40.9673 H         1 UNK         0.0600 
    161 H161       -0.6709  -18.4370  -39.3531 H         1 UNK         0.0600 
    162 H162        0.0776  -17.2838  -40.4521 H         1 UNK         0.0600 
    163 H163        1.0390  -18.5716  -39.7343 H         1 UNK         0.0600 
    164 H164       -1.5460  -18.1435  -42.6529 H         1 UNK         0.3000 
    165 H165       -4.5105  -19.7092  -42.6549 H         1 UNK         0.0600 
    166 H166       -5.9357  -17.9095  -41.6724 H         1 UNK         0.0600 
    167 H167       -5.2821  -18.9531  -40.4226 H         1 UNK         0.0600 
    168 H168       -4.5798  -17.3612  -40.6860 H         1 UNK         0.0600 
    169 H169       -3.7209  -16.8761  -42.9447 H         1 UNK         0.3000 
    170 H170       -2.4883  -17.1986  -46.1375 H         1 UNK         0.0600 
    171 H171       -4.7997  -17.3448  -46.9540 H         1 UNK         0.0600 
    172 H172       -5.3905  -16.3204  -45.6517 H         1 UNK         0.0600 
    173 H173       -4.3542  -15.6579  -46.9154 H         1 UNK         0.0600 
    174 H174       -3.3377  -14.8257  -45.0401 H         1 UNK         0.3000 
    175 H175       -1.3112  -13.5328  -44.6178 H         1 UNK         0.0600 
    176 H176       -2.5616  -13.9973  -41.8572 H         1 UNK         0.0600 
    177 H177       -2.0360  -12.4222  -42.4512 H         1 UNK         0.0600 
    178 H178       -3.3259  -13.2872  -43.2666 H         1 UNK         0.0600 
    179 H179        0.7152  -13.6976  -43.8285 H         1 UNK         0.3000 
    180 H180        2.1608  -13.7727  -40.7404 H         1 UNK         0.0600 
    181 H181        2.4155  -16.2569  -42.5121 H         1 UNK         0.0600 
    182 H182        2.2225  -16.2256  -40.7651 H         1 UNK         0.0600 
    183 H183        3.7055  -15.6269  -41.4885 H         1 UNK         0.0600 
    184 H184        3.1955  -14.0501  -43.4389 H         1 UNK         0.3000 
    185 H185        2.6923  -10.7406  -44.4415 H         1 UNK         0.0600 
    186 H186        4.5664  -10.1779  -42.8815 H         1 UNK         0.0600 
    187 H187        5.4053  -11.6550  -43.3401 H         1 UNK         0.0600 
    188 H188        5.1468  -10.3748  -44.5266 H         1 UNK         0.0600 
    189 H189        4.5405  -12.6642  -45.4158 H         1 UNK         0.3000 
    190 H190        0.7069  -22.5123  -50.1505 H         1 UNK         0.3000 
    191 H191        0.8128  -24.7202  -50.2245 H         1 UNK         0.0600 
    192 H192       -2.2264  -24.4315  -50.4913 H         1 UNK         0.0600 
    193 H193       -1.3370  -25.9121  -50.8331 H         1 UNK         0.0600 
    194 H194       -1.0320  -24.4728  -51.7820 H         1 UNK         0.0600 
    195 H195       -2.2499  -25.1568  -48.5857 H         1 UNK         0.3000 
    196 H196       -1.1133  -26.8544  -46.5284 H         1 UNK         0.0600 
    197 H197       -3.5097  -27.0802  -45.8586 H         1 UNK         0.0600 
    198 H198       -3.3211  -27.3245  -47.5869 H         1 UNK         0.0600 
    199 H199       -3.9609  -25.7982  -46.9751 H         1 UNK         0.0600 
    200 H200       -1.5718  -23.4721  -46.7857 H         1 UNK         0.3000 
    201 H201       -1.4522  -21.7134  -45.4456 H         1 UNK         0.0600 
    202 H202        0.5638  -22.7768  -44.4131 H         1 UNK         0.0600 
    203 H203       -0.4574  -23.5355  -43.1922 H         1 UNK         0.0600 
    204 H204       -0.3305  -21.7877  -43.2722 H         1 UNK         0.0600 
    205 H205       -3.8577  -22.7521  -45.9428 H         1 UNK         0.3000 
    206 H206       -5.4881  -22.0621  -43.5847 H         1 UNK         0.0600 
    207 H207       -5.1682  -24.5434  -43.4304 H         1 UNK         0.0600 
    208 H208       -6.8343  -24.1432  -43.8118 H         1 UNK         0.0600 
    209 H209       -5.7608  -24.7300  -45.0794 H         1 UNK         0.0600 
    210 H210       -4.9169  -20.4874  -45.7433 H         1 UNK         0.3000 
    211 H211       -5.7453  -19.2256  -47.3477 H         1 UNK         0.0600 
    212 H212       -8.4624  -19.9211  -46.1220 H         1 UNK         0.0600 
    213 H213       -8.1035  -18.5125  -47.1125 H         1 UNK         0.0600 
    214 H214       -7.3555  -18.6808  -45.5329 H         1 UNK         0.0600 
    215 H215       -4.9411  -21.4011  -48.4919 H         1 UNK         0.3000 
    216 H216       -6.8060  -22.6971  -50.2489 H         1 UNK         0.0600 
    217 H217       -4.6766  -23.4084  -51.4173 H         1 UNK         0.0600 
    218 H218       -4.6307  -23.7074  -49.6853 H         1 UNK         0.0600 
    219 H219       -3.7720  -22.3285  -50.3634 H         1 UNK         0.0600 
    220 H220       -4.8868  -19.7387  -50.4695 H         1 UNK         0.3000 
    221 H221       -4.7743  -18.0163  -51.8744 H         1 UNK         0.0600 
    222 H222       -6.9546  -17.1606  -52.7368 H         1 UNK         0.0600 
    223 H223       -7.7190  -18.7131  -52.3883 H         1 UNK         0.0600 
    224 H224       -7.0934  -17.7196  -51.0812 H         1 UNK         0.0600 
    225 H225       -6.9812  -18.7367  -54.3292 H         1 UNK         0.3000 
    226 H226       -5.1013  -18.7518  -56.4071 H         1 UNK         0.0600 
    227 H227       -7.4662  -18.0794  -56.6913 H         1 UNK         0.0600 
    228 H228       -7.0711  -19.3594  -57.8264 H         1 UNK         0.0600 
    229 H229       -8.0054  -19.7307  -56.3821 H         1 UNK         0.0600 
    230 H230       -6.3251  -21.4958  -54.5295 H         1 UNK         0.3000 
    231 H231       -5.4772  -23.5519  -56.3809 H         1 UNK         0.0600 
    232 H232       -7.2547  -23.9226  -54.6610 H         1 UNK         0.0600 
    233 H233       -6.0602  -23.7279  -53.3794 H         1 UNK         0.0600 
    234 H234       -5.9391  -25.0757  -54.4982 H         1 UNK         0.0600 
    235 H235       -3.8185  -21.5665  -54.0233 H         1 UNK         0.3000 
    236 H236       -1.3968  -23.2854  -54.0036 H         1 UNK         0.0600 
    237 H237       -0.5370  -21.5982  -52.4141 H         1 UNK         0.0600 
    238 H238       -1.9984  -20.6373  -52.5757 H         1 UNK         0.0600 
    239 H239       -2.0721  -22.2408  -51.8592 H         1 UNK         0.0600 
    240 H240       -2.5555  -20.0259  -55.0171 H         1 UNK         0.3000 
    241 H241       -0.0558  -19.2659  -56.1682 H         1 UNK         0.0600 
    242 H242       -2.0437  -21.0060  -59.2958 H         1 UNK         0.3800 
    243 H243       -2.8414  -20.9496  -57.7456 H         1 UNK         0.3800 
    244 H244       -1.2402  -17.2868  -57.0385 H         1 UNK         0.0800 
    245 H245       -2.7819  -18.0080  -56.6899 H         1 UNK         0.0800 
    246 H246       -0.4391  -18.9311  -53.7467 H         1 UNK         0.0800 
    247 H247        0.5584  -17.5781  -54.2262 H         1 UNK         0.0800 
@<TRIPOS>BOND
     1    1    2 1    
     2    1  127 1    
     3    1  128 1    
     4    1  129 1    
     5    2    3 2    
     6    2    4 am   BACKBONE|DICT|INTERRES
     7    4    5 1    
     8    4  130 1    
     9    5    6 1    
    10    5   65 1    
    11    5  131 1    
    12    6    7 1    
    13    6  132 1    
    14    6  133 1    
    15    7    8 1    
    16    8    9 1    
    17    8  134 1    
    18    8  135 1    
    19    9   10 ar   
    20    9   14 ar   
    21   10   11 ar   
    22   10  136 1    
    23   11   12 ar   
    24   11  126 1    
    25   12   13 ar   
    26   12  137 1    
    27   13   14 ar   
    28   13   15 1    
    29   14  138 1    
    30   15   16 1    
    31   15  139 1    
    32   15  140 1    
    33   16   17 1    
    34   17   18 1    
    35   17  141 1    
    36   17  142 1    
    37   18   19 1    
    38   18   67 1    
    39   18  143 1    
    40   19   20 am   BACKBONE|DICT|INTERRES
    41   19  144 1    
    42   20   21 2    
    43   20   22 1    
    44   22   23 1    
    45   22   24 1    
    46   22  145 1    
    47   23  146 1    
    48   23  147 1    
    49   23  148 1    
    50   24   25 am   BACKBONE|DICT|INTERRES
    51   24  149 1    
    52   25   26 2    
    53   25   27 1    
    54   27   28 1    
    55   27   29 1    
    56   27  150 1    
    57   28  151 1    
    58   28  152 1    
    59   28  153 1    
    60   29   30 am   BACKBONE|DICT|INTERRES
    61   29  154 1    
    62   30   31 2    
    63   30   32 1    
    64   32   33 1    
    65   32   34 1    
    66   32  155 1    
    67   33  156 1    
    68   33  157 1    
    69   33  158 1    
    70   34   35 am   BACKBONE|DICT|INTERRES
    71   34  159 1    
    72   35   36 2    
    73   35   37 1    
    74   37   38 1    
    75   37   39 1    
    76   37  160 1    
    77   38  161 1    
    78   38  162 1    
    79   38  163 1    
    80   39   40 am   BACKBONE|DICT|INTERRES
    81   39  164 1    
    82   40   41 2    
    83   40   42 1    
    84   42   43 1    
    85   42   44 1    
    86   42  165 1    
    87   43  166 1    
    88   43  167 1    
    89   43  168 1    
    90   44   45 am   BACKBONE|DICT|INTERRES
    91   44  169 1    
    92   45   46 2    
    93   45   47 1    
    94   47   48 1    
    95   47   49 1    
    96   47  170 1    
    97   48  171 1    
    98   48  172 1    
    99   48  173 1    
   100   49   50 am   BACKBONE|DICT|INTERRES
   101   49  174 1    
   102   50   51 2    
   103   50   52 1    
   104   52   53 1    
   105   52   54 1    
   106   52  175 1    
   107   53  176 1    
   108   53  177 1    
   109   53  178 1    
   110   54   55 am   BACKBONE|DICT|INTERRES
   111   54  179 1    
   112   55   56 2    
   113   55   57 1    
   114   57   58 1    
   115   57   59 1    
   116   57  180 1    
   117   58  181 1    
   118   58  182 1    
   119   58  183 1    
   120   59   60 am   BACKBONE|DICT|INTERRES
   121   59  184 1    
   122   60   61 2    
   123   60   62 1    
   124   62   63 1    
   125   62   64 1    
   126   62  185 1    
   127   63  186 1    
   128   63  187 1    
   129   63  188 1    
   130   64   65 am   BACKBONE|DICT|INTERRES
   131   64  189 1    
   132   65   66 2    
   133   67   68 2    
   134   67   69 am   BACKBONE|DICT|INTERRES
   135   69   70 1    
   136   69  190 1    
   137   70   71 1    
   138   70   72 1    
   139   70  191 1    
   140   71  192 1    
   141   71  193 1    
   142   71  194 1    
   143   72   73 2    
   144   72   74 am   BACKBONE|DICT|INTERRES
   145   74   75 1    
   146   74  195 1    
   147   75   76 1    
   148   75   77 1    
   149   75  196 1    
   150   76  197 1    
   151   76  198 1    
   152   76  199 1    
   153   77   78 2    
   154   77   79 am   BACKBONE|DICT|INTERRES
   155   79   80 1    
   156   79  200 1    
   157   80   81 1    
   158   80   82 1    
   159   80  201 1    
   160   81  202 1    
   161   81  203 1    
   162   81  204 1    
   163   82   83 2    
   164   82   84 am   BACKBONE|DICT|INTERRES
   165   84   85 1    
   166   84  205 1    
   167   85   86 1    
   168   85   87 1    
   169   85  206 1    
   170   86  207 1    
   171   86  208 1    
   172   86  209 1    
   173   87   88 2    
   174   87   89 am   BACKBONE|DICT|INTERRES
   175   89   90 1    
   176   89  210 1    
   177   90   91 1    
   178   90   92 1    
   179   90  211 1    
   180   91  212 1    
   181   91  213 1    
   182   91  214 1    
   183   92   93 2    
   184   92   94 am   BACKBONE|DICT|INTERRES
   185   94   95 1    
   186   94  215 1    
   187   95   96 1    
   188   95   97 1    
   189   95  216 1    
   190   96  217 1    
   191   96  218 1    
   192   96  219 1    
   193   97   98 2    
   194   97   99 am   BACKBONE|DICT|INTERRES
   195   99  100 1    
   196   99  220 1    
   197  100  101 1    
   198  100  102 1    
   199  100  221 1    
   200  101  222 1    
   201  101  223 1    
   202  101  224 1    
   203  102  103 2    
   204  102  104 am   BACKBONE|DICT|INTERRES
   205  104  105 1    
   206  104  225 1    
   207  105  106 1    
   208  105  107 1    
   209  105  226 1    
   210  106  227 1    
   211  106  228 1    
   212  106  229 1    
   213  107  108 2    
   214  107  109 am   BACKBONE|DICT|INTERRES
   215  109  110 1    
   216  109  230 1    
   217  110  111 1    
   218  110  112 1    
   219  110  231 1    
   220  111  232 1    
   221  111  233 1    
   222  111  234 1    
   223  112  113 2    
   224  112  114 am   BACKBONE|DICT|INTERRES
   225  114  115 1    
   226  114  235 1    
   227  115  116 1    
   228  115  117 1    
   229  115  236 1    
   230  116  237 1    
   231  116  238 1    
   232  116  239 1    
   233  117  118 2    
   234  117  119 am   BACKBONE|DICT|INTERRES
   235  119  120 1    
   236  119  240 1    
   237  120  121 1    
   238  120  124 1    
   239  120  241 1    
   240  121  122 am   BACKBONE|DICT|INTERRES
   241  121  123 2    
   242  122  242 1    
   243  122  243 1    
   244  124  125 1    
   245  124  244 1    
   246  124  245 1    
   247  125  126 1    
   248  126  246 1    
   249  126  247 1    
@<TRIPOS>SUBSTRUCTURE
     1 UNK         1 GROUP             0       ****    0 ROOT    
