@<TRIPOS>MOLECULE
3R540
247   249    1
SMALL
USER_CHARGES


@<TRIPOS>ATOM
      1 CA         -1.3380   -7.7195  -46.7206 C.3       0 UNK        -0.1800 
      2 C          -0.6733   -9.0480  -47.0478 C.2       0 UNK         0.5000 
      3 O           0.2768   -9.4416  -46.3709 O.2       0 UNK        -0.5000 
      4 N          -1.1766   -9.7550  -48.0685 N.am      1 UNK        -0.5000 
      5 CA         -0.6643  -11.0537  -48.5264 C.3       1 UNK         0.1400 
      6 C6         -1.3435  -11.5238  -49.8366 C.3       23 UNK        -0.0398 
      7 S7         -3.1521  -11.7688  -49.6930 S.3       23 UNK        -0.2404 
      8 C8         -3.3926  -13.3828  -50.5015 C.3       23 UNK        -0.0205 
      9 C9         -2.7621  -14.5464  -49.7451 C.ar      23 UNK        -0.0193 
     10 C10        -1.6092  -15.1611  -50.2410 C.ar      23 UNK        -0.1150 
     11 C11        -1.0787  -16.2899  -49.6120 C.ar      23 UNK        -0.0193 
     12 C12        -1.7099  -16.8059  -48.4779 C.ar      23 UNK        -0.1150 
     13 C13        -2.8367  -16.1771  -47.9408 C.ar      23 UNK        -0.0193 
     14 C14        -3.3606  -15.0491  -48.5849 C.ar      23 UNK        -0.1150 
     15 C15        -3.5182  -16.7340  -46.6958 C.3       23 UNK        -0.0205 
     16 S16        -2.4427  -16.7430  -45.2140 S.3       23 UNK        -0.2404 
     17 C17        -1.4885  -18.3105  -45.2556 C.3       23 UNK        -0.0398 
     18 CA         -2.2595  -19.6013  -45.6281 C.3       11 UNK         0.1400 
     19 N          -1.3579  -20.7546  -45.7852 N.am      11 UNK        -0.5000 
     20 C          -1.7330  -21.9620  -46.2442 C.2       10 UNK         0.5000 
     21 O          -2.9030  -22.2358  -46.5203 O.2       10 UNK        -0.5000 
     22 CA         -0.6457  -23.0435  -46.4057 C.3       10 UNK         0.1400 
     23 CB         -1.0107  -24.1197  -47.4500 C.3       10 UNK        -0.1800 
     24 N           0.6894  -22.4974  -46.6564 N.am      10 UNK        -0.5000 
     25 C           1.1055  -21.7741  -47.7087 C.2       9 UNK         0.5000 
     26 O           0.3912  -21.4987  -48.6723 O.2       9 UNK        -0.5000 
     27 CA          2.5522  -21.2366  -47.6620 C.3       9 UNK         0.1400 
     28 CB          2.5741  -19.7163  -47.8958 C.3       9 UNK        -0.1800 
     29 N           3.1891  -21.5136  -46.3718 N.am      9 UNK        -0.5000 
     30 C           4.0189  -22.5342  -46.1140 C.2       8 UNK         0.5000 
     31 O           4.4261  -23.3184  -46.9709 O.2       8 UNK        -0.5000 
     32 CA          4.4408  -22.7339  -44.6414 C.3       8 UNK         0.1400 
     33 CB          5.7939  -22.0567  -44.3759 C.3       8 UNK        -0.1800 
     34 N           3.4594  -22.2257  -43.6770 N.am      8 UNK        -0.5000 
     35 C           2.2165  -22.7029  -43.5138 C.2       7 UNK         0.5000 
     36 O           1.7843  -23.6860  -44.1131 O.2       7 UNK        -0.5000 
     37 CA          1.2692  -21.9073  -42.5912 C.3       7 UNK         0.1400 
     38 CB          1.2204  -22.5366  -41.1918 C.3       7 UNK        -0.1800 
     39 N           1.6160  -20.4867  -42.4714 N.am      7 UNK        -0.5000 
     40 C           1.6506  -19.6133  -43.4865 C.2       6 UNK         0.5000 
     41 O           1.3366  -19.9085  -44.6453 O.2       6 UNK        -0.5000 
     42 CA          2.1563  -18.1994  -43.1585 C.3       6 UNK         0.1400 
     43 CB          3.5380  -18.2308  -42.4733 C.3       6 UNK        -0.1800 
     44 N           2.2465  -17.4250  -44.3918 N.am      6 UNK        -0.5000 
     45 C           2.1975  -16.0922  -44.4770 C.2       5 UNK         0.5000 
     46 O           2.0407  -15.3550  -43.5011 O.2       5 UNK        -0.5000 
     47 CA          2.3502  -15.5067  -45.8960 C.3       5 UNK         0.1400 
     48 CB          1.1671  -15.9064  -46.7897 C.3       5 UNK        -0.1800 
     49 N           2.4510  -14.0491  -45.8937 N.am      5 UNK        -0.5000 
     50 C           3.5303  -13.3438  -45.5329 C.2       4 UNK         0.5000 
     51 O           4.6115  -13.8496  -45.2274 O.2       4 UNK        -0.5000 
     52 CA          3.3698  -11.8117  -45.5064 C.3       4 UNK         0.1400 
     53 CB          3.4755  -11.2229  -46.9220 C.3       4 UNK        -0.1800 
     54 N           2.1009  -11.4002  -44.9063 N.am      4 UNK        -0.5000 
     55 C           1.8172  -11.4764  -43.5978 C.2       3 UNK         0.5000 
     56 O           2.6320  -11.8156  -42.7389 O.2       3 UNK        -0.5000 
     57 CA          0.3814  -11.1163  -43.1759 C.3       3 UNK         0.1400 
     58 CB          0.2493   -9.6100  -42.9008 C.3       3 UNK        -0.1800 
     59 N          -0.5884  -11.5167  -44.1955 N.am      3 UNK        -0.5000 
     60 C          -1.1110  -12.7480  -44.2910 C.2       2 UNK         0.5000 
     61 O          -0.9204  -13.6332  -43.4581 O.2       2 UNK        -0.5000 
     62 CA         -2.0000  -13.0491  -45.5134 C.3       2 UNK         0.1400 
     63 CB         -3.4864  -13.0293  -45.1268 C.3       2 UNK        -0.1800 
     64 N          -1.7895  -12.1307  -46.6296 N.am      2 UNK        -0.5000 
     65 C          -0.7126  -12.1350  -47.4264 C.2       1 UNK         0.5000 
     66 O           0.2413  -12.8959  -47.2810 O.2       1 UNK        -0.5000 
     67 C          -3.4240  -19.8810  -44.6504 C.2       11 UNK         0.5000 
     68 O          -4.5410  -19.4208  -44.8870 O.2       11 UNK        -0.5000 
     69 N          -3.1690  -20.7127  -43.6298 N.am      12 UNK        -0.5000 
     70 CA         -4.1621  -21.2185  -42.6764 C.3       12 UNK         0.1400 
     71 CB         -3.4344  -22.0532  -41.6109 C.3       12 UNK        -0.1800 
     72 C          -5.3014  -22.0410  -43.3211 C.2       12 UNK         0.5000 
     73 O          -6.3670  -22.1680  -42.7174 O.2       12 UNK        -0.5000 
     74 N          -5.0642  -22.5639  -44.5313 N.am      13 UNK        -0.5000 
     75 CA         -6.0242  -23.2910  -45.3578 C.3       13 UNK         0.1400 
     76 CB         -5.4496  -24.6899  -45.6456 C.3       13 UNK        -0.1800 
     77 C          -6.3372  -22.5241  -46.6602 C.2       13 UNK         0.5000 
     78 O          -6.7855  -23.1426  -47.6252 O.2       13 UNK        -0.5000 
     79 N          -6.0747  -21.2066  -46.6918 N.am      14 UNK        -0.5000 
     80 CA         -6.2520  -20.2977  -47.8332 C.3       14 UNK         0.1400 
     81 CB         -7.7482  -20.1257  -48.1693 C.3       14 UNK        -0.1800 
     82 C          -5.4036  -20.7122  -49.0540 C.2       14 UNK         0.5000 
     83 O          -5.9188  -20.8171  -50.1685 O.2       14 UNK        -0.5000 
     84 N          -4.1193  -20.9982  -48.7958 N.am      15 UNK        -0.5000 
     85 CA         -3.1295  -21.5487  -49.7286 C.3       15 UNK         0.1400 
     86 CB         -2.8029  -20.5517  -50.8593 C.3       15 UNK        -0.1800 
     87 C          -3.5342  -22.9517  -50.2242 C.2       15 UNK         0.5000 
     88 O          -3.3694  -23.2645  -51.4039 O.2       15 UNK        -0.5000 
     89 N          -4.0912  -23.7524  -49.3012 N.am      16 UNK        -0.5000 
     90 CA         -4.7122  -25.0655  -49.5116 C.3       16 UNK         0.1400 
     91 CB         -3.6480  -26.1183  -49.8809 C.3       16 UNK        -0.1800 
     92 C          -5.8668  -24.9918  -50.5317 C.2       16 UNK         0.5000 
     93 O          -5.8779  -25.7379  -51.5095 O.2       16 UNK        -0.5000 
     94 N          -6.7841  -24.0375  -50.3167 N.am      17 UNK        -0.5000 
     95 CA         -7.8612  -23.6287  -51.2281 C.3       17 UNK         0.1400 
     96 CB         -8.9580  -24.7112  -51.2906 C.3       17 UNK        -0.1800 
     97 C          -7.3207  -23.2287  -52.6202 C.2       17 UNK         0.5000 
     98 O          -7.8541  -23.6522  -53.6469 O.2       17 UNK        -0.5000 
     99 N          -6.2263  -22.4557  -52.6040 N.am      18 UNK        -0.5000 
    100 CA        -5.3959  -22.0081  -53.7264 C.3       18 UNK         0.1400 
    101 CB        -6.2123  -21.1423  -54.7069 C.3       18 UNK        -0.1800 
    102 C         -4.6039  -23.1165  -54.4582 C.2       18 UNK         0.5000 
    103 O         -3.8846  -22.7926  -55.4045 O.2       18 UNK        -0.5000 
    104 N         -4.6988  -24.3840  -54.0266 N.am      19 UNK        -0.5000 
    105 CA        -4.0333  -25.5194  -54.6725 C.3       19 UNK         0.1400 
    106 CB        -4.6903  -26.8350  -54.2303 C.3       19 UNK        -0.1800 
    107 C         -2.5141  -25.5719  -54.4258 C.2       19 UNK         0.5000 
    108 O         -1.7971  -26.1254  -55.2607 O.2       19 UNK        -0.5000 
    109 N         -2.0383  -24.9984  -53.3097 N.am      20 UNK        -0.5000 
    110 CA        -0.6079  -24.8958  -53.0013 C.3       20 UNK         0.1400 
    111 CB        -0.4043  -24.7498  -51.4837 C.3       20 UNK        -0.1800 
    112 C          0.0647  -23.7242  -53.7385 C.2       20 UNK         0.5000 
    113 O          1.2935  -23.6938  -53.8206 O.2       20 UNK        -0.5000 
    114 N         -0.7425  -22.7663  -54.2250 N.am      21 UNK        -0.5000 
    115 CA        -0.3517  -21.5538  -54.9566 C.3       21 UNK         0.1400 
    116 CB         0.1300  -21.9251  -56.3738 C.3       21 UNK        -0.1800 
    117 C          0.6630  -20.6717  -54.1935 C.2       21 UNK         0.5000 
    118 O          1.4944  -20.0079  -54.8149 O.2       21 UNK        -0.5000 
    119 N          0.5837  -20.7112  -52.8561 N.am      22 UNK        -0.5000 
    120 CA         1.5090  -20.0823  -51.8986 C.3       22 UNK         0.1400 
    121 C          2.9342  -20.7179  -51.8617 C.2       22 UNK         0.5000 
    122 N          3.1619  -21.8930  -52.4378 N.am      22 UNK        -0.7600 
    123 O          3.8500  -20.1551  -51.2687 O.2       22 UNK        -0.5000 
    124 C124        1.5431  -18.5315  -52.0040 C.3       23 UNK        -0.0398 
    125 S125       -0.1009  -17.7866  -51.7282 S.3       23 UNK        -0.2404 
    126 C126        0.1864  -16.9400  -50.1466 C.3       23 UNK        -0.0205 
    127 H127       -0.6179   -6.9073  -46.8181 H         1 UNK         0.0600 
    128 H128       -1.7066   -7.7284  -45.6948 H         1 UNK         0.0600 
    129 H129       -2.1783   -7.5124  -47.3835 H         1 UNK         0.0600 
    130 H130       -1.9697   -9.3948  -48.5806 H         1 UNK         0.3000 
    131 H131        0.3926  -10.9007  -48.7556 H         1 UNK         0.0600 
    132 H132       -1.1695  -10.7856  -50.6204 H         1 UNK         0.0800 
    133 H133       -0.8669  -12.4374  -50.1928 H         1 UNK         0.0800 
    134 H134       -4.4638  -13.5650  -50.5978 H         1 UNK         0.0800 
    135 H135       -3.0058  -13.3312  -51.5206 H         1 UNK         0.0800 
    136 H136       -1.1335  -14.7782  -51.1330 H         1 UNK         0.1150 
    137 H137       -1.3129  -17.6924  -48.0093 H         1 UNK         0.1150 
    138 H138       -4.2492  -14.5700  -48.1990 H         1 UNK         0.1150 
    139 H139       -4.3824  -16.1155  -46.4496 H         1 UNK         0.0800 
    140 H140       -3.9310  -17.7165  -46.9107 H         1 UNK         0.0800 
    141 H141       -1.0360  -18.4286  -44.2703 H         1 UNK         0.0800 
    142 H142       -0.6494  -18.1754  -45.9356 H         1 UNK         0.0800 
    143 H143       -2.6969  -19.4588  -46.6155 H         1 UNK         0.0600 
    144 H144       -0.3800  -20.5971  -45.5645 H         1 UNK         0.3000 
    145 H145       -0.5920  -23.5427  -45.4379 H         1 UNK         0.0600 
    146 H146       -0.2544  -24.9036  -47.4830 H         1 UNK         0.0600 
    147 H147       -1.9593  -24.6002  -47.2079 H         1 UNK         0.0600 
    148 H148       -1.1000  -23.7059  -48.4534 H         1 UNK         0.0600 
    149 H149        1.3645  -22.6945  -45.9282 H         1 UNK         0.3000 
    150 H150        3.1077  -21.7156  -48.4707 H         1 UNK         0.0600 
    151 H151        2.1922  -19.4660  -48.8851 H         1 UNK         0.0600 
    152 H152        3.5881  -19.3212  -47.8343 H         1 UNK         0.0600 
    153 H153        1.9605  -19.1901  -47.1658 H         1 UNK         0.0600 
    154 H154        2.8703  -20.9393  -45.6010 H         1 UNK         0.3000 
    155 H155        4.5539  -23.8070  -44.4738 H         1 UNK         0.0600 
    156 H156        6.5582  -22.4295  -45.0591 H         1 UNK         0.0600 
    157 H157        6.1424  -22.2547  -43.3621 H         1 UNK         0.0600 
    158 H158        5.7356  -20.9754  -44.5069 H         1 UNK         0.0600 
    159 H159        3.7364  -21.4217  -43.1339 H         1 UNK         0.3000 
    160 H160        0.2696  -21.9681  -43.0263 H         1 UNK         0.0600 
    161 H161        2.1874  -22.4792  -40.6905 H         1 UNK         0.0600 
    162 H162        0.9402  -23.5895  -41.2457 H         1 UNK         0.0600 
    163 H163        0.4837  -22.0387  -40.5608 H         1 UNK         0.0600 
    164 H164        1.8804  -20.1715  -41.5490 H         1 UNK         0.3000 
    165 H165        1.4251  -17.7373  -42.4921 H         1 UNK         0.0600 
    166 H166        3.9012  -17.2230  -42.2710 H         1 UNK         0.0600 
    167 H167        3.5021  -18.7491  -41.5148 H         1 UNK         0.0600 
    168 H168        4.2822  -18.7315  -43.0940 H         1 UNK         0.0600 
    169 H169        2.3017  -17.9867  -45.2303 H         1 UNK         0.3000 
    170 H170        3.2652  -15.9131  -46.3317 H         1 UNK         0.0600 
    171 H171        1.1204  -16.9844  -46.9329 H         1 UNK         0.0600 
    172 H172        0.2161  -15.5852  -46.3634 H         1 UNK         0.0600 
    173 H173        1.2545  -15.4568  -47.7786 H         1 UNK         0.0600 
    174 H174        1.6132  -13.5477  -46.1767 H         1 UNK         0.3000 
    175 H175        4.1838  -11.3987  -44.9068 H         1 UNK         0.0600 
    176 H176        3.4125  -10.1347  -46.9016 H         1 UNK         0.0600 
    177 H177        4.4280  -11.4863  -47.3834 H         1 UNK         0.0600 
    178 H178        2.6821  -11.5906  -47.5733 H         1 UNK         0.0600 
    179 H179        1.3910  -11.0475  -45.5369 H         1 UNK         0.3000 
    180 H180        0.1644  -11.6433  -42.2442 H         1 UNK         0.0600 
    181 H181        0.4894   -9.0112  -43.7793 H         1 UNK         0.0600 
    182 H182        0.9257   -9.3018  -42.1027 H         1 UNK         0.0600 
    183 H183       -0.7624   -9.3538  -42.5862 H         1 UNK         0.0600 
    184 H184       -0.7654  -10.8526  -44.9369 H         1 UNK         0.3000 
    185 H185       -1.7473  -14.0514  -45.8604 H         1 UNK         0.0600 
    186 H186       -3.6893  -13.7407  -44.3251 H         1 UNK         0.0600 
    187 H187       -3.7996  -12.0436  -44.7808 H         1 UNK         0.0600 
    188 H188       -4.1168  -13.3073  -45.9714 H         1 UNK         0.0600 
    189 H189       -2.5239  -11.4646  -46.8200 H         1 UNK         0.3000 
    190 H190       -2.2289  -21.0622  -43.5237 H         1 UNK         0.3000 
    191 H191       -4.6208  -20.3572  -42.1867 H         1 UNK         0.0600 
    192 H192       -2.9364  -22.9189  -42.0494 H         1 UNK         0.0600 
    193 H193       -2.6824  -21.4607  -41.0892 H         1 UNK         0.0600 
    194 H194       -4.1329  -22.4227  -40.8589 H         1 UNK         0.0600 
    195 H195       -4.1668  -22.3922  -44.9714 H         1 UNK         0.3000 
    196 H196       -6.9726  -23.4127  -44.8313 H         1 UNK         0.0600 
    197 H197       -5.2435  -25.2262  -44.7193 H         1 UNK         0.0600 
    198 H198       -4.5188  -24.6331  -46.2110 H         1 UNK         0.0600 
    199 H199       -6.1518  -25.2972  -46.2179 H         1 UNK         0.0600 
    200 H200       -5.6917  -20.7744  -45.8573 H         1 UNK         0.3000 
    201 H201       -5.8742  -19.3253  -47.5144 H         1 UNK         0.0600 
    202 H202       -7.8891  -19.3662  -48.9392 H         1 UNK         0.0600 
    203 H203       -8.3141  -19.8083  -47.2936 H         1 UNK         0.0600 
    204 H204       -8.1931  -21.0499  -48.5392 H         1 UNK         0.0600 
    205 H205       -3.8269  -21.0049  -47.8261 H         1 UNK         0.3000 
    206 H206       -2.2118  -21.6892  -49.1603 H         1 UNK         0.0600 
    207 H207       -2.4187  -19.6161  -50.4521 H         1 UNK         0.0600 
    208 H208       -3.6755  -20.3145  -51.4654 H         1 UNK         0.0600 
    209 H209       -2.0381  -20.9499  -51.5256 H         1 UNK         0.0600 
    210 H210       -4.1797  -23.3770  -48.3671 H         1 UNK         0.3000 
    211 H211       -5.1559  -25.3617  -48.5611 H         1 UNK         0.0600 
    212 H212       -2.8316  -26.1277  -49.1592 H         1 UNK         0.0600 
    213 H213       -4.0818  -27.1186  -49.8961 H         1 UNK         0.0600 
    214 H214       -3.2243  -25.9356  -50.8676 H         1 UNK         0.0600 
    215 H215       -6.7169  -23.5085  -49.4495 H         1 UNK         0.3000 
    216 H216       -8.3038  -22.7289  -50.7983 H         1 UNK         0.0600 
    217 H217       -9.8106  -24.3693  -51.8783 H         1 UNK         0.0600 
    218 H218       -8.5939  -25.6321  -51.7471 H         1 UNK         0.0600 
    219 H219       -9.3273  -24.9542  -50.2942 H         1 UNK         0.0600 
    220 H220       -5.9081  -22.1370  -51.6936 H         1 UNK         0.3000 
    221 H221       -4.6390  -21.3620  -53.2833 H         1 UNK         0.0600 
    222 H222       -6.9520  -21.7305  -55.2504 H         1 UNK         0.0600 
    223 H223       -6.7360  -20.3419  -54.1841 H         1 UNK         0.0600 
    224 H224       -5.5642  -20.6731  -55.4480 H         1 UNK         0.0600 
    225 H225       -5.2628  -24.5925  -53.2105 H         1 UNK         0.3000 
    226 H226       -4.1859  -25.4228  -55.7495 H         1 UNK         0.0600 
    227 H227       -5.7748  -26.7950  -54.3342 H         1 UNK         0.0600 
    228 H228       -4.3344  -27.6677  -54.8380 H         1 UNK         0.0600 
    229 H229       -4.4573  -27.0727  -53.1921 H         1 UNK         0.0600 
    230 H230       -2.6791  -24.5288  -52.6736 H         1 UNK         0.3000 
    231 H231       -0.1088  -25.8145  -53.3166 H         1 UNK         0.0600 
    232 H232        0.6571  -24.7639  -51.2329 H         1 UNK         0.0600 
    233 H233       -0.8724  -25.5676  -50.9373 H         1 UNK         0.0600 
    234 H234       -0.8082  -23.8112  -51.1059 H         1 UNK         0.0600 
    235 H235       -1.7379  -22.9014  -54.1118 H         1 UNK         0.3000 
    236 H236       -1.2571  -20.9541  -55.0606 H         1 UNK         0.0600 
    237 H237       -0.6116  -22.5317  -56.8938 H         1 UNK         0.0600 
    238 H238        0.2990  -21.0335  -56.9785 H         1 UNK         0.0600 
    239 H239        1.0644  -22.4867  -56.3477 H         1 UNK         0.0600 
    240 H240       -0.1258  -21.2998  -52.4478 H         1 UNK         0.3000 
    241 H241        1.0939  -20.3187  -50.9198 H         1 UNK         0.0600 
    242 H242        4.0875  -22.2877  -52.3931 H         1 UNK         0.3800 
    243 H243        2.4317  -22.3959  -52.9332 H         1 UNK         0.3800 
    244 H244        2.2430  -18.1134  -51.2790 H         1 UNK         0.0800 
    245 H245        1.9108  -18.2144  -52.9799 H         1 UNK         0.0800 
    246 H246        0.5792  -17.6569  -49.4244 H         1 UNK         0.0800 
    247 H247        0.9545  -16.1764  -50.2777 H         1 UNK         0.0800 
@<TRIPOS>BOND
     1    1    2 1    
     2    1  127 1    
     3    1  128 1    
     4    1  129 1    
     5    2    3 2    
     6    2    4 am   BACKBONE|DICT|INTERRES
     7    4    5 1    
     8    4  130 1    
     9    5    6 1    
    10    5   65 1    
    11    5  131 1    
    12    6    7 1    
    13    6  132 1    
    14    6  133 1    
    15    7    8 1    
    16    8    9 1    
    17    8  134 1    
    18    8  135 1    
    19    9   10 ar   
    20    9   14 ar   
    21   10   11 ar   
    22   10  136 1    
    23   11   12 ar   
    24   11  126 1    
    25   12   13 ar   
    26   12  137 1    
    27   13   14 ar   
    28   13   15 1    
    29   14  138 1    
    30   15   16 1    
    31   15  139 1    
    32   15  140 1    
    33   16   17 1    
    34   17   18 1    
    35   17  141 1    
    36   17  142 1    
    37   18   19 1    
    38   18   67 1    
    39   18  143 1    
    40   19   20 am   BACKBONE|DICT|INTERRES
    41   19  144 1    
    42   20   21 2    
    43   20   22 1    
    44   22   23 1    
    45   22   24 1    
    46   22  145 1    
    47   23  146 1    
    48   23  147 1    
    49   23  148 1    
    50   24   25 am   BACKBONE|DICT|INTERRES
    51   24  149 1    
    52   25   26 2    
    53   25   27 1    
    54   27   28 1    
    55   27   29 1    
    56   27  150 1    
    57   28  151 1    
    58   28  152 1    
    59   28  153 1    
    60   29   30 am   BACKBONE|DICT|INTERRES
    61   29  154 1    
    62   30   31 2    
    63   30   32 1    
    64   32   33 1    
    65   32   34 1    
    66   32  155 1    
    67   33  156 1    
    68   33  157 1    
    69   33  158 1    
    70   34   35 am   BACKBONE|DICT|INTERRES
    71   34  159 1    
    72   35   36 2    
    73   35   37 1    
    74   37   38 1    
    75   37   39 1    
    76   37  160 1    
    77   38  161 1    
    78   38  162 1    
    79   38  163 1    
    80   39   40 am   BACKBONE|DICT|INTERRES
    81   39  164 1    
    82   40   41 2    
    83   40   42 1    
    84   42   43 1    
    85   42   44 1    
    86   42  165 1    
    87   43  166 1    
    88   43  167 1    
    89   43  168 1    
    90   44   45 am   BACKBONE|DICT|INTERRES
    91   44  169 1    
    92   45   46 2    
    93   45   47 1    
    94   47   48 1    
    95   47   49 1    
    96   47  170 1    
    97   48  171 1    
    98   48  172 1    
    99   48  173 1    
   100   49   50 am   BACKBONE|DICT|INTERRES
   101   49  174 1    
   102   50   51 2    
   103   50   52 1    
   104   52   53 1    
   105   52   54 1    
   106   52  175 1    
   107   53  176 1    
   108   53  177 1    
   109   53  178 1    
   110   54   55 am   BACKBONE|DICT|INTERRES
   111   54  179 1    
   112   55   56 2    
   113   55   57 1    
   114   57   58 1    
   115   57   59 1    
   116   57  180 1    
   117   58  181 1    
   118   58  182 1    
   119   58  183 1    
   120   59   60 am   BACKBONE|DICT|INTERRES
   121   59  184 1    
   122   60   61 2    
   123   60   62 1    
   124   62   63 1    
   125   62   64 1    
   126   62  185 1    
   127   63  186 1    
   128   63  187 1    
   129   63  188 1    
   130   64   65 am   BACKBONE|DICT|INTERRES
   131   64  189 1    
   132   65   66 2    
   133   67   68 2    
   134   67   69 am   BACKBONE|DICT|INTERRES
   135   69   70 1    
   136   69  190 1    
   137   70   71 1    
   138   70   72 1    
   139   70  191 1    
   140   71  192 1    
   141   71  193 1    
   142   71  194 1    
   143   72   73 2    
   144   72   74 am   BACKBONE|DICT|INTERRES
   145   74   75 1    
   146   74  195 1    
   147   75   76 1    
   148   75   77 1    
   149   75  196 1    
   150   76  197 1    
   151   76  198 1    
   152   76  199 1    
   153   77   78 2    
   154   77   79 am   BACKBONE|DICT|INTERRES
   155   79   80 1    
   156   79  200 1    
   157   80   81 1    
   158   80   82 1    
   159   80  201 1    
   160   81  202 1    
   161   81  203 1    
   162   81  204 1    
   163   82   83 2    
   164   82   84 am   BACKBONE|DICT|INTERRES
   165   84   85 1    
   166   84  205 1    
   167   85   86 1    
   168   85   87 1    
   169   85  206 1    
   170   86  207 1    
   171   86  208 1    
   172   86  209 1    
   173   87   88 2    
   174   87   89 am   BACKBONE|DICT|INTERRES
   175   89   90 1    
   176   89  210 1    
   177   90   91 1    
   178   90   92 1    
   179   90  211 1    
   180   91  212 1    
   181   91  213 1    
   182   91  214 1    
   183   92   93 2    
   184   92   94 am   BACKBONE|DICT|INTERRES
   185   94   95 1    
   186   94  215 1    
   187   95   96 1    
   188   95   97 1    
   189   95  216 1    
   190   96  217 1    
   191   96  218 1    
   192   96  219 1    
   193   97   98 2    
   194   97   99 am   BACKBONE|DICT|INTERRES
   195   99  100 1    
   196   99  220 1    
   197  100  101 1    
   198  100  102 1    
   199  100  221 1    
   200  101  222 1    
   201  101  223 1    
   202  101  224 1    
   203  102  103 2    
   204  102  104 am   BACKBONE|DICT|INTERRES
   205  104  105 1    
   206  104  225 1    
   207  105  106 1    
   208  105  107 1    
   209  105  226 1    
   210  106  227 1    
   211  106  228 1    
   212  106  229 1    
   213  107  108 2    
   214  107  109 am   BACKBONE|DICT|INTERRES
   215  109  110 1    
   216  109  230 1    
   217  110  111 1    
   218  110  112 1    
   219  110  231 1    
   220  111  232 1    
   221  111  233 1    
   222  111  234 1    
   223  112  113 2    
   224  112  114 am   BACKBONE|DICT|INTERRES
   225  114  115 1    
   226  114  235 1    
   227  115  116 1    
   228  115  117 1    
   229  115  236 1    
   230  116  237 1    
   231  116  238 1    
   232  116  239 1    
   233  117  118 2    
   234  117  119 am   BACKBONE|DICT|INTERRES
   235  119  120 1    
   236  119  240 1    
   237  120  121 1    
   238  120  124 1    
   239  120  241 1    
   240  121  122 am   BACKBONE|DICT|INTERRES
   241  121  123 2    
   242  122  242 1    
   243  122  243 1    
   244  124  125 1    
   245  124  244 1    
   246  124  245 1    
   247  125  126 1    
   248  126  246 1    
   249  126  247 1    
@<TRIPOS>SUBSTRUCTURE
     1 UNK         1 GROUP             0       ****    0 ROOT    
