@<TRIPOS>MOLECULE
3R540
247   249    1
SMALL
USER_CHARGES


@<TRIPOS>ATOM
      1 CA          5.7402  -11.0261  -49.3193 C.3       0 UNK        -0.1800 
      2 C           5.4137  -12.4864  -49.0408 C.2       0 UNK         0.5000 
      3 O           4.2981  -12.7831  -48.6139 O.2       0 UNK        -0.5000 
      4 N           6.3866  -13.3797  -49.2814 N.am      1 UNK        -0.5000 
      5 CA          6.3556  -14.8405  -49.1071 C.3       1 UNK         0.1400 
      6 C6          5.8135  -15.6102  -50.3507 C.3       23 UNK        -0.0398 
      7 S7          4.0818  -15.2706  -50.8401 S.3       23 UNK        -0.2404 
      8 C8          3.4164  -16.9491  -51.0690 C.3       23 UNK        -0.0205 
      9 C9          1.9131  -16.9690  -50.8499 C.ar      23 UNK        -0.0193 
     10 C10         1.0379  -16.5858  -51.8696 C.ar      23 UNK        -0.1150 
     11 C11        -0.3445  -16.5931  -51.6566 C.ar      23 UNK        -0.0193 
     12 C12        -0.8469  -16.9763  -50.4088 C.ar      23 UNK        -0.1150 
     13 C13         0.0183  -17.3779  -49.3881 C.ar      23 UNK        -0.0193 
     14 C14         1.3956  -17.3721  -49.6177 C.ar      23 UNK        -0.1150 
     15 C15        -0.5241  -17.8086  -48.0321 C.3       23 UNK        -0.0205 
     16 S16        -1.5409  -19.3164  -48.1195 S.3       23 UNK        -0.2404 
     17 C17        -0.3518  -20.5395  -48.7720 C.3       23 UNK        -0.0398 
     18 CA         -0.1403  -21.8109  -47.9147 C.3       11 UNK         0.1400 
     19 N           0.5123  -21.5746  -46.6232 N.am      11 UNK        -0.5000 
     20 C           1.1791  -22.5354  -45.9630 C.2       10 UNK         0.5000 
     21 O           1.2993  -23.6881  -46.3809 O.2       10 UNK        -0.5000 
     22 CA          1.7782  -22.1651  -44.5958 C.3       10 UNK         0.1400 
     23 CB          2.9898  -21.2351  -44.7625 C.3       10 UNK        -0.1800 
     24 N           0.7975  -21.5443  -43.7080 N.am      10 UNK        -0.5000 
     25 C          -0.2928  -22.1618  -43.2252 C.2       9 UNK         0.5000 
     26 O          -0.5655  -23.3403  -43.4518 O.2       9 UNK        -0.5000 
     27 CA         -1.2686  -21.3132  -42.3815 C.3       9 UNK         0.1400 
     28 CB         -0.9083  -21.4045  -40.8916 C.3       9 UNK        -0.1800 
     29 N          -1.3046  -19.9053  -42.7776 N.am      9 UNK        -0.5000 
     30 C          -1.5765  -19.4582  -44.0107 C.2       8 UNK         0.5000 
     31 O          -1.9670  -20.1873  -44.9220 O.2       8 UNK        -0.5000 
     32 CA         -1.3085  -17.9692  -44.2987 C.3       8 UNK         0.1400 
     33 CB         -2.6298  -17.1936  -44.4089 C.3       8 UNK        -0.1800 
     34 N          -0.4265  -17.2844  -43.3478 N.am      8 UNK        -0.5000 
     35 C           0.8292  -17.6230  -43.0180 C.2       7 UNK         0.5000 
     36 O           1.3803  -18.6548  -43.4033 O.2       7 UNK        -0.5000 
     37 CA          1.5924  -16.6727  -42.0762 C.3       7 UNK         0.1400 
     38 CB          2.6144  -15.8345  -42.8584 C.3       7 UNK        -0.1800 
     39 N           0.7039  -15.7580  -41.3566 N.am      7 UNK        -0.5000 
     40 C           0.3237  -15.8990  -40.0802 C.2       6 UNK         0.5000 
     41 O           0.6419  -16.8578  -39.3759 O.2       6 UNK        -0.5000 
     42 CA         -0.5374  -14.7731  -39.4715 C.3       6 UNK         0.1400 
     43 CB          0.3428  -13.8139  -38.6551 C.3       6 UNK        -0.1800 
     44 N          -1.2720  -13.9976  -40.4728 N.am      6 UNK        -0.5000 
     45 C          -2.4018  -14.4056  -41.0649 C.2       5 UNK         0.5000 
     46 O          -2.9650  -15.4686  -40.8030 O.2       5 UNK        -0.5000 
     47 CA         -2.9893  -13.4836  -42.1539 C.3       5 UNK         0.1400 
     48 CB         -3.9911  -12.4967  -41.5355 C.3       5 UNK        -0.1800 
     49 N          -1.9998  -12.7337  -42.9414 N.am      5 UNK        -0.5000 
     50 C          -1.0014  -13.2860  -43.6418 C.2       4 UNK         0.5000 
     51 O          -0.7102  -14.4804  -43.5807 O.2       4 UNK        -0.5000 
     52 CA         -0.1697  -12.3651  -44.5401 C.3       4 UNK         0.1400 
     53 CB          1.0346  -11.7937  -43.7750 C.3       4 UNK        -0.1800 
     54 N           0.3016  -13.1639  -45.6653 N.am      4 UNK        -0.5000 
     55 C           0.4393  -12.7522  -46.9276 C.2       3 UNK         0.5000 
     56 O           0.2622  -11.5860  -47.2854 O.2       3 UNK        -0.5000 
     57 CA          0.8469  -13.8345  -47.9489 C.3       3 UNK         0.1400 
     58 CB          0.9288  -13.3011  -49.3902 C.3       3 UNK        -0.1800 
     59 N           2.1280  -14.4475  -47.5983 N.am      3 UNK        -0.5000 
     60 C           2.2921  -15.4483  -46.7211 C.2       2 UNK         0.5000 
     61 O           1.3604  -15.9283  -46.0759 O.2       2 UNK        -0.5000 
     62 CA          3.7172  -16.0085  -46.5421 C.3       2 UNK         0.1400 
     63 CB          3.7390  -17.5185  -46.2351 C.3       2 UNK        -0.1800 
     64 N           4.5231  -15.7411  -47.7311 N.am      2 UNK        -0.5000 
     65 C           5.7719  -15.2678  -47.7383 C.2       1 UNK         0.5000 
     66 O           6.4557  -15.1249  -46.7227 O.2       1 UNK        -0.5000 
     67 C          -1.4112  -22.6685  -47.7699 C.2       11 UNK         0.5000 
     68 O          -1.6931  -23.4650  -48.6632 O.2       11 UNK        -0.5000 
     69 N          -2.1284  -22.5444  -46.6429 N.am      12 UNK        -0.5000 
     70 CA         -3.2713  -23.3940  -46.3031 C.3       12 UNK         0.1400 
     71 CB         -3.9471  -22.8790  -45.0252 C.3       12 UNK        -0.1800 
     72 C          -2.8870  -24.8765  -46.1576 C.2       12 UNK         0.5000 
     73 O          -3.6321  -25.7375  -46.6205 O.2       12 UNK        -0.5000 
     74 N          -1.7201  -25.1509  -45.5598 N.am      13 UNK        -0.5000 
     75 CA         -1.1518  -26.4939  -45.4683 C.3       13 UNK         0.1400 
     76 CB         -0.0178  -26.5037  -44.4317 C.3       13 UNK        -0.1800 
     77 C          -0.6543  -27.0141  -46.8300 C.2       13 UNK         0.5000 
     78 O          -0.9098  -28.1713  -47.1650 O.2       13 UNK        -0.5000 
     79 N           0.0534  -26.1595  -47.5816 N.am      14 UNK        -0.5000 
     80 CA          0.6967  -26.5193  -48.8452 C.3       14 UNK         0.1400 
     81 CB          1.7662  -25.4713  -49.1893 C.3       14 UNK        -0.1800 
     82 C          -0.2829  -26.6941  -50.0202 C.2       14 UNK         0.5000 
     83 O          -0.1799  -27.6829  -50.7474 O.2       14 UNK        -0.5000 
     84 N          -1.1860  -25.7235  -50.2092 N.am      15 UNK        -0.5000 
     85 CA         -2.0510  -25.6150  -51.3873 C.3       15 UNK         0.1400 
     86 CB         -2.0316  -24.1569  -51.8797 C.3       15 UNK        -0.1800 
     87 C          -3.4980  -26.0647  -51.1243 C.2       15 UNK         0.5000 
     88 O          -4.2897  -26.0865  -52.0677 O.2       15 UNK        -0.5000 
     89 N          -3.8388  -26.3770  -49.8645 N.am      16 UNK        -0.5000 
     90 CA         -5.1531  -26.7841  -49.3396 C.3       16 UNK         0.1400 
     91 CB         -5.6803  -28.0544  -50.0351 C.3       16 UNK        -0.1800 
     92 C          -6.2099  -25.6600  -49.3487 C.2       16 UNK         0.5000 
     93 O          -6.8821  -25.4473  -48.3396 O.2       16 UNK        -0.5000 
     94 N          -6.3298  -24.9516  -50.4770 N.am      17 UNK        -0.5000 
     95 CA         -7.2507  -23.8345  -50.6940 C.3       17 UNK         0.1400 
     96 CB         -7.5490  -23.7398  -52.1988 C.3       17 UNK        -0.1800 
     97 C          -6.7178  -22.4890  -50.1593 C.2       17 UNK         0.5000 
     98 O          -7.4593  -21.5057  -50.1686 O.2       17 UNK        -0.5000 
     99 N          -5.4502  -22.4567  -49.7212 N.am      18 UNK        -0.5000 
    100 CA        -4.7130  -21.2783  -49.2571 C.3       18 UNK         0.1400 
    101 CB        -5.3213  -20.7254  -47.9465 C.3       18 UNK        -0.1800 
    102 C         -4.5673  -20.2315  -50.3798 C.2       18 UNK         0.5000 
    103 O         -4.2587  -20.6045  -51.5127 O.2       18 UNK        -0.5000 
    104 N         -4.8047  -18.9512  -50.0664 N.am      19 UNK        -0.5000 
    105 CA        -4.6845  -17.8180  -50.9862 C.3       19 UNK         0.1400 
    106 CB        -4.8699  -16.5131  -50.1977 C.3       19 UNK        -0.1800 
    107 C         -5.6351  -17.8640  -52.1985 C.2       19 UNK         0.5000 
    108 O         -5.3591  -17.1990  -53.1960 O.2       19 UNK        -0.5000 
    109 N         -6.7064  -18.6686  -52.1296 N.am      20 UNK        -0.5000 
    110 CA        -7.6100  -18.9249  -53.2538 C.3       20 UNK         0.1400 
    111 CB        -8.8594  -19.6631  -52.7541 C.3       20 UNK        -0.1800 
    112 C         -6.9388  -19.6977  -54.4089 C.2       20 UNK         0.5000 
    113 O         -7.3855  -19.5744  -55.5500 O.2       20 UNK        -0.5000 
    114 N         -5.8560  -20.4375  -54.1176 N.am      21 UNK        -0.5000 
    115 CA        -5.0235  -21.1092  -55.1196 C.3       21 UNK         0.1400 
    116 CB        -4.0988  -22.1189  -54.4220 C.3       21 UNK        -0.1800 
    117 C         -4.1927  -20.1280  -55.9729 C.2       21 UNK         0.5000 
    118 O         -3.7576  -20.5008  -57.0631 O.2       21 UNK        -0.5000 
    119 N         -3.9898  -18.9009  -55.4742 N.am      22 UNK        -0.5000 
    120 CA        -3.2599  -17.8209  -56.1572 C.3       22 UNK         0.1400 
    121 C         -4.0906  -17.0853  -57.2512 C.2       22 UNK         0.5000 
    122 N         -5.3797  -17.3610  -57.4164 N.am      22 UNK        -0.7600 
    123 O         -3.5509  -16.2525  -57.9746 O.2       22 UNK        -0.5000 
    124 C124       -2.6476  -16.8082  -55.1532 C.3       23 UNK        -0.0398 
    125 S125       -1.5968  -17.6017  -53.8900 S.3       23 UNK        -0.2404 
    126 C126       -1.2892  -16.1958  -52.7790 C.3       23 UNK        -0.0205 
    127 H127        6.7562  -10.8999  -49.6940 H         1 UNK         0.0600 
    128 H128        5.0513  -10.6247  -50.0625 H         1 UNK         0.0600 
    129 H129        5.6383  -10.4391  -48.4066 H         1 UNK         0.0600 
    130 H130        7.2742  -13.0243  -49.6076 H         1 UNK         0.3000 
    131 H131        7.4091  -15.1178  -49.0399 H         1 UNK         0.0600 
    132 H132        5.9545  -16.6814  -50.2014 H         1 UNK         0.0800 
    133 H133        6.4364  -15.3647  -51.2117 H         1 UNK         0.0800 
    134 H134        3.8944  -17.6464  -50.3794 H         1 UNK         0.0800 
    135 H135        3.6546  -17.2988  -52.0746 H         1 UNK         0.0800 
    136 H136        1.4326  -16.2826  -52.8291 H         1 UNK         0.1150 
    137 H137       -1.9107  -16.9784  -50.2298 H         1 UNK         0.1150 
    138 H138        2.0684  -17.6780  -48.8324 H         1 UNK         0.1150 
    139 H139        0.2935  -17.9854  -47.3326 H         1 UNK         0.0800 
    140 H140       -1.1208  -16.9978  -47.6121 H         1 UNK         0.0800 
    141 H141        0.6157  -20.0619  -48.9259 H         1 UNK         0.0800 
    142 H142       -0.6918  -20.8215  -49.7701 H         1 UNK         0.0800 
    143 H143        0.5516  -22.4225  -48.4971 H         1 UNK         0.0600 
    144 H144        0.3893  -20.6656  -46.2019 H         1 UNK         0.3000 
    145 H145        2.1217  -23.0869  -44.1217 H         1 UNK         0.0600 
    146 H146        3.4523  -21.0141  -43.8004 H         1 UNK         0.0600 
    147 H147        3.7518  -21.6953  -45.3927 H         1 UNK         0.0600 
    148 H148        2.7116  -20.2868  -45.2232 H         1 UNK         0.0600 
    149 H149        0.9397  -20.5602  -43.4972 H         1 UNK         0.3000 
    150 H150       -2.2714  -21.7202  -42.5162 H         1 UNK         0.0600 
    151 H151       -0.8934  -22.4426  -40.5566 H         1 UNK         0.0600 
    152 H152       -1.6363  -20.8759  -40.2759 H         1 UNK         0.0600 
    153 H153        0.0756  -20.9792  -40.6891 H         1 UNK         0.0600 
    154 H154       -0.9782  -19.2338  -42.0987 H         1 UNK         0.3000 
    155 H155       -0.8100  -17.9271  -45.2657 H         1 UNK         0.0600 
    156 H156       -3.1349  -17.1238  -43.4448 H         1 UNK         0.0600 
    157 H157       -3.3131  -17.6786  -45.1076 H         1 UNK         0.0600 
    158 H158       -2.4624  -16.1810  -44.7757 H         1 UNK         0.0600 
    159 H159       -0.7395  -16.3647  -43.0585 H         1 UNK         0.3000 
    160 H160        2.1443  -17.2953  -41.3691 H         1 UNK         0.0600 
    161 H161        3.1940  -15.1978  -42.1900 H         1 UNK         0.0600 
    162 H162        2.1284  -15.1915  -43.5922 H         1 UNK         0.0600 
    163 H163        3.3211  -16.4732  -43.3878 H         1 UNK         0.0600 
    164 H164        0.3354  -14.9829  -41.8944 H         1 UNK         0.3000 
    165 H165       -1.2537  -15.2377  -38.7903 H         1 UNK         0.0600 
    166 H166       -0.2584  -13.0496  -38.1623 H         1 UNK         0.0600 
    167 H167        0.8868  -14.3496  -37.8759 H         1 UNK         0.0600 
    168 H168        1.0794  -13.3103  -39.2826 H         1 UNK         0.0600 
    169 H169       -0.8779  -13.1093  -40.7459 H         1 UNK         0.3000 
    170 H170       -3.5333  -14.1243  -42.8511 H         1 UNK         0.0600 
    171 H171       -4.7560  -13.0224  -40.9622 H         1 UNK         0.0600 
    172 H172       -3.4994  -11.7949  -40.8606 H         1 UNK         0.0600 
    173 H173       -4.5046  -11.9201  -42.3051 H         1 UNK         0.0600 
    174 H174       -2.1578  -11.7394  -43.0214 H         1 UNK         0.3000 
    175 H175       -0.8056  -11.5515  -44.8951 H         1 UNK         0.0600 
    176 H176        1.6823  -12.5851  -43.3952 H         1 UNK         0.0600 
    177 H177        1.6365  -11.1489  -44.4155 H         1 UNK         0.0600 
    178 H178        0.7100  -11.1950  -42.9232 H         1 UNK         0.0600 
    179 H179        0.4314  -14.1514  -45.4595 H         1 UNK         0.3000 
    180 H180        0.0698  -14.6014  -47.9326 H         1 UNK         0.0600 
    181 H181        1.6892  -12.5261  -49.4915 H         1 UNK         0.0600 
    182 H182       -0.0240  -12.8744  -49.7052 H         1 UNK         0.0600 
    183 H183        1.1716  -14.1001  -50.0905 H         1 UNK         0.0600 
    184 H184        2.9485  -14.0165  -48.0185 H         1 UNK         0.3000 
    185 H185        4.1344  -15.4788  -45.6835 H         1 UNK         0.0600 
    186 H186        3.1133  -17.7613  -45.3766 H         1 UNK         0.0600 
    187 H187        3.3820  -18.1121  -47.0751 H         1 UNK         0.0600 
    188 H188        4.7492  -17.8531  -45.9999 H         1 UNK         0.0600 
    189 H189        4.0268  -15.7641  -48.6140 H         1 UNK         0.3000 
    190 H190       -1.8851  -21.8139  -45.9789 H         1 UNK         0.3000 
    191 H191       -3.9898  -23.3264  -47.1212 H         1 UNK         0.0600 
    192 H192       -3.2962  -22.9872  -44.1590 H         1 UNK         0.0600 
    193 H193       -4.8615  -23.4363  -44.8186 H         1 UNK         0.0600 
    194 H194       -4.2185  -21.8270  -45.1130 H         1 UNK         0.0600 
    195 H195       -1.1821  -24.3963  -45.1480 H         1 UNK         0.3000 
    196 H196       -1.9318  -27.1727  -45.1168 H         1 UNK         0.0600 
    197 H197        0.4208  -27.4982  -44.3408 H         1 UNK         0.0600 
    198 H198       -0.3851  -26.2186  -43.4457 H         1 UNK         0.0600 
    199 H199        0.7826  -25.8137  -44.7006 H         1 UNK         0.0600 
    200 H200        0.2592  -25.2376  -47.2108 H         1 UNK         0.3000 
    201 H201        1.2082  -27.4734  -48.7004 H         1 UNK         0.0600 
    202 H202        2.5097  -25.3908  -48.3960 H         1 UNK         0.0600 
    203 H203        1.3296  -24.4843  -49.3401 H         1 UNK         0.0600 
    204 H204        2.2953  -25.7390  -50.1048 H         1 UNK         0.0600 
    205 H205       -1.2349  -24.9447  -49.5535 H         1 UNK         0.3000 
    206 H206       -1.6640  -26.2402  -52.1946 H         1 UNK         0.0600 
    207 H207       -1.0121  -23.8045  -52.0364 H         1 UNK         0.0600 
    208 H208       -2.5548  -24.0623  -52.8314 H         1 UNK         0.0600 
    209 H209       -2.5160  -23.4801  -51.1751 H         1 UNK         0.0600 
    210 H210       -3.1157  -26.2897  -49.1632 H         1 UNK         0.3000 
    211 H211       -4.9892  -27.0519  -48.2964 H         1 UNK         0.0600 
    212 H212       -5.9275  -27.8808  -51.0825 H         1 UNK         0.0600 
    213 H213       -6.5866  -28.4136  -49.5461 H         1 UNK         0.0600 
    214 H214       -4.9472  -28.8598  -49.9919 H         1 UNK         0.0600 
    215 H215       -5.7319  -25.2173  -51.2561 H         1 UNK         0.3000 
    216 H216       -8.1878  -24.0435  -50.1741 H         1 UNK         0.0600 
    217 H217       -8.3026  -22.9796  -52.4033 H         1 UNK         0.0600 
    218 H218       -7.9333  -24.6840  -52.5851 H         1 UNK         0.0600 
    219 H219       -6.6576  -23.4821  -52.7701 H         1 UNK         0.0600 
    220 H220       -4.9159  -23.3094  -49.7935 H         1 UNK         0.3000 
    221 H221       -3.7032  -21.6187  -49.0391 H         1 UNK         0.0600 
    222 H222       -6.2781  -20.2290  -48.1119 H         1 UNK         0.0600 
    223 H223       -5.4973  -21.5227  -47.2263 H         1 UNK         0.0600 
    224 H224       -4.6484  -20.0100  -47.4717 H         1 UNK         0.0600 
    225 H225       -5.0671  -18.7317  -49.1167 H         1 UNK         0.3000 
    226 H226       -3.6715  -17.8373  -51.3907 H         1 UNK         0.0600 
    227 H227       -5.8700  -16.4433  -49.7682 H         1 UNK         0.0600 
    228 H228       -4.1489  -16.4346  -49.3838 H         1 UNK         0.0600 
    229 H229       -4.7270  -15.6441  -50.8415 H         1 UNK         0.0600 
    230 H230       -6.8608  -19.2068  -51.2877 H         1 UNK         0.3000 
    231 H231       -7.9287  -17.9592  -53.6520 H         1 UNK         0.0600 
    232 H232       -9.3598  -19.1050  -51.9626 H         1 UNK         0.0600 
    233 H233       -8.6139  -20.6500  -52.3659 H         1 UNK         0.0600 
    234 H234       -9.5798  -19.8001  -53.5614 H         1 UNK         0.0600 
    235 H235       -5.5173  -20.4690  -53.1614 H         1 UNK         0.3000 
    236 H236       -5.6816  -21.6608  -55.7942 H         1 UNK         0.0600 
    237 H237       -3.5454  -22.7090  -55.1534 H         1 UNK         0.0600 
    238 H238       -3.3659  -21.6205  -53.7867 H         1 UNK         0.0600 
    239 H239       -4.6604  -22.8163  -53.8019 H         1 UNK         0.0600 
    240 H240       -4.3968  -18.6564  -54.5811 H         1 UNK         0.3000 
    241 H241       -2.4242  -18.2799  -56.6889 H         1 UNK         0.0600 
    242 H242       -5.9015  -16.8803  -58.1324 H         1 UNK         0.3800 
    243 H243       -5.8395  -18.0470  -56.8363 H         1 UNK         0.3800 
    244 H244       -2.0349  -16.0755  -55.6812 H         1 UNK         0.0800 
    245 H245       -3.4349  -16.2421  -54.6542 H         1 UNK         0.0800 
    246 H246       -0.8611  -15.3678  -53.3462 H         1 UNK         0.0800 
    247 H247       -2.2364  -15.8383  -52.3722 H         1 UNK         0.0800 
@<TRIPOS>BOND
     1    1    2 1    
     2    1  127 1    
     3    1  128 1    
     4    1  129 1    
     5    2    3 2    
     6    2    4 am   BACKBONE|DICT|INTERRES
     7    4    5 1    
     8    4  130 1    
     9    5    6 1    
    10    5   65 1    
    11    5  131 1    
    12    6    7 1    
    13    6  132 1    
    14    6  133 1    
    15    7    8 1    
    16    8    9 1    
    17    8  134 1    
    18    8  135 1    
    19    9   10 ar   
    20    9   14 ar   
    21   10   11 ar   
    22   10  136 1    
    23   11   12 ar   
    24   11  126 1    
    25   12   13 ar   
    26   12  137 1    
    27   13   14 ar   
    28   13   15 1    
    29   14  138 1    
    30   15   16 1    
    31   15  139 1    
    32   15  140 1    
    33   16   17 1    
    34   17   18 1    
    35   17  141 1    
    36   17  142 1    
    37   18   19 1    
    38   18   67 1    
    39   18  143 1    
    40   19   20 am   BACKBONE|DICT|INTERRES
    41   19  144 1    
    42   20   21 2    
    43   20   22 1    
    44   22   23 1    
    45   22   24 1    
    46   22  145 1    
    47   23  146 1    
    48   23  147 1    
    49   23  148 1    
    50   24   25 am   BACKBONE|DICT|INTERRES
    51   24  149 1    
    52   25   26 2    
    53   25   27 1    
    54   27   28 1    
    55   27   29 1    
    56   27  150 1    
    57   28  151 1    
    58   28  152 1    
    59   28  153 1    
    60   29   30 am   BACKBONE|DICT|INTERRES
    61   29  154 1    
    62   30   31 2    
    63   30   32 1    
    64   32   33 1    
    65   32   34 1    
    66   32  155 1    
    67   33  156 1    
    68   33  157 1    
    69   33  158 1    
    70   34   35 am   BACKBONE|DICT|INTERRES
    71   34  159 1    
    72   35   36 2    
    73   35   37 1    
    74   37   38 1    
    75   37   39 1    
    76   37  160 1    
    77   38  161 1    
    78   38  162 1    
    79   38  163 1    
    80   39   40 am   BACKBONE|DICT|INTERRES
    81   39  164 1    
    82   40   41 2    
    83   40   42 1    
    84   42   43 1    
    85   42   44 1    
    86   42  165 1    
    87   43  166 1    
    88   43  167 1    
    89   43  168 1    
    90   44   45 am   BACKBONE|DICT|INTERRES
    91   44  169 1    
    92   45   46 2    
    93   45   47 1    
    94   47   48 1    
    95   47   49 1    
    96   47  170 1    
    97   48  171 1    
    98   48  172 1    
    99   48  173 1    
   100   49   50 am   BACKBONE|DICT|INTERRES
   101   49  174 1    
   102   50   51 2    
   103   50   52 1    
   104   52   53 1    
   105   52   54 1    
   106   52  175 1    
   107   53  176 1    
   108   53  177 1    
   109   53  178 1    
   110   54   55 am   BACKBONE|DICT|INTERRES
   111   54  179 1    
   112   55   56 2    
   113   55   57 1    
   114   57   58 1    
   115   57   59 1    
   116   57  180 1    
   117   58  181 1    
   118   58  182 1    
   119   58  183 1    
   120   59   60 am   BACKBONE|DICT|INTERRES
   121   59  184 1    
   122   60   61 2    
   123   60   62 1    
   124   62   63 1    
   125   62   64 1    
   126   62  185 1    
   127   63  186 1    
   128   63  187 1    
   129   63  188 1    
   130   64   65 am   BACKBONE|DICT|INTERRES
   131   64  189 1    
   132   65   66 2    
   133   67   68 2    
   134   67   69 am   BACKBONE|DICT|INTERRES
   135   69   70 1    
   136   69  190 1    
   137   70   71 1    
   138   70   72 1    
   139   70  191 1    
   140   71  192 1    
   141   71  193 1    
   142   71  194 1    
   143   72   73 2    
   144   72   74 am   BACKBONE|DICT|INTERRES
   145   74   75 1    
   146   74  195 1    
   147   75   76 1    
   148   75   77 1    
   149   75  196 1    
   150   76  197 1    
   151   76  198 1    
   152   76  199 1    
   153   77   78 2    
   154   77   79 am   BACKBONE|DICT|INTERRES
   155   79   80 1    
   156   79  200 1    
   157   80   81 1    
   158   80   82 1    
   159   80  201 1    
   160   81  202 1    
   161   81  203 1    
   162   81  204 1    
   163   82   83 2    
   164   82   84 am   BACKBONE|DICT|INTERRES
   165   84   85 1    
   166   84  205 1    
   167   85   86 1    
   168   85   87 1    
   169   85  206 1    
   170   86  207 1    
   171   86  208 1    
   172   86  209 1    
   173   87   88 2    
   174   87   89 am   BACKBONE|DICT|INTERRES
   175   89   90 1    
   176   89  210 1    
   177   90   91 1    
   178   90   92 1    
   179   90  211 1    
   180   91  212 1    
   181   91  213 1    
   182   91  214 1    
   183   92   93 2    
   184   92   94 am   BACKBONE|DICT|INTERRES
   185   94   95 1    
   186   94  215 1    
   187   95   96 1    
   188   95   97 1    
   189   95  216 1    
   190   96  217 1    
   191   96  218 1    
   192   96  219 1    
   193   97   98 2    
   194   97   99 am   BACKBONE|DICT|INTERRES
   195   99  100 1    
   196   99  220 1    
   197  100  101 1    
   198  100  102 1    
   199  100  221 1    
   200  101  222 1    
   201  101  223 1    
   202  101  224 1    
   203  102  103 2    
   204  102  104 am   BACKBONE|DICT|INTERRES
   205  104  105 1    
   206  104  225 1    
   207  105  106 1    
   208  105  107 1    
   209  105  226 1    
   210  106  227 1    
   211  106  228 1    
   212  106  229 1    
   213  107  108 2    
   214  107  109 am   BACKBONE|DICT|INTERRES
   215  109  110 1    
   216  109  230 1    
   217  110  111 1    
   218  110  112 1    
   219  110  231 1    
   220  111  232 1    
   221  111  233 1    
   222  111  234 1    
   223  112  113 2    
   224  112  114 am   BACKBONE|DICT|INTERRES
   225  114  115 1    
   226  114  235 1    
   227  115  116 1    
   228  115  117 1    
   229  115  236 1    
   230  116  237 1    
   231  116  238 1    
   232  116  239 1    
   233  117  118 2    
   234  117  119 am   BACKBONE|DICT|INTERRES
   235  119  120 1    
   236  119  240 1    
   237  120  121 1    
   238  120  124 1    
   239  120  241 1    
   240  121  122 am   BACKBONE|DICT|INTERRES
   241  121  123 2    
   242  122  242 1    
   243  122  243 1    
   244  124  125 1    
   245  124  244 1    
   246  124  245 1    
   247  125  126 1    
   248  126  246 1    
   249  126  247 1    
@<TRIPOS>SUBSTRUCTURE
     1 UNK         1 GROUP             0       ****    0 ROOT    
