@<TRIPOS>MOLECULE
3R540
247   249    1
SMALL
USER_CHARGES


@<TRIPOS>ATOM
      1 CA          4.9889  -14.0986  -53.2436 C.3       0 UNK        -0.1800 
      2 C           4.1262  -14.7252  -52.1573 C.2       0 UNK         0.5000 
      3 O           3.7753  -15.9011  -52.2572 O.2       0 UNK        -0.5000 
      4 N           3.7767  -13.9425  -51.1299 N.am      1 UNK        -0.5000 
      5 CA          2.9747  -14.3766  -49.9822 C.3       1 UNK         0.1400 
      6 C6          2.4094  -13.1814  -49.1693 C.3       23 UNK        -0.0398 
      7 S7          1.4897  -11.9701  -50.1830 S.3       23 UNK        -0.2404 
      8 C8         -0.2415  -12.5123  -49.9731 C.3       23 UNK        -0.0205 
      9 C9         -0.4808  -13.9355  -50.4624 C.ar      23 UNK        -0.0193 
     10 C10        -0.0551  -14.3295  -51.7362 C.ar      23 UNK        -0.1150 
     11 C11        -0.1989  -15.6537  -52.1554 C.ar      23 UNK        -0.0193 
     12 C12        -0.8256  -16.5752  -51.3133 C.ar      23 UNK        -0.1150 
     13 C13        -1.3027  -16.1838  -50.0596 C.ar      23 UNK        -0.0193 
     14 C14        -1.1175  -14.8651  -49.6337 C.ar      23 UNK        -0.1150 
     15 C15        -2.0328  -17.1832  -49.1783 C.3       23 UNK        -0.0205 
     16 S16        -0.9748  -17.7913  -47.8278 S.3       23 UNK        -0.2404 
     17 C17        -1.9896  -19.1658  -47.1907 C.3       23 UNK        -0.0398 
     18 CA         -1.1279  -20.4140  -46.8950 C.3       11 UNK         0.1400 
     19 N          -0.3379  -20.2765  -45.6685 N.am      11 UNK        -0.5000 
     20 C           0.6834  -21.0804  -45.3418 C.2       10 UNK         0.5000 
     21 O           1.1110  -21.9721  -46.0739 O.2       10 UNK        -0.5000 
     22 CA          1.2766  -20.9071  -43.9350 C.3       10 UNK         0.1400 
     23 CB          2.3325  -19.7963  -43.9050 C.3       10 UNK        -0.1800 
     24 N           0.2351  -20.6416  -42.9404 N.am      10 UNK        -0.5000 
     25 C          -0.5701  -21.5980  -42.4592 C.2       9 UNK         0.5000 
     26 O          -0.5220  -22.7704  -42.8308 O.2       9 UNK        -0.5000 
     27 CA         -1.6174  -21.1939  -41.4044 C.3       9 UNK         0.1400 
     28 CB         -1.0103  -21.2750  -39.9958 C.3       9 UNK        -0.1800 
     29 N          -2.2312  -19.8757  -41.5847 N.am      9 UNK        -0.5000 
     30 C          -2.8571  -19.4385  -42.6853 C.2       8 UNK         0.5000 
     31 O          -2.8607  -20.0504  -43.7551 O.2       8 UNK        -0.5000 
     32 CA         -3.6222  -18.1077  -42.5822 C.3       8 UNK         0.1400 
     33 CB         -3.3006  -17.2703  -41.3272 C.3       8 UNK        -0.1800 
     34 N          -3.3428  -17.3215  -43.7744 N.am      8 UNK        -0.5000 
     35 C          -4.2206  -16.5649  -44.4437 C.2       7 UNK         0.5000 
     36 O          -5.4036  -16.4474  -44.1201 O.2       7 UNK        -0.5000 
     37 CA         -3.6893  -15.8306  -45.6967 C.3       7 UNK         0.1400 
     38 CB         -4.3930  -14.4816  -45.9498 C.3       7 UNK        -0.1800 
     39 N          -2.2288  -15.6753  -45.7075 N.am      7 UNK        -0.5000 
     40 C          -1.4815  -14.9888  -44.8331 C.2       6 UNK         0.5000 
     41 O          -1.9315  -14.2834  -43.9276 O.2       6 UNK        -0.5000 
     42 CA          0.0387  -15.1499  -44.9861 C.3       6 UNK         0.1400 
     43 CB          0.6661  -13.8862  -45.5925 C.3       6 UNK        -0.1800 
     44 N           0.6734  -15.4477  -43.7042 N.am      6 UNK        -0.5000 
     45 C           0.4874  -16.5709  -42.9982 C.2       5 UNK         0.5000 
     46 O          -0.2433  -17.5017  -43.3542 O.2       5 UNK        -0.5000 
     47 CA          1.3290  -16.6849  -41.7189 C.3       5 UNK         0.1400 
     48 CB          0.9291  -17.8815  -40.8282 C.3       5 UNK        -0.1800 
     49 N           2.7360  -16.7539  -42.1108 N.am      5 UNK        -0.5000 
     50 C           3.7887  -16.6654  -41.2862 C.2       4 UNK         0.5000 
     51 O           3.6954  -16.5276  -40.0659 O.2       4 UNK        -0.5000 
     52 CA          5.1912  -16.7185  -41.9291 C.3       4 UNK         0.1400 
     53 CB          5.6911  -18.1689  -42.0111 C.3       4 UNK        -0.1800 
     54 N           5.2435  -16.1205  -43.2642 N.am      4 UNK        -0.5000 
     55 C           5.0017  -14.8318  -43.5366 C.2       3 UNK         0.5000 
     56 O           4.8157  -13.9797  -42.6668 O.2       3 UNK        -0.5000 
     57 CA          4.9381  -14.4068  -45.0188 C.3       3 UNK         0.1400 
     58 CB          6.1905  -13.6002  -45.3961 C.3       3 UNK        -0.1800 
     59 N           4.7526  -15.4642  -46.0217 N.am      3 UNK        -0.5000 
     60 C           3.8063  -16.4117  -46.0602 C.2       2 UNK         0.5000 
     61 O           3.0483  -16.6609  -45.1249 O.2       2 UNK        -0.5000 
     62 CA          3.6566  -17.1561  -47.4032 C.3       2 UNK         0.1400 
     63 CB          2.7585  -18.4016  -47.3004 C.3       2 UNK        -0.1800 
     64 N           3.0974  -16.2572  -48.4142 N.am      2 UNK        -0.5000 
     65 C           3.7856  -15.3073  -49.0608 C.2       1 UNK         0.5000 
     66 O           4.9970  -15.1223  -48.9098 O.2       1 UNK        -0.5000 
     67 C          -1.9901  -21.6921  -46.8739 C.2       11 UNK         0.5000 
     68 O          -2.1943  -22.2882  -47.9305 O.2       11 UNK        -0.5000 
     69 N          -2.4685  -22.1077  -45.6938 N.am      12 UNK        -0.5000 
     70 CA         -3.1700  -23.3758  -45.4922 C.3       12 UNK         0.1400 
     71 CB         -3.8298  -23.3973  -44.1063 C.3       12 UNK        -0.1800 
     72 C          -2.2425  -24.5862  -45.6950 C.2       12 UNK         0.5000 
     73 O          -2.6183  -25.5174  -46.4064 O.2       12 UNK        -0.5000 
     74 N          -1.0313  -24.5285  -45.1214 N.am      13 UNK        -0.5000 
     75 CA          0.0161  -25.5424  -45.2785 C.3       13 UNK         0.1400 
     76 CB          1.1849  -25.2246  -44.3340 C.3       13 UNK        -0.1800 
     77 C           0.5122  -25.6802  -46.7311 C.2       13 UNK         0.5000 
     78 O           0.7577  -26.7973  -47.1870 O.2       13 UNK        -0.5000 
     79 N           0.6130  -24.5483  -47.4411 N.am      14 UNK        -0.5000 
     80 CA          0.9547  -24.4774  -48.8639 C.3       14 UNK         0.1400 
     81 CB          1.3895  -23.0394  -49.1914 C.3       14 UNK        -0.1800 
     82 C          -0.1929  -24.9083  -49.8026 C.2       14 UNK         0.5000 
     83 O           0.0482  -25.0762  -50.9980 O.2       14 UNK        -0.5000 
     84 N          -1.4150  -25.0359  -49.2616 N.am      15 UNK        -0.5000 
     85 CA         -2.6899  -25.2952  -49.9446 C.3       15 UNK         0.1400 
     86 CB         -2.6709  -26.6405  -50.6975 C.3       15 UNK        -0.1800 
     87 C          -3.1715  -24.1274  -50.8334 C.2       15 UNK         0.5000 
     88 O          -4.1348  -24.2850  -51.5836 O.2       15 UNK        -0.5000 
     89 N          -2.5419  -22.9553  -50.6919 N.am      16 UNK        -0.5000 
     90 CA         -2.9060  -21.7047  -51.3501 C.3       16 UNK         0.1400 
     91 CB         -1.7898  -20.6771  -51.1155 C.3       16 UNK        -0.1800 
     92 C          -4.2568  -21.1696  -50.8485 C.2       16 UNK         0.5000 
     93 O          -5.0735  -20.7287  -51.6560 O.2       16 UNK        -0.5000 
     94 N          -4.4917  -21.2724  -49.5312 N.am      17 UNK        -0.5000 
     95 CA         -5.7630  -20.9071  -48.8998 C.3       17 UNK         0.1400 
     96 CB         -5.5813  -20.7741  -47.3803 C.3       17 UNK        -0.1800 
     97 C          -6.8899  -21.9057  -49.2229 C.2       17 UNK         0.5000 
     98 O          -8.0474  -21.4981  -49.3104 O.2       17 UNK        -0.5000 
     99 N          -6.5317  -23.1829  -49.4246 N.am      18 UNK        -0.5000 
    100 CA        -7.4506  -24.2455  -49.8401 C.3       18 UNK         0.1400 
    101 CB        -6.7956  -25.6168  -49.6118 C.3       18 UNK        -0.1800 
    102 C         -7.8953  -24.0773  -51.3048 C.2       18 UNK         0.5000 
    103 O         -9.0746  -24.2590  -51.6089 O.2       18 UNK        -0.5000 
    104 N         -6.9518  -23.6874  -52.1740 N.am      19 UNK        -0.5000 
    105 CA        -7.2016  -23.3044  -53.5656 C.3       19 UNK         0.1400 
    106 CB        -5.8601  -23.2706  -54.3155 C.3       19 UNK        -0.1800 
    107 C         -7.9181  -21.9447  -53.7027 C.2       19 UNK         0.5000 
    108 O         -8.5129  -21.6820  -54.7485 O.2       19 UNK        -0.5000 
    109 N         -7.8277  -21.1116  -52.6549 N.am      20 UNK        -0.5000 
    110 CA        -8.2871  -19.7232  -52.5575 C.3       20 UNK         0.1400 
    111 CB        -9.8255  -19.6402  -52.6376 C.3       20 UNK        -0.1800 
    112 C         -7.5652  -18.8111  -53.5709 C.2       20 UNK         0.5000 
    113 O         -8.1980  -17.9814  -54.2275 O.2       20 UNK        -0.5000 
    114 N         -6.2473  -19.0058  -53.6915 N.am      21 UNK        -0.5000 
    115 CA        -5.3721  -18.3364  -54.6464 C.3       21 UNK         0.1400 
    116 CB        -5.5641  -18.9482  -56.0539 C.3       21 UNK        -0.1800 
    117 C         -3.9262  -18.3939  -54.1201 C.2       21 UNK         0.5000 
    118 O         -3.7020  -18.1132  -52.9417 O.2       21 UNK        -0.5000 
    119 N         -2.9801  -18.7527  -54.9924 N.am      22 UNK        -0.5000 
    120 CA        -1.5539  -18.9415  -54.7013 C.3       22 UNK         0.1400 
    121 C         -1.1105  -20.3749  -55.0959 C.2       22 UNK         0.5000 
    122 N         -0.0612  -20.8967  -54.4756 N.am      22 UNK        -0.7600 
    123 O         -1.6868  -21.0102  -55.9769 O.2       22 UNK        -0.5000 
    124 C124       -0.6809  -17.8808  -55.4201 C.3       23 UNK        -0.0398 
    125 S125       -0.9492  -16.1983  -54.7639 S.3       23 UNK        -0.2404 
    126 C126        0.3563  -16.0985  -53.4985 C.3       23 UNK        -0.0205 
    127 H127        5.2115  -13.0525  -53.0319 H         1 UNK         0.0600 
    128 H128        4.4768  -14.1493  -54.2046 H         1 UNK         0.0600 
    129 H129        5.9329  -14.6367  -53.3298 H         1 UNK         0.0600 
    130 H130        4.1030  -12.9877  -51.0967 H         1 UNK         0.3000 
    131 H131        2.1394  -14.9615  -50.3660 H         1 UNK         0.0600 
    132 H132        3.2196  -12.6428  -48.6738 H         1 UNK         0.0800 
    133 H133        1.7557  -13.5388  -48.3733 H         1 UNK         0.0800 
    134 H134       -0.8919  -11.8373  -50.5306 H         1 UNK         0.0800 
    135 H135       -0.5173  -12.4094  -48.9225 H         1 UNK         0.0800 
    136 H136        0.4339  -13.6143  -52.3826 H         1 UNK         0.1150 
    137 H137       -0.9506  -17.5966  -51.6405 H         1 UNK         0.1150 
    138 H138       -1.4700  -14.5665  -48.6563 H         1 UNK         0.1150 
    139 H139       -2.3807  -18.0216  -49.7831 H         1 UNK         0.0800 
    140 H140       -2.9270  -16.7171  -48.7632 H         1 UNK         0.0800 
    141 H141       -2.5289  -18.8422  -46.2994 H         1 UNK         0.0800 
    142 H142       -2.7491  -19.3959  -47.9389 H         1 UNK         0.0800 
    143 H143       -0.4275  -20.5389  -47.7237 H         1 UNK         0.0600 
    144 H144       -0.6494  -19.5911  -44.9945 H         1 UNK         0.3000 
    145 H145        1.7786  -21.8398  -43.6685 H         1 UNK         0.0600 
    146 H146        3.1769  -20.0488  -44.5458 H         1 UNK         0.0600 
    147 H147        2.7288  -19.6517  -42.9009 H         1 UNK         0.0600 
    148 H148        1.9252  -18.8484  -44.2521 H         1 UNK         0.0600 
    149 H149        0.0926  -19.6803  -42.6590 H         1 UNK         0.3000 
    150 H150       -2.4247  -21.9261  -41.4612 H         1 UNK         0.0600 
    151 H151       -0.2252  -20.5321  -39.8517 H         1 UNK         0.0600 
    152 H152       -0.5696  -22.2566  -39.8155 H         1 UNK         0.0600 
    153 H153       -1.7682  -21.1165  -39.2284 H         1 UNK         0.0600 
    154 H154       -2.2692  -19.2926  -40.7620 H         1 UNK         0.3000 
    155 H155       -4.6809  -18.3731  -42.5577 H         1 UNK         0.0600 
    156 H156       -3.8874  -16.3515  -41.3155 H         1 UNK         0.0600 
    157 H157       -2.2496  -16.9841  -41.2916 H         1 UNK         0.0600 
    158 H158       -3.5405  -17.8087  -40.4098 H         1 UNK         0.0600 
    159 H159       -2.3849  -17.3702  -44.0977 H         1 UNK         0.3000 
    160 H160       -3.9279  -16.4822  -46.5379 H         1 UNK         0.0600 
    161 H161       -4.2747  -13.7972  -45.1096 H         1 UNK         0.0600 
    162 H162       -5.4631  -14.6219  -46.1062 H         1 UNK         0.0600 
    163 H163       -3.9982  -13.9925  -46.8404 H         1 UNK         0.0600 
    164 H164       -1.7470  -16.2300  -46.4046 H         1 UNK         0.3000 
    165 H165        0.2457  -15.9866  -45.6569 H         1 UNK         0.0600 
    166 H166        1.7264  -14.0323  -45.7958 H         1 UNK         0.0600 
    167 H167        0.1847  -13.6288  -46.5366 H         1 UNK         0.0600 
    168 H168        0.5641  -13.0273  -44.9282 H         1 UNK         0.0600 
    169 H169        1.2970  -14.7439  -43.3396 H         1 UNK         0.3000 
    170 H170        1.1689  -15.7677  -41.1487 H         1 UNK         0.0600 
    171 H171        1.3683  -17.7987  -39.8345 H         1 UNK         0.0600 
    172 H172        1.2583  -18.8281  -41.2496 H         1 UNK         0.0600 
    173 H173       -0.1501  -17.9323  -40.6888 H         1 UNK         0.0600 
    174 H174        2.9021  -16.8210  -43.1127 H         1 UNK         0.3000 
    175 H175        5.8710  -16.1583  -41.2839 H         1 UNK         0.0600 
    176 H176        5.6693  -18.6463  -41.0305 H         1 UNK         0.0600 
    177 H177        5.0765  -18.7692  -42.6827 H         1 UNK         0.0600 
    178 H178        6.7197  -18.2116  -42.3694 H         1 UNK         0.0600 
    179 H179        5.3607  -16.7519  -44.0425 H         1 UNK         0.3000 
    180 H180        4.0763  -13.7433  -45.1071 H         1 UNK         0.0600 
    181 H181        7.0867  -14.2214  -45.3743 H         1 UNK         0.0600 
    182 H182        6.3490  -12.7697  -44.7067 H         1 UNK         0.0600 
    183 H183        6.1005  -13.1753  -46.3962 H         1 UNK         0.0600 
    184 H184        5.2809  -15.3366  -46.8782 H         1 UNK         0.3000 
    185 H185        4.6476  -17.4842  -47.7241 H         1 UNK         0.0600 
    186 H186        3.2240  -19.1592  -46.6720 H         1 UNK         0.0600 
    187 H187        1.7839  -18.1701  -46.8703 H         1 UNK         0.0600 
    188 H188        2.5923  -18.8556  -48.2774 H         1 UNK         0.0600 
    189 H189        2.1036  -16.3411  -48.5741 H         1 UNK         0.3000 
    190 H190       -2.3539  -21.5080  -44.8814 H         1 UNK         0.3000 
    191 H191       -3.9620  -23.4494  -46.2391 H         1 UNK         0.0600 
    192 H192       -4.5012  -22.5481  -43.9765 H         1 UNK         0.0600 
    193 H193       -4.4203  -24.3042  -43.9716 H         1 UNK         0.0600 
    194 H194       -3.0925  -23.3667  -43.3055 H         1 UNK         0.0600 
    195 H195       -0.8174  -23.7507  -44.5042 H         1 UNK         0.3000 
    196 H196       -0.4073  -26.5043  -44.9822 H         1 UNK         0.0600 
    197 H197        1.9701  -25.9770  -44.4162 H         1 UNK         0.0600 
    198 H198        0.8579  -25.2084  -43.2942 H         1 UNK         0.0600 
    199 H199        1.6324  -24.2562  -44.5589 H         1 UNK         0.0600 
    200 H200        0.4779  -23.6625  -46.9637 H         1 UNK         0.3000 
    201 H201        1.8000  -25.1425  -49.0514 H         1 UNK         0.0600 
    202 H202        1.7013  -22.9495  -50.2327 H         1 UNK         0.0600 
    203 H203        2.2330  -22.7310  -48.5734 H         1 UNK         0.0600 
    204 H204        0.5786  -22.3289  -49.0298 H         1 UNK         0.0600 
    205 H205       -1.4977  -24.8786  -48.2649 H         1 UNK         0.3000 
    206 H206       -3.4313  -25.3816  -49.1493 H         1 UNK         0.0600 
    207 H207       -2.3322  -27.4494  -50.0502 H         1 UNK         0.0600 
    208 H208       -3.6687  -26.9043  -51.0497 H         1 UNK         0.0600 
    209 H209       -2.0184  -26.6106  -51.5702 H         1 UNK         0.0600 
    210 H210       -1.8393  -22.8944  -49.9670 H         1 UNK         0.3000 
    211 H211       -2.9912  -21.8880  -52.4233 H         1 UNK         0.0600 
    212 H212       -1.6140  -20.5016  -50.0543 H         1 UNK         0.0600 
    213 H213       -2.0459  -19.7196  -51.5655 H         1 UNK         0.0600 
    214 H214       -0.8507  -21.0080  -51.5586 H         1 UNK         0.0600 
    215 H215       -3.7699  -21.6754  -48.9425 H         1 UNK         0.3000 
    216 H216       -6.0677  -19.9321  -49.2870 H         1 UNK         0.0600 
    217 H217       -6.5193  -20.4906  -46.9010 H         1 UNK         0.0600 
    218 H218       -5.2591  -21.7107  -46.9293 H         1 UNK         0.0600 
    219 H219       -4.8521  -20.0064  -47.1278 H         1 UNK         0.0600 
    220 H220       -5.5563  -23.4254  -49.3528 H         1 UNK         0.3000 
    221 H221       -8.3421  -24.1899  -49.2115 H         1 UNK         0.0600 
    222 H222       -5.9116  -25.7559  -50.2334 H         1 UNK         0.0600 
    223 H223       -6.4985  -25.7450  -48.5708 H         1 UNK         0.0600 
    224 H224       -7.4909  -26.4219  -49.8524 H         1 UNK         0.0600 
    225 H225       -5.9854  -23.6500  -51.8644 H         1 UNK         0.3000 
    226 H226       -7.8363  -24.0642  -54.0261 H         1 UNK         0.0600 
    227 H227       -6.0044  -23.0197  -55.3671 H         1 UNK         0.0600 
    228 H228       -5.1816  -22.5292  -53.8914 H         1 UNK         0.0600 
    229 H229       -5.3619  -24.2395  -54.2770 H         1 UNK         0.0600 
    230 H230       -7.2604  -21.4255  -51.8797 H         1 UNK         0.3000 
    231 H231       -7.9902  -19.3742  -51.5675 H         1 UNK         0.0600 
    232 H232      -10.1986  -19.9212  -53.6227 H         1 UNK         0.0600 
    233 H233      -10.1714  -18.6261  -52.4349 H         1 UNK         0.0600 
    234 H234      -10.2922  -20.2954  -51.9020 H         1 UNK         0.0600 
    235 H235       -5.7860  -19.6497  -53.0509 H         1 UNK         0.3000 
    236 H236       -5.6419  -17.2794  -54.6873 H         1 UNK         0.0600 
    237 H237       -5.2907  -20.0042  -56.0742 H         1 UNK         0.0600 
    238 H238       -6.6018  -18.8737  -56.3791 H         1 UNK         0.0600 
    239 H239       -4.9655  -18.4270  -56.8017 H         1 UNK         0.0600 
    240 H240       -3.2609  -19.0300  -55.9223 H         1 UNK         0.3000 
    241 H241       -1.3853  -18.8489  -53.6285 H         1 UNK         0.0600 
    242 H242        0.4475  -20.3934  -53.7665 H         1 UNK         0.3800 
    243 H243        0.2424  -21.8226  -54.7343 H         1 UNK         0.3800 
    244 H244       -0.9054  -17.8690  -56.4880 H         1 UNK         0.0800 
    245 H245        0.3804  -18.1242  -55.3466 H         1 UNK         0.0800 
    246 H246        0.8521  -17.0613  -53.3695 H         1 UNK         0.0800 
    247 H247        1.1296  -15.4085  -53.8399 H         1 UNK         0.0800 
@<TRIPOS>BOND
     1    1    2 1    
     2    1  127 1    
     3    1  128 1    
     4    1  129 1    
     5    2    3 2    
     6    2    4 am   BACKBONE|DICT|INTERRES
     7    4    5 1    
     8    4  130 1    
     9    5    6 1    
    10    5   65 1    
    11    5  131 1    
    12    6    7 1    
    13    6  132 1    
    14    6  133 1    
    15    7    8 1    
    16    8    9 1    
    17    8  134 1    
    18    8  135 1    
    19    9   10 ar   
    20    9   14 ar   
    21   10   11 ar   
    22   10  136 1    
    23   11   12 ar   
    24   11  126 1    
    25   12   13 ar   
    26   12  137 1    
    27   13   14 ar   
    28   13   15 1    
    29   14  138 1    
    30   15   16 1    
    31   15  139 1    
    32   15  140 1    
    33   16   17 1    
    34   17   18 1    
    35   17  141 1    
    36   17  142 1    
    37   18   19 1    
    38   18   67 1    
    39   18  143 1    
    40   19   20 am   BACKBONE|DICT|INTERRES
    41   19  144 1    
    42   20   21 2    
    43   20   22 1    
    44   22   23 1    
    45   22   24 1    
    46   22  145 1    
    47   23  146 1    
    48   23  147 1    
    49   23  148 1    
    50   24   25 am   BACKBONE|DICT|INTERRES
    51   24  149 1    
    52   25   26 2    
    53   25   27 1    
    54   27   28 1    
    55   27   29 1    
    56   27  150 1    
    57   28  151 1    
    58   28  152 1    
    59   28  153 1    
    60   29   30 am   BACKBONE|DICT|INTERRES
    61   29  154 1    
    62   30   31 2    
    63   30   32 1    
    64   32   33 1    
    65   32   34 1    
    66   32  155 1    
    67   33  156 1    
    68   33  157 1    
    69   33  158 1    
    70   34   35 am   BACKBONE|DICT|INTERRES
    71   34  159 1    
    72   35   36 2    
    73   35   37 1    
    74   37   38 1    
    75   37   39 1    
    76   37  160 1    
    77   38  161 1    
    78   38  162 1    
    79   38  163 1    
    80   39   40 am   BACKBONE|DICT|INTERRES
    81   39  164 1    
    82   40   41 2    
    83   40   42 1    
    84   42   43 1    
    85   42   44 1    
    86   42  165 1    
    87   43  166 1    
    88   43  167 1    
    89   43  168 1    
    90   44   45 am   BACKBONE|DICT|INTERRES
    91   44  169 1    
    92   45   46 2    
    93   45   47 1    
    94   47   48 1    
    95   47   49 1    
    96   47  170 1    
    97   48  171 1    
    98   48  172 1    
    99   48  173 1    
   100   49   50 am   BACKBONE|DICT|INTERRES
   101   49  174 1    
   102   50   51 2    
   103   50   52 1    
   104   52   53 1    
   105   52   54 1    
   106   52  175 1    
   107   53  176 1    
   108   53  177 1    
   109   53  178 1    
   110   54   55 am   BACKBONE|DICT|INTERRES
   111   54  179 1    
   112   55   56 2    
   113   55   57 1    
   114   57   58 1    
   115   57   59 1    
   116   57  180 1    
   117   58  181 1    
   118   58  182 1    
   119   58  183 1    
   120   59   60 am   BACKBONE|DICT|INTERRES
   121   59  184 1    
   122   60   61 2    
   123   60   62 1    
   124   62   63 1    
   125   62   64 1    
   126   62  185 1    
   127   63  186 1    
   128   63  187 1    
   129   63  188 1    
   130   64   65 am   BACKBONE|DICT|INTERRES
   131   64  189 1    
   132   65   66 2    
   133   67   68 2    
   134   67   69 am   BACKBONE|DICT|INTERRES
   135   69   70 1    
   136   69  190 1    
   137   70   71 1    
   138   70   72 1    
   139   70  191 1    
   140   71  192 1    
   141   71  193 1    
   142   71  194 1    
   143   72   73 2    
   144   72   74 am   BACKBONE|DICT|INTERRES
   145   74   75 1    
   146   74  195 1    
   147   75   76 1    
   148   75   77 1    
   149   75  196 1    
   150   76  197 1    
   151   76  198 1    
   152   76  199 1    
   153   77   78 2    
   154   77   79 am   BACKBONE|DICT|INTERRES
   155   79   80 1    
   156   79  200 1    
   157   80   81 1    
   158   80   82 1    
   159   80  201 1    
   160   81  202 1    
   161   81  203 1    
   162   81  204 1    
   163   82   83 2    
   164   82   84 am   BACKBONE|DICT|INTERRES
   165   84   85 1    
   166   84  205 1    
   167   85   86 1    
   168   85   87 1    
   169   85  206 1    
   170   86  207 1    
   171   86  208 1    
   172   86  209 1    
   173   87   88 2    
   174   87   89 am   BACKBONE|DICT|INTERRES
   175   89   90 1    
   176   89  210 1    
   177   90   91 1    
   178   90   92 1    
   179   90  211 1    
   180   91  212 1    
   181   91  213 1    
   182   91  214 1    
   183   92   93 2    
   184   92   94 am   BACKBONE|DICT|INTERRES
   185   94   95 1    
   186   94  215 1    
   187   95   96 1    
   188   95   97 1    
   189   95  216 1    
   190   96  217 1    
   191   96  218 1    
   192   96  219 1    
   193   97   98 2    
   194   97   99 am   BACKBONE|DICT|INTERRES
   195   99  100 1    
   196   99  220 1    
   197  100  101 1    
   198  100  102 1    
   199  100  221 1    
   200  101  222 1    
   201  101  223 1    
   202  101  224 1    
   203  102  103 2    
   204  102  104 am   BACKBONE|DICT|INTERRES
   205  104  105 1    
   206  104  225 1    
   207  105  106 1    
   208  105  107 1    
   209  105  226 1    
   210  106  227 1    
   211  106  228 1    
   212  106  229 1    
   213  107  108 2    
   214  107  109 am   BACKBONE|DICT|INTERRES
   215  109  110 1    
   216  109  230 1    
   217  110  111 1    
   218  110  112 1    
   219  110  231 1    
   220  111  232 1    
   221  111  233 1    
   222  111  234 1    
   223  112  113 2    
   224  112  114 am   BACKBONE|DICT|INTERRES
   225  114  115 1    
   226  114  235 1    
   227  115  116 1    
   228  115  117 1    
   229  115  236 1    
   230  116  237 1    
   231  116  238 1    
   232  116  239 1    
   233  117  118 2    
   234  117  119 am   BACKBONE|DICT|INTERRES
   235  119  120 1    
   236  119  240 1    
   237  120  121 1    
   238  120  124 1    
   239  120  241 1    
   240  121  122 am   BACKBONE|DICT|INTERRES
   241  121  123 2    
   242  122  242 1    
   243  122  243 1    
   244  124  125 1    
   245  124  244 1    
   246  124  245 1    
   247  125  126 1    
   248  126  246 1    
   249  126  247 1    
@<TRIPOS>SUBSTRUCTURE
     1 UNK         1 GROUP             0       ****    0 ROOT    
