@<TRIPOS>MOLECULE
3R540
247   249    1
SMALL
USER_CHARGES


@<TRIPOS>ATOM
      1 CA          6.1528  -11.2736  -49.2224 C.3       0 UNK        -0.1800 
      2 C           5.1600  -11.7493  -48.1711 C.2       0 UNK         0.5000 
      3 O           5.4757  -11.7403  -46.9811 O.2       0 UNK        -0.5000 
      4 N           3.9644  -12.1595  -48.6043 N.am      1 UNK        -0.5000 
      5 CA          2.8899  -12.6707  -47.7498 C.3       1 UNK         0.1400 
      6 C6          3.0748  -14.1632  -47.3570 C.3       23 UNK        -0.0398 
      7 S7          3.2146  -15.3131  -48.7732 S.3       23 UNK        -0.2404 
      8 C8          1.7414  -16.3425  -48.5039 C.3       23 UNK        -0.0205 
      9 C9          1.4272  -17.2126  -49.7071 C.ar      23 UNK        -0.0193 
     10 C10         0.7717  -16.6596  -50.8105 C.ar      23 UNK        -0.1150 
     11 C11         0.4363  -17.4475  -51.9149 C.ar      23 UNK        -0.0193 
     12 C12         0.7616  -18.8104  -51.8939 C.ar      23 UNK        -0.1150 
     13 C13         1.4141  -19.3785  -50.7960 C.ar      23 UNK        -0.0193 
     14 C14         1.7529  -18.5714  -49.7062 C.ar      23 UNK        -0.1150 
     15 C15         1.7482  -20.8642  -50.7957 C.3       23 UNK        -0.0205 
     16 S16         0.3226  -21.8849  -50.2969 S.3       23 UNK        -0.2404 
     17 C17         0.2227  -21.5350  -48.5094 C.3       23 UNK        -0.0398 
     18 CA          0.0756  -22.8162  -47.6533 C.3       11 UNK         0.1400 
     19 N           0.5545  -22.6117  -46.2827 N.am      11 UNK        -0.5000 
     20 C           0.6666  -23.5774  -45.3589 C.2       10 UNK         0.5000 
     21 O           0.4256  -24.7639  -45.5756 O.2       10 UNK        -0.5000 
     22 CA          1.0596  -23.1387  -43.9385 C.3       10 UNK         0.1400 
     23 CB          2.5752  -22.9123  -43.8374 C.3       10 UNK        -0.1800 
     24 N           0.3461  -21.9356  -43.5098 N.am      10 UNK        -0.5000 
     25 C          -0.9829  -21.8553  -43.3504 C.2       9 UNK         0.5000 
     26 O          -1.7458  -22.8105  -43.4926 O.2       9 UNK        -0.5000 
     27 CA         -1.5634  -20.4646  -43.0325 C.3       9 UNK         0.1400 
     28 CB         -1.4022  -20.1277  -41.5432 C.3       9 UNK        -0.1800 
     29 N          -0.9623  -19.4058  -43.8444 N.am      9 UNK        -0.5000 
     30 C          -1.0456  -19.3320  -45.1810 C.2       8 UNK         0.5000 
     31 O          -1.6720  -20.1297  -45.8769 O.2       8 UNK        -0.5000 
     32 CA         -0.2438  -18.2100  -45.8575 C.3       8 UNK         0.1400 
     33 CB         -1.0093  -16.8783  -45.8113 C.3       8 UNK        -0.1800 
     34 N           1.0728  -18.0513  -45.2405 N.am      8 UNK        -0.5000 
     35 C           2.0741  -18.9331  -45.3741 C.2       7 UNK         0.5000 
     36 O           1.9957  -19.9581  -46.0506 O.2       7 UNK        -0.5000 
     37 CA          3.3675  -18.6310  -44.5964 C.3       7 UNK         0.1400 
     38 CB          4.2228  -17.6083  -45.3607 C.3       7 UNK        -0.1800 
     39 N           3.1109  -18.1351  -43.2429 N.am      7 UNK        -0.5000 
     40 C           2.5100  -18.8414  -42.2739 C.2       6 UNK         0.5000 
     41 O           2.1519  -20.0101  -42.4043 O.2       6 UNK        -0.5000 
     42 CA          2.2090  -18.1048  -40.9543 C.3       6 UNK         0.1400 
     43 CB          3.3819  -18.2570  -39.9749 C.3       6 UNK        -0.1800 
     44 N           1.9031  -16.6814  -41.1274 N.am      6 UNK        -0.5000 
     45 C           0.9077  -16.1933  -41.8789 C.2       5 UNK         0.5000 
     46 O           0.1290  -16.8981  -42.5301 O.2       5 UNK        -0.5000 
     47 CA          0.8042  -14.6642  -41.9536 C.3       5 UNK         0.1400 
     48 CB          2.0145  -14.0700  -42.7034 C.3       5 UNK        -0.1800 
     49 N          -0.4248  -14.3132  -42.6537 N.am      5 UNK        -0.5000 
     50 C          -1.0190  -13.1181  -42.6383 C.2       4 UNK         0.5000 
     51 O          -0.6510  -12.1720  -41.9372 O.2       4 UNK        -0.5000 
     52 CA         -2.2284  -12.9501  -43.5790 C.3       4 UNK         0.1400 
     53 CB         -3.5449  -12.9933  -42.7883 C.3       4 UNK        -0.1800 
     54 N          -2.1634  -11.7018  -44.3438 N.am      4 UNK        -0.5000 
     55 C          -1.1735  -11.3728  -45.1848 C.2       3 UNK         0.5000 
     56 O          -0.2085  -12.1031  -45.4273 O.2       3 UNK        -0.5000 
     57 CA         -1.2650   -9.9843  -45.8429 C.3       3 UNK         0.1400 
     58 CB         -0.7325   -8.9017  -44.8907 C.3       3 UNK        -0.1800 
     59 N          -0.4644   -9.9671  -47.0647 N.am      3 UNK        -0.5000 
     60 C          -0.9148  -10.2921  -48.2828 C.2       2 UNK         0.5000 
     61 O          -2.1046  -10.4560  -48.5559 O.2       2 UNK        -0.5000 
     62 CA          0.1560  -10.4962  -49.3741 C.3       2 UNK         0.1400 
     63 CB          0.4658   -9.1709  -50.0868 C.3       2 UNK        -0.1800 
     64 N           1.4007  -11.0630  -48.8435 N.am      2 UNK        -0.5000 
     65 C           1.5219  -12.3118  -48.3655 C.2       1 UNK         0.5000 
     66 O           0.6140  -13.1415  -48.4124 O.2       1 UNK        -0.5000 
     67 C          -1.3700  -23.3576  -47.6768 C.2       11 UNK         0.5000 
     68 O          -1.6419  -24.3388  -48.3698 O.2       11 UNK        -0.5000 
     69 N          -2.2506  -22.7456  -46.8709 N.am      12 UNK        -0.5000 
     70 CA         -3.6495  -23.1395  -46.7141 C.3       12 UNK         0.1400 
     71 CB         -4.3972  -22.0950  -45.8723 C.3       12 UNK        -0.1800 
     72 C          -3.8163  -24.5470  -46.1176 C.2       12 UNK         0.5000 
     73 O          -4.6917  -25.2896  -46.5589 O.2       12 UNK        -0.5000 
     74 N          -2.9646  -24.9024  -45.1481 N.am      13 UNK        -0.5000 
     75 CA         -2.9162  -26.2356  -44.5518 C.3       13 UNK         0.1400 
     76 CB         -2.0562  -26.1953  -43.2792 C.3       13 UNK        -0.1800 
     77 C          -2.3944  -27.3035  -45.5318 C.2       13 UNK         0.5000 
     78 O          -2.9484  -28.4024  -45.5818 O.2       13 UNK        -0.5000 
     79 N          -1.3363  -26.9680  -46.2811 N.am      14 UNK        -0.5000 
     80 CA         -0.6483  -27.8823  -47.1894 C.3       14 UNK         0.1400 
     81 CB          0.7622  -27.3450  -47.4785 C.3       14 UNK        -0.1800 
     82 C          -1.3978  -28.1343  -48.5084 C.2       14 UNK         0.5000 
     83 O          -1.4403  -29.2802  -48.9592 O.2       14 UNK        -0.5000 
     84 N          -1.9283  -27.0705  -49.1255 N.am      15 UNK        -0.5000 
     85 CA         -2.3794  -27.0777  -50.5204 C.3       15 UNK         0.1400 
     86 CB         -1.3029  -26.3861  -51.3771 C.3       15 UNK        -0.1800 
     87 C          -3.7761  -26.4607  -50.7240 C.2       15 UNK         0.5000 
     88 O          -4.1575  -26.2196  -51.8701 O.2       15 UNK        -0.5000 
     89 N          -4.5230  -26.2531  -49.6297 N.am      16 UNK        -0.5000 
     90 CA         -5.8563  -25.6403  -49.5487 C.3       16 UNK         0.1400 
     91 CB         -6.8703  -26.3243  -50.4910 C.3       16 UNK        -0.1800 
     92 C          -5.8325  -24.1123  -49.7516 C.2       16 UNK         0.5000 
     93 O          -4.8444  -23.5412  -50.2199 O.2       16 UNK        -0.5000 
     94 N          -6.9430  -23.4614  -49.3798 N.am      17 UNK        -0.5000 
     95 CA         -7.1142  -22.0050  -49.4058 C.3       17 UNK         0.1400 
     96 CB         -8.4736  -21.6456  -48.7893 C.3       17 UNK        -0.1800 
     97 C          -6.9719  -21.3745  -50.8046 C.2       17 UNK         0.5000 
     98 O          -6.5499  -20.2241  -50.9057 O.2       17 UNK        -0.5000 
     99 N          -7.2826  -22.1445  -51.8569 N.am      18 UNK        -0.5000 
    100 CA        -7.1055  -21.7526  -53.2562 C.3       18 UNK         0.1400 
    101 CB        -7.7404  -22.8169  -54.1631 C.3       18 UNK        -0.1800 
    102 C         -5.6300  -21.5266  -53.6390 C.2       18 UNK         0.5000 
    103 O         -5.3430  -20.6263  -54.4307 O.2       18 UNK        -0.5000 
    104 N         -4.7216  -22.3199  -53.0510 N.am      19 UNK        -0.5000 
    105 CA        -3.2786  -22.1672  -53.2218 C.3       19 UNK         0.1400 
    106 CB        -2.5530  -23.4522  -52.8087 C.3       19 UNK        -0.1800 
    107 C         -2.7471  -20.9666  -52.4298 C.2       19 UNK         0.5000 
    108 O         -1.9538  -20.2042  -52.9733 O.2       19 UNK        -0.5000 
    109 N         -3.2376  -20.7801  -51.1952 N.am      20 UNK        -0.5000 
    110 CA        -2.8979  -19.6425  -50.3322 C.3       20 UNK         0.1400 
    111 CB        -3.4745  -19.8806  -48.9314 C.3       20 UNK        -0.1800 
    112 C         -3.3767  -18.2872  -50.8889 C.2       20 UNK         0.5000 
    113 O         -2.7531  -17.2621  -50.6182 O.2       20 UNK        -0.5000 
    114 N         -4.4632  -18.3093  -51.6700 N.am      21 UNK        -0.5000 
    115 CA        -4.9694  -17.1756  -52.4409 C.3       21 UNK         0.1400 
    116 CB        -6.4711  -17.3885  -52.6896 C.3       21 UNK        -0.1800 
    117 C         -4.2286  -16.9791  -53.7804 C.2       21 UNK         0.5000 
    118 O         -4.4083  -15.9350  -54.4088 O.2       21 UNK        -0.5000 
    119 N         -3.4296  -17.9714  -54.2016 N.am      22 UNK        -0.5000 
    120 CA        -2.7384  -18.0516  -55.4997 C.3       22 UNK         0.1400 
    121 C         -3.7208  -18.0513  -56.7108 C.2       22 UNK         0.5000 
    122 N         -4.8407  -18.7597  -56.6179 N.am      22 UNK        -0.7600 
    123 O         -3.4758  -17.4282  -57.7409 O.2       22 UNK        -0.5000 
    124 C124       -1.5564  -17.0426  -55.6199 C.3       23 UNK        -0.0398 
    125 S125       -0.0853  -17.6035  -54.6930 S.3       23 UNK        -0.2404 
    126 C126       -0.3347  -16.8071  -53.0709 C.3       23 UNK        -0.0205 
    127 H127        7.0555  -11.8836  -49.1886 H         1 UNK         0.0600 
    128 H128        6.4326  -10.2373  -49.0330 H         1 UNK         0.0600 
    129 H129        5.7386  -11.3355  -50.2291 H         1 UNK         0.0600 
    130 H130        3.7602  -12.1572  -49.5946 H         1 UNK         0.3000 
    131 H131        2.9097  -12.1040  -46.8161 H         1 UNK         0.0600 
    132 H132        3.9855  -14.2659  -46.7658 H         1 UNK         0.0800 
    133 H133        2.2679  -14.4784  -46.6931 H         1 UNK         0.0800 
    134 H134        0.8777  -15.7131  -48.2899 H         1 UNK         0.0800 
    135 H135        1.9032  -16.9573  -47.6203 H         1 UNK         0.0800 
    136 H136        0.5076  -15.6111  -50.7980 H         1 UNK         0.1150 
    137 H137        0.4905  -19.4461  -52.7238 H         1 UNK         0.1150 
    138 H138        2.2568  -19.0013  -48.8519 H         1 UNK         0.1150 
    139 H139        2.5988  -21.0701  -50.1441 H         1 UNK         0.0800 
    140 H140        2.0569  -21.1643  -51.7981 H         1 UNK         0.0800 
    141 H141       -0.5826  -20.8234  -48.3219 H         1 UNK         0.0800 
    142 H142        1.1395  -21.0223  -48.2245 H         1 UNK         0.0800 
    143 H143        0.7174  -23.5879  -48.0842 H         1 UNK         0.0600 
    144 H144        0.8094  -21.6637  -46.0282 H         1 UNK         0.3000 
    145 H145        0.7910  -23.9469  -43.2552 H         1 UNK         0.0600 
    146 H146        2.8724  -22.6949  -42.8114 H         1 UNK         0.0600 
    147 H147        3.1252  -23.7994  -44.1540 H         1 UNK         0.0600 
    148 H148        2.9020  -22.0811  -44.4629 H         1 UNK         0.0600 
    149 H149        0.9171  -21.1188  -43.3087 H         1 UNK         0.3000 
    150 H150       -2.6307  -20.4893  -43.2611 H         1 UNK         0.0600 
    151 H151       -1.9140  -20.8631  -40.9214 H         1 UNK         0.0600 
    152 H152       -1.8261  -19.1507  -41.3101 H         1 UNK         0.0600 
    153 H153       -0.3549  -20.1191  -41.2430 H         1 UNK         0.0600 
    154 H154       -0.4449  -18.6853  -43.3521 H         1 UNK         0.3000 
    155 H155       -0.1018  -18.4827  -46.9058 H         1 UNK         0.0600 
    156 H156       -1.2556  -16.5852  -44.7911 H         1 UNK         0.0600 
    157 H157       -0.4331  -16.0699  -46.2610 H         1 UNK         0.0600 
    158 H158       -1.9471  -16.9545  -46.3630 H         1 UNK         0.0600 
    159 H159        1.1842  -17.2797  -44.5988 H         1 UNK         0.3000 
    160 H160        3.9328  -19.5618  -44.5154 H         1 UNK         0.0600 
    161 H161        4.4297  -17.9516  -46.3754 H         1 UNK         0.0600 
    162 H162        3.7244  -16.6413  -45.4387 H         1 UNK         0.0600 
    163 H163        5.1833  -17.4520  -44.8695 H         1 UNK         0.0600 
    164 H164        3.3792  -17.1828  -43.0455 H         1 UNK         0.3000 
    165 H165        1.3313  -18.5759  -40.5085 H         1 UNK         0.0600 
    166 H166        3.1444  -17.8225  -39.0037 H         1 UNK         0.0600 
    167 H167        3.6181  -19.3091  -39.8091 H         1 UNK         0.0600 
    168 H168        4.2849  -17.7727  -40.3488 H         1 UNK         0.0600 
    169 H169        2.4996  -16.0351  -40.6310 H         1 UNK         0.3000 
    170 H170        0.7657  -14.2731  -40.9349 H         1 UNK         0.0600 
    171 H171        2.9528  -14.3087  -42.2020 H         1 UNK         0.0600 
    172 H172        2.0791  -14.4496  -43.7242 H         1 UNK         0.0600 
    173 H173        1.9529  -12.9831  -42.7597 H         1 UNK         0.0600 
    174 H174       -0.8182  -15.0761  -43.1895 H         1 UNK         0.3000 
    175 H175       -2.2325  -13.7733  -44.2968 H         1 UNK         0.0600 
    176 H176       -3.6126  -12.1710  -42.0748 H         1 UNK         0.0600 
    177 H177       -4.4075  -12.9347  -43.4524 H         1 UNK         0.0600 
    178 H178       -3.6315  -13.9238  -42.2258 H         1 UNK         0.0600 
    179 H179       -2.8994  -11.0333  -44.1699 H         1 UNK         0.3000 
    180 H180       -2.3099   -9.7678  -46.0752 H         1 UNK         0.0600 
    181 H181        0.3051   -9.0868  -44.6094 H         1 UNK         0.0600 
    182 H182       -1.3191   -8.8644  -43.9720 H         1 UNK         0.0600 
    183 H183       -0.7847   -7.9139  -45.3490 H         1 UNK         0.0600 
    184 H184        0.5344   -9.9131  -46.9332 H         1 UNK         0.3000 
    185 H185       -0.2495  -11.1930  -50.1109 H         1 UNK         0.0600 
    186 H186        1.1694   -9.3187  -50.9063 H         1 UNK         0.0600 
    187 H187       -0.4398   -8.7361  -50.5118 H         1 UNK         0.0600 
    188 H188        0.8936   -8.4356  -49.4042 H         1 UNK         0.0600 
    189 H189        2.1958  -10.4427  -48.7863 H         1 UNK         0.3000 
    190 H190       -1.9535  -21.9213  -46.3539 H         1 UNK         0.3000 
    191 H191       -4.0936  -23.1460  -47.7083 H         1 UNK         0.0600 
    192 H192       -3.9875  -22.0216  -44.8648 H         1 UNK         0.0600 
    193 H193       -5.4531  -22.3522  -45.7807 H         1 UNK         0.0600 
    194 H194       -4.3428  -21.1058  -46.3264 H         1 UNK         0.0600 
    195 H195       -2.3144  -24.2110  -44.7871 H         1 UNK         0.3000 
    196 H196       -3.9315  -26.5156  -44.2631 H         1 UNK         0.0600 
    197 H197       -2.0183  -27.1751  -42.8016 H         1 UNK         0.0600 
    198 H198       -2.4635  -25.4933  -42.5514 H         1 UNK         0.0600 
    199 H199       -1.0306  -25.8940  -43.4943 H         1 UNK         0.0600 
    200 H200       -0.9076  -26.0565  -46.1463 H         1 UNK         0.3000 
    201 H201       -0.5376  -28.8444  -46.6844 H         1 UNK         0.0600 
    202 H202        1.3456  -27.2577  -46.5618 H         1 UNK         0.0600 
    203 H203        0.7289  -26.3611  -47.9485 H         1 UNK         0.0600 
    204 H204        1.3071  -28.0117  -48.1481 H         1 UNK         0.0600 
    205 H205       -1.8414  -26.1491  -48.6982 H         1 UNK         0.3000 
    206 H206       -2.4747  -28.1032  -50.8818 H         1 UNK         0.0600 
    207 H207       -0.3526  -26.9162  -51.3136 H         1 UNK         0.0600 
    208 H208       -1.5840  -26.3579  -52.4303 H         1 UNK         0.0600 
    209 H209       -1.1316  -25.3606  -51.0488 H         1 UNK         0.0600 
    210 H210       -4.0979  -26.4601  -48.7363 H         1 UNK         0.3000 
    211 H211       -6.2011  -25.8209  -48.5310 H         1 UNK         0.0600 
    212 H212       -6.7023  -26.0643  -51.5364 H         1 UNK         0.0600 
    213 H213       -7.8909  -26.0270  -50.2489 H         1 UNK         0.0600 
    214 H214       -6.8231  -27.4096  -50.4022 H         1 UNK         0.0600 
    215 H215       -7.7161  -23.9926  -49.0056 H         1 UNK         0.3000 
    216 H216       -6.3326  -21.5746  -48.7767 H         1 UNK         0.0600 
    217 H217       -8.6209  -20.5648  -48.7712 H         1 UNK         0.0600 
    218 H218       -8.5464  -21.9984  -47.7604 H         1 UNK         0.0600 
    219 H219       -9.2992  -22.0801  -49.3543 H         1 UNK         0.0600 
    220 H220       -7.6204  -23.0792  -51.6829 H         1 UNK         0.3000 
    221 H221       -7.6346  -20.8100  -53.4109 H         1 UNK         0.0600 
    222 H222       -7.2691  -23.7918  -54.0312 H         1 UNK         0.0600 
    223 H223       -8.8051  -22.9271  -53.9568 H         1 UNK         0.0600 
    224 H224       -7.6407  -22.5433  -55.2144 H         1 UNK         0.0600 
    225 H225       -5.0237  -22.9997  -52.3640 H         1 UNK         0.3000 
    226 H226       -3.0709  -21.9924  -54.2799 H         1 UNK         0.0600 
    227 H227       -2.8974  -24.3046  -53.3938 H         1 UNK         0.0600 
    228 H228       -1.4776  -23.3606  -52.9658 H         1 UNK         0.0600 
    229 H229       -2.7086  -23.6793  -51.7542 H         1 UNK         0.0600 
    230 H230       -3.8827  -21.4661  -50.8250 H         1 UNK         0.3000 
    231 H231       -1.8097  -19.5980  -50.2538 H         1 UNK         0.0600 
    232 H232       -3.1426  -19.1088  -48.2356 H         1 UNK         0.0600 
    233 H233       -3.1457  -20.8381  -48.5350 H         1 UNK         0.0600 
    234 H234       -4.5644  -19.8743  -48.9359 H         1 UNK         0.0600 
    235 H235       -4.9851  -19.1754  -51.7438 H         1 UNK         0.3000 
    236 H236       -4.8453  -16.2618  -51.8564 H         1 UNK         0.0600 
    237 H237       -7.0168  -17.4825  -51.7505 H         1 UNK         0.0600 
    238 H238       -6.9028  -16.5477  -53.2338 H         1 UNK         0.0600 
    239 H239       -6.6563  -18.2897  -53.2754 H         1 UNK         0.0600 
    240 H240       -3.2936  -18.7746  -53.6006 H         1 UNK         0.3000 
    241 H241       -2.3050  -19.0518  -55.5349 H         1 UNK         0.0600 
    242 H242       -5.4855  -18.7730  -57.3916 H         1 UNK         0.3800 
    243 H243       -5.0333  -19.3218  -55.7919 H         1 UNK         0.3800 
    244 H244       -1.2316  -16.9440  -56.6564 H         1 UNK         0.0800 
    245 H245       -1.8481  -16.0407  -55.3034 H         1 UNK         0.0800 
    246 H246       -0.0643  -15.7543  -53.1638 H         1 UNK         0.0800 
    247 H247       -1.3920  -16.8316  -52.8173 H         1 UNK         0.0800 
@<TRIPOS>BOND
     1    1    2 1    
     2    1  127 1    
     3    1  128 1    
     4    1  129 1    
     5    2    3 2    
     6    2    4 am   BACKBONE|DICT|INTERRES
     7    4    5 1    
     8    4  130 1    
     9    5    6 1    
    10    5   65 1    
    11    5  131 1    
    12    6    7 1    
    13    6  132 1    
    14    6  133 1    
    15    7    8 1    
    16    8    9 1    
    17    8  134 1    
    18    8  135 1    
    19    9   10 ar   
    20    9   14 ar   
    21   10   11 ar   
    22   10  136 1    
    23   11   12 ar   
    24   11  126 1    
    25   12   13 ar   
    26   12  137 1    
    27   13   14 ar   
    28   13   15 1    
    29   14  138 1    
    30   15   16 1    
    31   15  139 1    
    32   15  140 1    
    33   16   17 1    
    34   17   18 1    
    35   17  141 1    
    36   17  142 1    
    37   18   19 1    
    38   18   67 1    
    39   18  143 1    
    40   19   20 am   BACKBONE|DICT|INTERRES
    41   19  144 1    
    42   20   21 2    
    43   20   22 1    
    44   22   23 1    
    45   22   24 1    
    46   22  145 1    
    47   23  146 1    
    48   23  147 1    
    49   23  148 1    
    50   24   25 am   BACKBONE|DICT|INTERRES
    51   24  149 1    
    52   25   26 2    
    53   25   27 1    
    54   27   28 1    
    55   27   29 1    
    56   27  150 1    
    57   28  151 1    
    58   28  152 1    
    59   28  153 1    
    60   29   30 am   BACKBONE|DICT|INTERRES
    61   29  154 1    
    62   30   31 2    
    63   30   32 1    
    64   32   33 1    
    65   32   34 1    
    66   32  155 1    
    67   33  156 1    
    68   33  157 1    
    69   33  158 1    
    70   34   35 am   BACKBONE|DICT|INTERRES
    71   34  159 1    
    72   35   36 2    
    73   35   37 1    
    74   37   38 1    
    75   37   39 1    
    76   37  160 1    
    77   38  161 1    
    78   38  162 1    
    79   38  163 1    
    80   39   40 am   BACKBONE|DICT|INTERRES
    81   39  164 1    
    82   40   41 2    
    83   40   42 1    
    84   42   43 1    
    85   42   44 1    
    86   42  165 1    
    87   43  166 1    
    88   43  167 1    
    89   43  168 1    
    90   44   45 am   BACKBONE|DICT|INTERRES
    91   44  169 1    
    92   45   46 2    
    93   45   47 1    
    94   47   48 1    
    95   47   49 1    
    96   47  170 1    
    97   48  171 1    
    98   48  172 1    
    99   48  173 1    
   100   49   50 am   BACKBONE|DICT|INTERRES
   101   49  174 1    
   102   50   51 2    
   103   50   52 1    
   104   52   53 1    
   105   52   54 1    
   106   52  175 1    
   107   53  176 1    
   108   53  177 1    
   109   53  178 1    
   110   54   55 am   BACKBONE|DICT|INTERRES
   111   54  179 1    
   112   55   56 2    
   113   55   57 1    
   114   57   58 1    
   115   57   59 1    
   116   57  180 1    
   117   58  181 1    
   118   58  182 1    
   119   58  183 1    
   120   59   60 am   BACKBONE|DICT|INTERRES
   121   59  184 1    
   122   60   61 2    
   123   60   62 1    
   124   62   63 1    
   125   62   64 1    
   126   62  185 1    
   127   63  186 1    
   128   63  187 1    
   129   63  188 1    
   130   64   65 am   BACKBONE|DICT|INTERRES
   131   64  189 1    
   132   65   66 2    
   133   67   68 2    
   134   67   69 am   BACKBONE|DICT|INTERRES
   135   69   70 1    
   136   69  190 1    
   137   70   71 1    
   138   70   72 1    
   139   70  191 1    
   140   71  192 1    
   141   71  193 1    
   142   71  194 1    
   143   72   73 2    
   144   72   74 am   BACKBONE|DICT|INTERRES
   145   74   75 1    
   146   74  195 1    
   147   75   76 1    
   148   75   77 1    
   149   75  196 1    
   150   76  197 1    
   151   76  198 1    
   152   76  199 1    
   153   77   78 2    
   154   77   79 am   BACKBONE|DICT|INTERRES
   155   79   80 1    
   156   79  200 1    
   157   80   81 1    
   158   80   82 1    
   159   80  201 1    
   160   81  202 1    
   161   81  203 1    
   162   81  204 1    
   163   82   83 2    
   164   82   84 am   BACKBONE|DICT|INTERRES
   165   84   85 1    
   166   84  205 1    
   167   85   86 1    
   168   85   87 1    
   169   85  206 1    
   170   86  207 1    
   171   86  208 1    
   172   86  209 1    
   173   87   88 2    
   174   87   89 am   BACKBONE|DICT|INTERRES
   175   89   90 1    
   176   89  210 1    
   177   90   91 1    
   178   90   92 1    
   179   90  211 1    
   180   91  212 1    
   181   91  213 1    
   182   91  214 1    
   183   92   93 2    
   184   92   94 am   BACKBONE|DICT|INTERRES
   185   94   95 1    
   186   94  215 1    
   187   95   96 1    
   188   95   97 1    
   189   95  216 1    
   190   96  217 1    
   191   96  218 1    
   192   96  219 1    
   193   97   98 2    
   194   97   99 am   BACKBONE|DICT|INTERRES
   195   99  100 1    
   196   99  220 1    
   197  100  101 1    
   198  100  102 1    
   199  100  221 1    
   200  101  222 1    
   201  101  223 1    
   202  101  224 1    
   203  102  103 2    
   204  102  104 am   BACKBONE|DICT|INTERRES
   205  104  105 1    
   206  104  225 1    
   207  105  106 1    
   208  105  107 1    
   209  105  226 1    
   210  106  227 1    
   211  106  228 1    
   212  106  229 1    
   213  107  108 2    
   214  107  109 am   BACKBONE|DICT|INTERRES
   215  109  110 1    
   216  109  230 1    
   217  110  111 1    
   218  110  112 1    
   219  110  231 1    
   220  111  232 1    
   221  111  233 1    
   222  111  234 1    
   223  112  113 2    
   224  112  114 am   BACKBONE|DICT|INTERRES
   225  114  115 1    
   226  114  235 1    
   227  115  116 1    
   228  115  117 1    
   229  115  236 1    
   230  116  237 1    
   231  116  238 1    
   232  116  239 1    
   233  117  118 2    
   234  117  119 am   BACKBONE|DICT|INTERRES
   235  119  120 1    
   236  119  240 1    
   237  120  121 1    
   238  120  124 1    
   239  120  241 1    
   240  121  122 am   BACKBONE|DICT|INTERRES
   241  121  123 2    
   242  122  242 1    
   243  122  243 1    
   244  124  125 1    
   245  124  244 1    
   246  124  245 1    
   247  125  126 1    
   248  126  246 1    
   249  126  247 1    
@<TRIPOS>SUBSTRUCTURE
     1 UNK         1 GROUP             0       ****    0 ROOT    
