@<TRIPOS>MOLECULE
3R540
247   249    1
SMALL
USER_CHARGES


@<TRIPOS>ATOM
      1 CA          3.8426  -14.3011  -44.0253 C.3       0 UNK        -0.1800 
      2 C           3.0092  -14.2996  -45.2980 C.2       0 UNK         0.5000 
      3 O           2.0446  -13.5392  -45.4037 O.2       0 UNK        -0.5000 
      4 N           3.3975  -15.1297  -46.2736 N.am      1 UNK        -0.5000 
      5 CA          2.8097  -15.1938  -47.6202 C.3       1 UNK         0.1400 
      6 C6          3.3259  -16.4140  -48.4247 C.3       23 UNK        -0.0398 
      7 S7          3.0761  -17.9952  -47.5494 S.3       23 UNK        -0.2404 
      8 C8          2.1464  -18.9823  -48.7620 C.3       23 UNK        -0.0205 
      9 C9          0.7646  -18.4140  -49.0472 C.ar      23 UNK        -0.0193 
     10 C10         0.4373  -17.9622  -50.3293 C.ar      23 UNK        -0.1150 
     11 C11        -0.8400  -17.4636  -50.6008 C.ar      23 UNK        -0.0193 
     12 C12        -1.7949  -17.4294  -49.5802 C.ar      23 UNK        -0.1150 
     13 C13        -1.4823  -17.8860  -48.2963 C.ar      23 UNK        -0.0193 
     14 C14        -0.1953  -18.3626  -48.0331 C.ar      23 UNK        -0.1150 
     15 C15        -2.5338  -17.8498  -47.1980 C.3       23 UNK        -0.0205 
     16 S16        -3.3143  -19.4716  -46.9287 S.3       23 UNK        -0.2404 
     17 C17        -2.0942  -20.3062  -45.8639 C.3       23 UNK        -0.0398 
     18 CA         -1.2434  -21.3665  -46.6072 C.3       11 UNK         0.1400 
     19 N           0.0602  -21.5480  -45.9545 N.am      11 UNK        -0.5000 
     20 C           1.0295  -22.4043  -46.3116 C.2       10 UNK         0.5000 
     21 O           0.9485  -23.1781  -47.2632 O.2       10 UNK        -0.5000 
     22 CA          2.2756  -22.4470  -45.4152 C.3       10 UNK         0.1400 
     23 CB          3.2216  -21.2794  -45.7285 C.3       10 UNK        -0.1800 
     24 N           1.8959  -22.4213  -44.0039 N.am      10 UNK        -0.5000 
     25 C           1.4527  -23.4923  -43.3296 C.2       9 UNK         0.5000 
     26 O           1.4195  -24.6297  -43.7996 O.2       9 UNK        -0.5000 
     27 CA          0.9365  -23.2528  -41.8976 C.3       9 UNK         0.1400 
     28 CB          2.0777  -23.4062  -40.8811 C.3       9 UNK        -0.1800 
     29 N           0.3100  -21.9412  -41.7214 N.am      9 UNK        -0.5000 
     30 C          -0.8311  -21.5544  -42.3090 C.2       8 UNK         0.5000 
     31 O          -1.4969  -22.2750  -43.0533 O.2       8 UNK        -0.5000 
     32 CA         -1.2692  -20.0959  -42.0655 C.3       8 UNK         0.1400 
     33 CB         -2.1082  -19.9914  -40.7840 C.3       8 UNK        -0.1800 
     34 N          -0.1551  -19.1434  -41.9940 N.am      8 UNK        -0.5000 
     35 C           0.7512  -18.9424  -42.9594 C.2       7 UNK         0.5000 
     36 O           0.7591  -19.5656  -44.0220 O.2       7 UNK        -0.5000 
     37 CA          1.8056  -17.8556  -42.6923 C.3       7 UNK         0.1400 
     38 CB          3.0048  -17.9527  -43.6496 C.3       7 UNK        -0.1800 
     39 N           1.1984  -16.5347  -42.8255 N.am      7 UNK        -0.5000 
     40 C           0.5796  -15.8711  -41.8416 C.2       6 UNK         0.5000 
     41 O           0.4782  -16.3022  -40.6921 O.2       6 UNK        -0.5000 
     42 CA         -0.0424  -14.5069  -42.1975 C.3       6 UNK         0.1400 
     43 CB          0.8493  -13.3468  -41.7276 C.3       6 UNK        -0.1800 
     44 N          -0.3308  -14.3405  -43.6253 N.am      6 UNK        -0.5000 
     45 C          -1.3624  -14.9237  -44.2538 C.2       5 UNK         0.5000 
     46 O          -2.0969  -15.7510  -43.7129 O.2       5 UNK        -0.5000 
     47 CA         -1.6434  -14.4789  -45.7023 C.3       5 UNK         0.1400 
     48 CB         -3.1465  -14.5500  -46.0518 C.3       5 UNK        -0.1800 
     49 N          -1.1586  -13.1177  -45.9233 N.am      5 UNK        -0.5000 
     50 C          -0.9266  -12.5568  -47.1142 C.2       4 UNK         0.5000 
     51 O          -1.0136  -13.1489  -48.1892 O.2       4 UNK        -0.5000 
     52 CA         -0.5401  -11.0743  -47.0823 C.3       4 UNK         0.1400 
     53 CB         -1.5674  -10.2439  -46.2776 C.3       4 UNK        -0.1800 
     54 N           0.8113  -10.9514  -46.5417 N.am      4 UNK        -0.5000 
     55 C           1.5249   -9.8198  -46.4755 C.2       3 UNK         0.5000 
     56 O           1.1010   -8.7100  -46.7999 O.2       3 UNK        -0.5000 
     57 CA          2.9843   -9.9636  -46.0152 C.3       3 UNK         0.1400 
     58 CB          3.0724  -10.2927  -44.5155 C.3       3 UNK        -0.1800 
     59 N           3.6795  -10.9855  -46.7971 N.am      3 UNK        -0.5000 
     60 C           4.0680  -10.8267  -48.0719 C.2       2 UNK         0.5000 
     61 O           3.9457   -9.7731  -48.6978 O.2       2 UNK        -0.5000 
     62 CA          4.7058  -12.0428  -48.7695 C.3       2 UNK         0.1400 
     63 CB          6.2385  -11.9569  -48.7031 C.3       2 UNK        -0.1800 
     64 N           4.2768  -13.3148  -48.1890 N.am      2 UNK        -0.5000 
     65 C           3.0883  -13.8967  -48.4100 C.2       1 UNK         0.5000 
     66 O           2.2386  -13.4464  -49.1772 O.2       1 UNK        -0.5000 
     67 C          -2.0275  -22.6846  -46.7721 C.2       11 UNK         0.5000 
     68 O          -2.6291  -22.9121  -47.8233 O.2       11 UNK        -0.5000 
     69 N          -1.9599  -23.5493  -45.7506 N.am      12 UNK        -0.5000 
     70 CA         -2.5386  -24.8934  -45.7252 C.3       12 UNK         0.1400 
     71 CB         -2.2453  -25.5323  -44.3601 C.3       12 UNK        -0.1800 
     72 C          -2.0602  -25.8166  -46.8646 C.2       12 UNK         0.5000 
     73 O          -2.8298  -26.6724  -47.3017 O.2       12 UNK        -0.5000 
     74 N          -0.8192  -25.6221  -47.3287 N.am      13 UNK        -0.5000 
     75 CA         -0.2010  -26.4028  -48.3969 C.3       13 UNK         0.1400 
     76 CB          1.2193  -26.8036  -47.9653 C.3       13 UNK        -0.1800 
     77 C          -0.1644  -25.6171  -49.7166 C.2       13 UNK         0.5000 
     78 O          -0.5880  -26.1414  -50.7464 O.2       13 UNK        -0.5000 
     79 N           0.3513  -24.3818  -49.6680 N.am      14 UNK        -0.5000 
     80 CA          0.6372  -23.5456  -50.8335 C.3       14 UNK         0.1400 
     81 CB          1.5382  -22.3756  -50.4080 C.3       14 UNK        -0.1800 
     82 C          -0.6257  -23.0104  -51.5207 C.2       14 UNK         0.5000 
     83 O          -0.6831  -22.9921  -52.7494 O.2       14 UNK        -0.5000 
     84 N          -1.6039  -22.5804  -50.7153 N.am      15 UNK        -0.5000 
     85 CA         -2.8609  -21.9964  -51.1806 C.3       15 UNK         0.1400 
     86 CB         -3.1055  -20.6845  -50.4263 C.3       15 UNK        -0.1800 
     87 C          -4.0471  -22.9524  -50.9964 C.2       15 UNK         0.5000 
     88 O          -5.1757  -22.5492  -51.2784 O.2       15 UNK        -0.5000 
     89 N          -3.7758  -24.1761  -50.5185 N.am      16 UNK        -0.5000 
     90 CA         -4.7316  -25.2343  -50.1845 C.3       16 UNK         0.1400 
     91 CB         -5.3738  -25.8084  -51.4638 C.3       16 UNK        -0.1800 
     92 C          -5.7565  -24.7864  -49.1206 C.2       16 UNK         0.5000 
     93 O          -6.9525  -25.0425  -49.2641 O.2       16 UNK        -0.5000 
     94 N          -5.2477  -24.1105  -48.0787 N.am      17 UNK        -0.5000 
     95 CA         -5.9779  -23.5211  -46.9526 C.3       17 UNK         0.1400 
     96 CB         -6.7423  -24.5910  -46.1441 C.3       17 UNK        -0.1800 
     97 C          -6.8509  -22.3362  -47.4016 C.2       17 UNK         0.5000 
     98 O          -8.0547  -22.3078  -47.1401 O.2       17 UNK        -0.5000 
     99 N          -6.1961  -21.3758  -48.0704 N.am      18 UNK        -0.5000 
    100 CA        -6.7456  -20.1111  -48.5702 C.3       18 UNK         0.1400 
    101 CB        -7.1936  -19.2050  -47.4037 C.3       18 UNK        -0.1800 
    102 C         -7.8366  -20.2954  -49.6466 C.2       18 UNK         0.5000 
    103 O         -8.7778  -19.5033  -49.7173 O.2       18 UNK        -0.5000 
    104 N         -7.6687  -21.3170  -50.4964 N.am      19 UNK        -0.5000 
    105 CA        -8.5051  -21.5782  -51.6709 C.3       19 UNK         0.1400 
    106 CB        -8.5338  -23.0924  -51.9290 C.3       19 UNK        -0.1800 
    107 C         -8.0074  -20.8199  -52.9205 C.2       19 UNK         0.5000 
    108 O         -8.6192  -20.9423  -53.9821 O.2       19 UNK        -0.5000 
    109 N         -6.9075  -20.0642  -52.7726 N.am      20 UNK        -0.5000 
    110 CA        -6.2145  -19.2679  -53.7896 C.3       20 UNK         0.1400 
    111 CB        -7.1293  -18.1670  -54.3666 C.3       20 UNK        -0.1800 
    112 C         -5.5368  -20.1315  -54.8727 C.2       20 UNK         0.5000 
    113 O         -5.4248  -19.7056  -56.0230 O.2       20 UNK        -0.5000 
    114 N         -5.0629  -21.3227  -54.4768 N.am      21 UNK        -0.5000 
    115 CA        -4.2735  -22.2235  -55.3251 C.3       21 UNK         0.1400 
    116 CB        -4.3164  -23.6375  -54.7227 C.3       21 UNK        -0.1800 
    117 C         -2.8118  -21.7563  -55.5133 C.2       21 UNK         0.5000 
    118 O         -2.1136  -22.2838  -56.3803 O.2       21 UNK        -0.5000 
    119 N         -2.3773  -20.7957  -54.6895 N.am      22 UNK        -0.5000 
    120 CA        -1.0490  -20.1731  -54.6908 C.3       22 UNK         0.1400 
    121 C         -0.7657  -19.3020  -55.9488 C.2       22 UNK         0.5000 
    122 N          0.4995  -19.1086  -56.2980 N.am      22 UNK        -0.7600 
    123 O         -1.6692  -18.7773  -56.5963 O.2       22 UNK        -0.5000 
    124 C124       -0.8034  -19.3917  -53.3705 C.3       23 UNK        -0.0398 
    125 S125       -2.1147  -18.1812  -52.9627 S.3       23 UNK        -0.2404 
    126 C126       -1.1906  -16.9504  -51.9902 C.3       23 UNK        -0.0205 
    127 H127        4.7923  -14.8170  -44.1678 H         1 UNK         0.0600 
    128 H128        3.3086  -14.7956  -43.2167 H         1 UNK         0.0600 
    129 H129        4.0594  -13.2787  -43.7165 H         1 UNK         0.0600 
    130 H130        4.1702  -15.7598  -46.1108 H         1 UNK         0.3000 
    131 H131        1.7266  -15.2883  -47.5102 H         1 UNK         0.0600 
    132 H132        2.8355  -16.4569  -49.3986 H         1 UNK         0.0800 
    133 H133        4.3937  -16.3182  -48.6296 H         1 UNK         0.0800 
    134 H134        2.0341  -19.9925  -48.3680 H         1 UNK         0.0800 
    135 H135        2.7323  -19.0733  -49.6779 H         1 UNK         0.0800 
    136 H136        1.1763  -17.9977  -51.1171 H         1 UNK         0.1150 
    137 H137       -2.7861  -17.0536  -49.7913 H         1 UNK         0.1150 
    138 H138        0.0639  -18.7045  -47.0413 H         1 UNK         0.1150 
    139 H139       -2.0992  -17.4820  -46.2680 H         1 UNK         0.0800 
    140 H140       -3.3193  -17.1441  -47.4695 H         1 UNK         0.0800 
    141 H141       -2.6246  -20.7474  -45.0187 H         1 UNK         0.0800 
    142 H142       -1.4526  -19.5419  -45.4272 H         1 UNK         0.0800 
    143 H143       -1.0260  -21.0027  -47.6130 H         1 UNK         0.0600 
    144 H144        0.2531  -20.9271  -45.1723 H         1 UNK         0.3000 
    145 H145        2.8111  -23.3760  -45.6235 H         1 UNK         0.0600 
    146 H146        4.1046  -21.3029  -45.0899 H         1 UNK         0.0600 
    147 H147        3.5666  -21.3264  -46.7620 H         1 UNK         0.0600 
    148 H148        2.7355  -20.3140  -45.5926 H         1 UNK         0.0600 
    149 H149        1.8371  -21.5115  -43.5686 H         1 UNK         0.3000 
    150 H150        0.1846  -24.0164  -41.6867 H         1 UNK         0.0600 
    151 H151        2.5512  -24.3849  -40.9708 H         1 UNK         0.0600 
    152 H152        1.7101  -23.3174  -39.8586 H         1 UNK         0.0600 
    153 H153        2.8521  -22.6522  -41.0273 H         1 UNK         0.0600 
    154 H154        0.7913  -21.2819  -41.1277 H         1 UNK         0.3000 
    155 H155       -1.8990  -19.7964  -42.9044 H         1 UNK         0.0600 
    156 H156       -1.5230  -20.2389  -39.8975 H         1 UNK         0.0600 
    157 H157       -2.9594  -20.6730  -40.8173 H         1 UNK         0.0600 
    158 H158       -2.5052  -18.9843  -40.6541 H         1 UNK         0.0600 
    159 H159       -0.1110  -18.5568  -41.1708 H         1 UNK         0.3000 
    160 H160        2.1823  -17.9952  -41.6768 H         1 UNK         0.0600 
    161 H161        2.7087  -17.7651  -44.6810 H         1 UNK         0.0600 
    162 H162        3.4595  -18.9431  -43.6101 H         1 UNK         0.0600 
    163 H163        3.7798  -17.2339  -43.3862 H         1 UNK         0.0600 
    164 H164        1.1771  -16.1386  -43.7529 H         1 UNK         0.3000 
    165 H165       -0.9849  -14.4392  -41.6495 H         1 UNK         0.0600 
    166 H166        0.3392  -12.3904  -41.8432 H         1 UNK         0.0600 
    167 H167        1.1056  -13.4502  -40.6723 H         1 UNK         0.0600 
    168 H168        1.7809  -13.2934  -42.2886 H         1 UNK         0.0600 
    169 H169        0.3007  -13.7520  -44.1565 H         1 UNK         0.3000 
    170 H170       -1.0920  -15.1619  -46.3517 H         1 UNK         0.0600 
    171 H171       -3.5796  -15.5182  -45.8022 H         1 UNK         0.0600 
    172 H172       -3.7151  -13.7954  -45.5075 H         1 UNK         0.0600 
    173 H173       -3.3139  -14.3901  -47.1169 H         1 UNK         0.0600 
    174 H174       -1.0692  -12.5462  -45.0950 H         1 UNK         0.3000 
    175 H175       -0.5314  -10.7143  -48.1132 H         1 UNK         0.0600 
    176 H176       -1.4779  -10.4111  -45.2039 H         1 UNK         0.0600 
    177 H177       -1.4469   -9.1759  -46.4563 H         1 UNK         0.0600 
    178 H178       -2.5886  -10.4959  -46.5675 H         1 UNK         0.0600 
    179 H179        1.2539  -11.8250  -46.2712 H         1 UNK         0.3000 
    180 H180        3.4859   -9.0066  -46.1754 H         1 UNK         0.0600 
    181 H181        2.5614  -11.2219  -44.2653 H         1 UNK         0.0600 
    182 H182        2.6144   -9.5020  -43.9202 H         1 UNK         0.0600 
    183 H183        4.1093  -10.3828  -44.1917 H         1 UNK         0.0600 
    184 H184        3.7890  -11.8914  -46.3685 H         1 UNK         0.3000 
    185 H185        4.4077  -12.0178  -49.8199 H         1 UNK         0.0600 
    186 H186        6.5973  -11.0300  -49.1530 H         1 UNK         0.0600 
    187 H187        6.6003  -11.9837  -47.6745 H         1 UNK         0.0600 
    188 H188        6.7036  -12.7805  -49.2452 H         1 UNK         0.0600 
    189 H189        4.9185  -13.7588  -47.5486 H         1 UNK         0.3000 
    190 H190       -1.4901  -23.2484  -44.9033 H         1 UNK         0.3000 
    191 H191       -3.6190  -24.7914  -45.8200 H         1 UNK         0.0600 
    192 H192       -1.1735  -25.6397  -44.1899 H         1 UNK         0.0600 
    193 H193       -2.6915  -26.5250  -44.2877 H         1 UNK         0.0600 
    194 H194       -2.6546  -24.9321  -43.5471 H         1 UNK         0.0600 
    195 H195       -0.2724  -24.8554  -46.9553 H         1 UNK         0.3000 
    196 H196       -0.7634  -27.3221  -48.5736 H         1 UNK         0.0600 
    197 H197        1.7198  -27.3750  -48.7480 H         1 UNK         0.0600 
    198 H198        1.1948  -27.4282  -47.0721 H         1 UNK         0.0600 
    199 H199        1.8390  -25.9333  -47.7447 H         1 UNK         0.0600 
    200 H200        0.6443  -24.0042  -48.7676 H         1 UNK         0.3000 
    201 H201        1.1838  -24.1512  -51.5595 H         1 UNK         0.0600 
    202 H202        2.4637  -22.7318  -49.9554 H         1 UNK         0.0600 
    203 H203        1.0378  -21.7313  -49.6845 H         1 UNK         0.0600 
    204 H204        1.8096  -21.7572  -51.2646 H         1 UNK         0.0600 
    205 H205       -1.4962  -22.6650  -49.7121 H         1 UNK         0.3000 
    206 H206       -2.8029  -21.7657  -52.2428 H         1 UNK         0.0600 
    207 H207       -3.9336  -20.1241  -50.8609 H         1 UNK         0.0600 
    208 H208       -3.3433  -20.8683  -49.3814 H         1 UNK         0.0600 
    209 H209       -2.2251  -20.0453  -50.4593 H         1 UNK         0.0600 
    210 H210       -2.8072  -24.3875  -50.3275 H         1 UNK         0.3000 
    211 H211       -4.1526  -26.0361  -49.7241 H         1 UNK         0.0600 
    212 H212       -5.9676  -25.0640  -51.9911 H         1 UNK         0.0600 
    213 H213       -6.0299  -26.6479  -51.2314 H         1 UNK         0.0600 
    214 H214       -4.6126  -26.1735  -52.1532 H         1 UNK         0.0600 
    215 H215       -4.2553  -23.8924  -48.1042 H         1 UNK         0.3000 
    216 H216       -5.2237  -23.0969  -46.2885 H         1 UNK         0.0600 
    217 H217       -7.1611  -24.1608  -45.2338 H         1 UNK         0.0600 
    218 H218       -6.0838  -25.4063  -45.8450 H         1 UNK         0.0600 
    219 H219       -7.5703  -25.0195  -46.7090 H         1 UNK         0.0600 
    220 H220       -5.2092  -21.5128  -48.2354 H         1 UNK         0.3000 
    221 H221       -5.9182  -19.6050  -49.0697 H         1 UNK         0.0600 
    222 H222       -8.0692  -19.6051  -46.8919 H         1 UNK         0.0600 
    223 H223       -6.3994  -19.0873  -46.6668 H         1 UNK         0.0600 
    224 H224       -7.4517  -18.2074  -47.7605 H         1 UNK         0.0600 
    225 H225       -6.8455  -21.9054  -50.4088 H         1 UNK         0.3000 
    226 H226       -9.5269  -21.2500  -51.4705 H         1 UNK         0.0600 
    227 H227       -8.8339  -23.6425  -51.0368 H         1 UNK         0.0600 
    228 H228       -9.2420  -23.3417  -52.7199 H         1 UNK         0.0600 
    229 H229       -7.5568  -23.4606  -52.2384 H         1 UNK         0.0600 
    230 H230       -6.4821  -20.0690  -51.8576 H         1 UNK         0.3000 
    231 H231       -5.4005  -18.7640  -53.2662 H         1 UNK         0.0600 
    232 H232       -7.5907  -17.5808  -53.5719 H         1 UNK         0.0600 
    233 H233       -7.9257  -18.5811  -54.9853 H         1 UNK         0.0600 
    234 H234       -6.5610  -17.4755  -54.9896 H         1 UNK         0.0600 
    235 H235       -5.2359  -21.6230  -53.5266 H         1 UNK         0.3000 
    236 H236       -4.7370  -22.2625  -56.3131 H         1 UNK         0.0600 
    237 H237       -3.8567  -24.3598  -55.3982 H         1 UNK         0.0600 
    238 H238       -3.7759  -23.6918  -53.7783 H         1 UNK         0.0600 
    239 H239       -5.3409  -23.9655  -54.5451 H         1 UNK         0.0600 
    240 H240       -3.0412  -20.3801  -54.0560 H         1 UNK         0.3000 
    241 H241       -0.3289  -20.9934  -54.7183 H         1 UNK         0.0600 
    242 H242        0.7003  -18.5382  -57.1051 H         1 UNK         0.3800 
    243 H243        1.2629  -19.5272  -55.7894 H         1 UNK         0.3800 
    244 H244        0.1640  -18.8882  -53.4009 H         1 UNK         0.0800 
    245 H245       -0.7362  -20.0947  -52.5400 H         1 UNK         0.0800 
    246 H246       -0.2923  -16.6491  -52.5311 H         1 UNK         0.0800 
    247 H247       -1.8007  -16.0509  -51.8966 H         1 UNK         0.0800 
@<TRIPOS>BOND
     1    1    2 1    
     2    1  127 1    
     3    1  128 1    
     4    1  129 1    
     5    2    3 2    
     6    2    4 am   BACKBONE|DICT|INTERRES
     7    4    5 1    
     8    4  130 1    
     9    5    6 1    
    10    5   65 1    
    11    5  131 1    
    12    6    7 1    
    13    6  132 1    
    14    6  133 1    
    15    7    8 1    
    16    8    9 1    
    17    8  134 1    
    18    8  135 1    
    19    9   10 ar   
    20    9   14 ar   
    21   10   11 ar   
    22   10  136 1    
    23   11   12 ar   
    24   11  126 1    
    25   12   13 ar   
    26   12  137 1    
    27   13   14 ar   
    28   13   15 1    
    29   14  138 1    
    30   15   16 1    
    31   15  139 1    
    32   15  140 1    
    33   16   17 1    
    34   17   18 1    
    35   17  141 1    
    36   17  142 1    
    37   18   19 1    
    38   18   67 1    
    39   18  143 1    
    40   19   20 am   BACKBONE|DICT|INTERRES
    41   19  144 1    
    42   20   21 2    
    43   20   22 1    
    44   22   23 1    
    45   22   24 1    
    46   22  145 1    
    47   23  146 1    
    48   23  147 1    
    49   23  148 1    
    50   24   25 am   BACKBONE|DICT|INTERRES
    51   24  149 1    
    52   25   26 2    
    53   25   27 1    
    54   27   28 1    
    55   27   29 1    
    56   27  150 1    
    57   28  151 1    
    58   28  152 1    
    59   28  153 1    
    60   29   30 am   BACKBONE|DICT|INTERRES
    61   29  154 1    
    62   30   31 2    
    63   30   32 1    
    64   32   33 1    
    65   32   34 1    
    66   32  155 1    
    67   33  156 1    
    68   33  157 1    
    69   33  158 1    
    70   34   35 am   BACKBONE|DICT|INTERRES
    71   34  159 1    
    72   35   36 2    
    73   35   37 1    
    74   37   38 1    
    75   37   39 1    
    76   37  160 1    
    77   38  161 1    
    78   38  162 1    
    79   38  163 1    
    80   39   40 am   BACKBONE|DICT|INTERRES
    81   39  164 1    
    82   40   41 2    
    83   40   42 1    
    84   42   43 1    
    85   42   44 1    
    86   42  165 1    
    87   43  166 1    
    88   43  167 1    
    89   43  168 1    
    90   44   45 am   BACKBONE|DICT|INTERRES
    91   44  169 1    
    92   45   46 2    
    93   45   47 1    
    94   47   48 1    
    95   47   49 1    
    96   47  170 1    
    97   48  171 1    
    98   48  172 1    
    99   48  173 1    
   100   49   50 am   BACKBONE|DICT|INTERRES
   101   49  174 1    
   102   50   51 2    
   103   50   52 1    
   104   52   53 1    
   105   52   54 1    
   106   52  175 1    
   107   53  176 1    
   108   53  177 1    
   109   53  178 1    
   110   54   55 am   BACKBONE|DICT|INTERRES
   111   54  179 1    
   112   55   56 2    
   113   55   57 1    
   114   57   58 1    
   115   57   59 1    
   116   57  180 1    
   117   58  181 1    
   118   58  182 1    
   119   58  183 1    
   120   59   60 am   BACKBONE|DICT|INTERRES
   121   59  184 1    
   122   60   61 2    
   123   60   62 1    
   124   62   63 1    
   125   62   64 1    
   126   62  185 1    
   127   63  186 1    
   128   63  187 1    
   129   63  188 1    
   130   64   65 am   BACKBONE|DICT|INTERRES
   131   64  189 1    
   132   65   66 2    
   133   67   68 2    
   134   67   69 am   BACKBONE|DICT|INTERRES
   135   69   70 1    
   136   69  190 1    
   137   70   71 1    
   138   70   72 1    
   139   70  191 1    
   140   71  192 1    
   141   71  193 1    
   142   71  194 1    
   143   72   73 2    
   144   72   74 am   BACKBONE|DICT|INTERRES
   145   74   75 1    
   146   74  195 1    
   147   75   76 1    
   148   75   77 1    
   149   75  196 1    
   150   76  197 1    
   151   76  198 1    
   152   76  199 1    
   153   77   78 2    
   154   77   79 am   BACKBONE|DICT|INTERRES
   155   79   80 1    
   156   79  200 1    
   157   80   81 1    
   158   80   82 1    
   159   80  201 1    
   160   81  202 1    
   161   81  203 1    
   162   81  204 1    
   163   82   83 2    
   164   82   84 am   BACKBONE|DICT|INTERRES
   165   84   85 1    
   166   84  205 1    
   167   85   86 1    
   168   85   87 1    
   169   85  206 1    
   170   86  207 1    
   171   86  208 1    
   172   86  209 1    
   173   87   88 2    
   174   87   89 am   BACKBONE|DICT|INTERRES
   175   89   90 1    
   176   89  210 1    
   177   90   91 1    
   178   90   92 1    
   179   90  211 1    
   180   91  212 1    
   181   91  213 1    
   182   91  214 1    
   183   92   93 2    
   184   92   94 am   BACKBONE|DICT|INTERRES
   185   94   95 1    
   186   94  215 1    
   187   95   96 1    
   188   95   97 1    
   189   95  216 1    
   190   96  217 1    
   191   96  218 1    
   192   96  219 1    
   193   97   98 2    
   194   97   99 am   BACKBONE|DICT|INTERRES
   195   99  100 1    
   196   99  220 1    
   197  100  101 1    
   198  100  102 1    
   199  100  221 1    
   200  101  222 1    
   201  101  223 1    
   202  101  224 1    
   203  102  103 2    
   204  102  104 am   BACKBONE|DICT|INTERRES
   205  104  105 1    
   206  104  225 1    
   207  105  106 1    
   208  105  107 1    
   209  105  226 1    
   210  106  227 1    
   211  106  228 1    
   212  106  229 1    
   213  107  108 2    
   214  107  109 am   BACKBONE|DICT|INTERRES
   215  109  110 1    
   216  109  230 1    
   217  110  111 1    
   218  110  112 1    
   219  110  231 1    
   220  111  232 1    
   221  111  233 1    
   222  111  234 1    
   223  112  113 2    
   224  112  114 am   BACKBONE|DICT|INTERRES
   225  114  115 1    
   226  114  235 1    
   227  115  116 1    
   228  115  117 1    
   229  115  236 1    
   230  116  237 1    
   231  116  238 1    
   232  116  239 1    
   233  117  118 2    
   234  117  119 am   BACKBONE|DICT|INTERRES
   235  119  120 1    
   236  119  240 1    
   237  120  121 1    
   238  120  124 1    
   239  120  241 1    
   240  121  122 am   BACKBONE|DICT|INTERRES
   241  121  123 2    
   242  122  242 1    
   243  122  243 1    
   244  124  125 1    
   245  124  244 1    
   246  124  245 1    
   247  125  126 1    
   248  126  246 1    
   249  126  247 1    
@<TRIPOS>SUBSTRUCTURE
     1 UNK         1 GROUP             0       ****    0 ROOT    
