@<TRIPOS>MOLECULE
3R540
247   249    1
SMALL
USER_CHARGES


@<TRIPOS>ATOM
      1 CA          4.6942   -9.5174  -50.1743 C.3       0 UNK        -0.1800 
      2 C           4.0686  -10.8730  -49.8771 C.2       0 UNK         0.5000 
      3 O           3.4592  -11.4699  -50.7639 O.2       0 UNK        -0.5000 
      4 N           4.2242  -11.3550  -48.6363 N.am      1 UNK        -0.5000 
      5 CA          3.6829  -12.6180  -48.1184 C.3       1 UNK         0.1400 
      6 C6          4.2736  -13.8731  -48.8226 C.3       23 UNK        -0.0398 
      7 S7          4.4931  -15.2742  -47.6711 S.3       23 UNK        -0.2404 
      8 C8          5.5686  -16.3797  -48.6380 C.3       23 UNK        -0.0205 
      9 C9          4.7809  -17.2536  -49.6041 C.ar      23 UNK        -0.0193 
     10 C10         4.3669  -16.7437  -50.8369 C.ar      23 UNK        -0.1150 
     11 C11         3.6683  -17.5477  -51.7395 C.ar      23 UNK        -0.0193 
     12 C12         3.4174  -18.8843  -51.4190 C.ar      23 UNK        -0.1150 
     13 C13         3.8238  -19.4132  -50.1884 C.ar      23 UNK        -0.0193 
     14 C14         4.4974  -18.5858  -49.2840 C.ar      23 UNK        -0.1150 
     15 C15         3.6085  -20.8865  -49.8457 C.3       23 UNK        -0.0205 
     16 S16         2.0246  -21.5714  -50.4383 S.3       23 UNK        -0.2404 
     17 C17         0.8515  -20.9208  -49.2061 C.3       23 UNK        -0.0398 
     18 CA          0.2167  -22.0643  -48.3623 C.3       11 UNK         0.1400 
     19 N           0.5601  -21.9753  -46.9382 N.am      11 UNK        -0.5000 
     20 C           0.2588  -22.9055  -46.0192 C.2       10 UNK         0.5000 
     21 O          -0.2924  -23.9747  -46.2804 O.2       10 UNK        -0.5000 
     22 CA          0.5781  -22.5660  -44.5522 C.3       10 UNK         0.1400 
     23 CB          2.0585  -22.8284  -44.2393 C.3       10 UNK        -0.1800 
     24 N           0.2312  -21.1869  -44.2064 N.am      10 UNK        -0.5000 
     25 C          -1.0146  -20.6902  -44.2270 C.2       9 UNK         0.5000 
     26 O          -2.0130  -21.3638  -44.4747 O.2       9 UNK        -0.5000 
     27 CA         -1.1713  -19.1776  -43.9922 C.3       9 UNK         0.1400 
     28 CB         -1.1429  -18.8463  -42.4934 C.3       9 UNK        -0.1800 
     29 N          -0.1530  -18.3951  -44.6898 N.am      9 UNK        -0.5000 
     30 C           0.0166  -18.3696  -46.0198 C.2       8 UNK         0.5000 
     31 O          -0.6991  -18.9737  -46.8182 O.2       8 UNK        -0.5000 
     32 CA          1.2205  -17.5699  -46.5382 C.3       8 UNK         0.1400 
     33 CB          0.8954  -16.0729  -46.5436 C.3       8 UNK        -0.1800 
     34 N           2.4168  -17.8155  -45.7335 N.am      8 UNK        -0.5000 
     35 C           3.0801  -18.9799  -45.7051 C.2       7 UNK         0.5000 
     36 O           2.7719  -19.9592  -46.3839 O.2       7 UNK        -0.5000 
     37 CA          4.2556  -19.0821  -44.7158 C.3       7 UNK         0.1400 
     38 CB          5.5317  -18.4670  -45.3078 C.3       7 UNK        -0.1800 
     39 N           3.9638  -18.4430  -43.4325 N.am      7 UNK        -0.5000 
     40 C           3.0546  -18.8909  -42.5558 C.2       6 UNK         0.5000 
     41 O           2.3810  -19.9056  -42.7279 O.2       6 UNK        -0.5000 
     42 CA          2.8319  -18.0382  -41.2934 C.3       6 UNK         0.1400 
     43 CB          3.8333  -18.4269  -40.1957 C.3       6 UNK        -0.1800 
     44 N           2.9156  -16.5957  -41.5406 N.am      6 UNK        -0.5000 
     45 C           2.0991  -15.9182  -42.3576 C.2       5 UNK         0.5000 
     46 O           1.2216  -16.4494  -43.0415 O.2       5 UNK        -0.5000 
     47 CA          2.3382  -14.4038  -42.4655 C.3       5 UNK         0.1400 
     48 CB          3.2041  -14.0900  -43.6968 C.3       5 UNK        -0.1800 
     49 N           1.0707  -13.6820  -42.5639 N.am      5 UNK        -0.5000 
     50 C           0.2226  -13.4955  -41.5410 C.2       4 UNK         0.5000 
     51 O           0.4692  -13.8456  -40.3856 O.2       4 UNK        -0.5000 
     52 CA         -1.1203  -12.7923  -41.8367 C.3       4 UNK         0.1400 
     53 CB         -1.0373  -11.3026  -41.4695 C.3       4 UNK        -0.1800 
     54 N          -1.5452  -12.9087  -43.2310 N.am      4 UNK        -0.5000 
     55 C          -1.9655  -14.0390  -43.8135 C.2       3 UNK         0.5000 
     56 O          -2.1747  -15.0830  -43.1955 O.2       3 UNK        -0.5000 
     57 CA         -2.1862  -14.0119  -45.3428 C.3       3 UNK         0.1400 
     58 CB         -3.6885  -14.0330  -45.6656 C.3       3 UNK        -0.1800 
     59 N          -1.5647  -12.8977  -46.0768 N.am      3 UNK        -0.5000 
     60 C          -0.2648  -12.5717  -46.0749 C.2       2 UNK         0.5000 
     61 O           0.5653  -13.0786  -45.3197 O.2       2 UNK        -0.5000 
     62 CA          0.1761  -11.4613  -47.0474 C.3       2 UNK         0.1400 
     63 CB         -0.0783  -10.0773  -46.4307 C.3       2 UNK        -0.1800 
     64 N           1.5990  -11.5780  -47.3726 N.am      2 UNK        -0.5000 
     65 C           2.1371  -12.5867  -48.0731 C.2       1 UNK         0.5000 
     66 O           1.4652  -13.4304  -48.6695 O.2       1 UNK        -0.5000 
     67 C          -1.3089  -22.1447  -48.5751 C.2       11 UNK         0.5000 
     68 O          -1.7798  -23.0291  -49.2907 O.2       11 UNK        -0.5000 
     69 N          -2.0520  -21.2519  -47.9064 N.am      12 UNK        -0.5000 
     70 CA         -3.5120  -21.2162  -47.9206 C.3       12 UNK         0.1400 
     71 CB         -4.0109  -19.9614  -47.1905 C.3       12 UNK        -0.1800 
     72 C          -4.1429  -22.4891  -47.3311 C.2       12 UNK         0.5000 
     73 O          -5.0725  -23.0255  -47.9309 O.2       12 UNK        -0.5000 
     74 N          -3.6092  -22.9737  -46.2008 N.am      13 UNK        -0.5000 
     75 CA         -4.0353  -24.2082  -45.5386 C.3       13 UNK         0.1400 
     76 CB         -3.3293  -24.3433  -44.1816 C.3       13 UNK        -0.1800 
     77 C          -3.8052  -25.4620  -46.4003 C.2       13 UNK         0.5000 
     78 O          -4.6997  -26.3037  -46.4907 O.2       13 UNK        -0.5000 
     79 N          -2.6411  -25.5434  -47.0619 N.am      14 UNK        -0.5000 
     80 CA         -2.3023  -26.5993  -48.0224 C.3       14 UNK         0.1400 
     81 CB         -0.8293  -26.4605  -48.4351 C.3       14 UNK        -0.1800 
     82 C          -3.2170  -26.5976  -49.2639 C.2       14 UNK         0.5000 
     83 O          -3.5067  -27.6602  -49.8138 O.2       14 UNK        -0.5000 
     84 N          -3.6879  -25.4059  -49.6482 N.am      15 UNK        -0.5000 
     85 CA         -4.6522  -25.1626  -50.7189 C.3       15 UNK         0.1400 
     86 CB         -4.3483  -23.7826  -51.3109 C.3       15 UNK        -0.1800 
     87 C          -6.1228  -25.2506  -50.2533 C.2       15 UNK         0.5000 
     88 O          -7.0155  -24.8402  -51.0020 O.2       15 UNK        -0.5000 
     89 N          -6.3508  -25.7373  -49.0217 N.am      16 UNK        -0.5000 
     90 CA         -7.6407  -25.9487  -48.3509 C.3       16 UNK         0.1400 
     91 CB         -8.4288  -27.0680  -49.0622 C.3       16 UNK        -0.1800 
     92 C          -8.4800  -24.6644  -48.1742 C.2       16 UNK         0.5000 
     93 O          -9.7040  -24.7454  -48.0597 O.2       16 UNK        -0.5000 
     94 N          -7.8102  -23.5017  -48.1952 N.am      17 UNK        -0.5000 
     95 CA         -8.3548  -22.1405  -48.2409 C.3       17 UNK         0.1400 
     96 CB         -9.0884  -21.8014  -46.9276 C.3       17 UNK        -0.1800 
     97 C          -9.2135  -21.8519  -49.4949 C.2       17 UNK         0.5000 
     98 O          -9.9524  -20.8659  -49.5078 O.2       17 UNK        -0.5000 
     99 N          -9.1055  -22.7053  -50.5227 N.am      18 UNK        -0.5000 
    100 CA        -9.9093  -22.6586  -51.7392 C.3       18 UNK         0.1400 
    101 CB       -10.4527  -24.0664  -52.0372 C.3       18 UNK        -0.1800 
    102 C         -9.0787  -22.1282  -52.9134 C.2       18 UNK         0.5000 
    103 O         -9.4814  -21.1530  -53.5486 O.2       18 UNK        -0.5000 
    104 N         -7.9329  -22.7717  -53.1782 N.am      19 UNK        -0.5000 
    105 CA        -7.0587  -22.4379  -54.3072 C.3       19 UNK         0.1400 
    106 CB        -6.4277  -23.7305  -54.8526 C.3       19 UNK        -0.1800 
    107 C         -5.9850  -21.3882  -53.9581 C.2       19 UNK         0.5000 
    108 O         -5.3199  -20.8913  -54.8666 O.2       19 UNK        -0.5000 
    109 N         -5.8118  -21.0903  -52.6606 N.am      20 UNK        -0.5000 
    110 CA        -4.8888  -20.1287  -52.0307 C.3       20 UNK         0.1400 
    111 CB        -5.2279  -18.6910  -52.4654 C.3       20 UNK        -0.1800 
    112 C         -3.3754  -20.4011  -52.2021 C.2       20 UNK         0.5000 
    113 O         -2.5945  -19.9410  -51.3680 O.2       20 UNK        -0.5000 
    114 N         -2.9857  -21.1206  -53.2630 N.am      21 UNK        -0.5000 
    115 CA        -1.6327  -21.4567  -53.7250 C.3       21 UNK         0.1400 
    116 CB        -0.8349  -22.2645  -52.6832 C.3       21 UNK        -0.1800 
    117 C         -0.8388  -20.2379  -54.2294 C.2       21 UNK         0.5000 
    118 O         -0.3833  -20.2454  -55.3739 O.2       21 UNK        -0.5000 
    119 N         -0.7023  -19.2128  -53.3839 N.am      22 UNK        -0.5000 
    120 CA        -0.1325  -17.9088  -53.7348 C.3       22 UNK         0.1400 
    121 C         -1.1707  -17.0302  -54.4860 C.2       22 UNK         0.5000 
    122 N         -0.7765  -16.3711  -55.5670 N.am      22 UNK        -0.7600 
    123 O         -2.3252  -16.9197  -54.0795 O.2       22 UNK        -0.5000 
    124 C124        0.4301  -17.1999  -52.4774 C.3       23 UNK        -0.0398 
    125 S125        1.7015  -15.9529  -52.8851 S.3       23 UNK        -0.2404 
    126 C126        3.2010  -16.9738  -53.0675 C.3       23 UNK        -0.0205 
    127 H127        5.2082   -9.1072  -49.3047 H         1 UNK         0.0600 
    128 H128        3.9248   -8.8084  -50.4799 H         1 UNK         0.0600 
    129 H129        5.4174   -9.6076  -50.9849 H         1 UNK         0.0600 
    130 H130        4.7412  -10.8035  -47.9654 H         1 UNK         0.3000 
    131 H131        4.0060  -12.6417  -47.0760 H         1 UNK         0.0600 
    132 H132        5.2581  -13.6359  -49.2277 H         1 UNK         0.0800 
    133 H133        3.6699  -14.1791  -49.6776 H         1 UNK         0.0800 
    134 H134        6.3135  -15.7976  -49.1823 H         1 UNK         0.0800 
    135 H135        6.1313  -17.0070  -47.9459 H         1 UNK         0.0800 
    136 H136        4.5871  -15.7191  -51.0991 H         1 UNK         0.1150 
    137 H137        2.9049  -19.5125  -52.1336 H         1 UNK         0.1150 
    138 H138        4.8247  -18.9897  -48.3377 H         1 UNK         0.1150 
    139 H139        4.4192  -21.4587  -50.2981 H         1 UNK         0.0800 
    140 H140        3.6827  -21.0490  -48.7691 H         1 UNK         0.0800 
    141 H141        0.1050  -20.3368  -49.7491 H         1 UNK         0.0800 
    142 H142        1.3589  -20.1939  -48.5726 H         1 UNK         0.0800 
    143 H143        0.6133  -23.0241  -48.7009 H         1 UNK         0.0600 
    144 H144        1.0519  -21.1401  -46.6406 H         1 UNK         0.3000 
    145 H145       -0.0210  -23.2259  -43.9218 H         1 UNK         0.0600 
    146 H146        2.3327  -23.8557  -44.4823 H         1 UNK         0.0600 
    147 H147        2.7152  -22.1698  -44.8076 H         1 UNK         0.0600 
    148 H148        2.2693  -22.6778  -43.1805 H         1 UNK         0.0600 
    149 H149        0.9976  -20.5818  -43.9267 H         1 UNK         0.3000 
    150 H150       -2.1437  -18.8775  -44.3875 H         1 UNK         0.0600 
    151 H151       -1.3004  -17.7808  -42.3229 H         1 UNK         0.0600 
    152 H152       -0.1916  -19.1206  -42.0381 H         1 UNK         0.0600 
    153 H153       -1.9293  -19.3823  -41.9607 H         1 UNK         0.0600 
    154 H154        0.4527  -17.8192  -44.1099 H         1 UNK         0.3000 
    155 H155        1.4280  -17.8798  -47.5647 H         1 UNK         0.0600 
    156 H156        0.0547  -15.8576  -47.2038 H         1 UNK         0.0600 
    157 H157        1.7384  -15.4830  -46.8955 H         1 UNK         0.0600 
    158 H158        0.6339  -15.7150  -45.5481 H         1 UNK         0.0600 
    159 H159        2.7036  -17.0757  -45.1109 H         1 UNK         0.3000 
    160 H160        4.4436  -20.1420  -44.5312 H         1 UNK         0.0600 
    161 H161        5.8115  -18.9661  -46.2353 H         1 UNK         0.0600 
    162 H162        6.3732  -18.5701  -44.6225 H         1 UNK         0.0600 
    163 H163        5.4053  -17.4059  -45.5254 H         1 UNK         0.0600 
    164 H164        4.4721  -17.5996  -43.2122 H         1 UNK         0.3000 
    165 H165        1.8264  -18.2521  -40.9259 H         1 UNK         0.0600 
    166 H166        3.6257  -17.8965  -39.2662 H         1 UNK         0.0600 
    167 H167        3.7782  -19.4945  -39.9778 H         1 UNK         0.0600 
    168 H168        4.8601  -18.2041  -40.4884 H         1 UNK         0.0600 
    169 H169        3.6197  -16.0914  -41.0212 H         1 UNK         0.3000 
    170 H170        2.8654  -14.0574  -41.5741 H         1 UNK         0.0600 
    171 H171        3.3564  -13.0166  -43.8100 H         1 UNK         0.0600 
    172 H172        4.1884  -14.5517  -43.6115 H         1 UNK         0.0600 
    173 H173        2.7500  -14.4599  -44.6169 H         1 UNK         0.0600 
    174 H174        0.7839  -13.4164  -43.5033 H         1 UNK         0.3000 
    175 H175       -1.8812  -13.2581  -41.2070 H         1 UNK         0.0600 
    176 H176       -0.3008  -10.7787  -42.0801 H         1 UNK         0.0600 
    177 H177       -1.9996  -10.8082  -41.6044 H         1 UNK         0.0600 
    178 H178       -0.7503  -11.1727  -40.4251 H         1 UNK         0.0600 
    179 H179       -1.3934  -12.1036  -43.8197 H         1 UNK         0.3000 
    180 H180       -1.7495  -14.9330  -45.7317 H         1 UNK         0.0600 
    181 H181       -4.1856  -14.8691  -45.1717 H         1 UNK         0.0600 
    182 H182       -3.8620  -14.1438  -46.7361 H         1 UNK         0.0600 
    183 H183       -4.1815  -13.1174  -45.3366 H         1 UNK         0.0600 
    184 H184       -2.1785  -12.3972  -46.7032 H         1 UNK         0.3000 
    185 H185       -0.3997  -11.5523  -47.9708 H         1 UNK         0.0600 
    186 H186        0.4757   -9.9428  -45.5006 H         1 UNK         0.0600 
    187 H187        0.2156   -9.2808  -47.1146 H         1 UNK         0.0600 
    188 H188       -1.1361   -9.9354  -46.2058 H         1 UNK         0.0600 
    189 H189        2.2168  -10.9261  -46.9130 H         1 UNK         0.3000 
    190 H190       -1.5810  -20.5298  -47.3660 H         1 UNK         0.3000 
    191 H191       -3.8260  -21.1459  -48.9636 H         1 UNK         0.0600 
    192 H192       -3.7060  -19.9554  -46.1439 H         1 UNK         0.0600 
    193 H193       -5.0996  -19.9009  -47.2171 H         1 UNK         0.0600 
    194 H194       -3.6219  -19.0557  -47.6563 H         1 UNK         0.0600 
    195 H195       -2.8774  -22.4410  -45.7364 H         1 UNK         0.3000 
    196 H196       -5.1087  -24.1284  -45.3542 H         1 UNK         0.0600 
    197 H197       -3.6424  -25.2520  -43.6660 H         1 UNK         0.0600 
    198 H198       -3.5654  -23.5022  -43.5296 H         1 UNK         0.0600 
    199 H199       -2.2457  -24.3853  -44.2941 H         1 UNK         0.0600 
    200 H200       -1.9344  -24.8296  -46.9047 H         1 UNK         0.3000 
    201 H201       -2.4278  -27.5609  -47.5208 H         1 UNK         0.0600 
    202 H202       -0.1692  -26.5392  -47.5711 H         1 UNK         0.0600 
    203 H203       -0.6351  -25.5017  -48.9170 H         1 UNK         0.0600 
    204 H204       -0.5431  -27.2454  -49.1362 H         1 UNK         0.0600 
    205 H205       -3.3558  -24.5833  -49.1580 H         1 UNK         0.3000 
    206 H206       -4.5144  -25.9087  -51.5037 H         1 UNK         0.0600 
    207 H207       -4.9518  -23.5988  -52.1940 H         1 UNK         0.0600 
    208 H208       -4.5456  -22.9827  -50.5976 H         1 UNK         0.0600 
    209 H209       -3.3066  -23.7074  -51.6146 H         1 UNK         0.0600 
    210 H210       -5.5430  -25.9811  -48.4615 H         1 UNK         0.3000 
    211 H211       -7.4059  -26.2955  -47.3438 H         1 UNK         0.0600 
    212 H212       -8.7574  -26.7612  -50.0559 H         1 UNK         0.0600 
    213 H213       -9.3178  -27.3455  -48.4949 H         1 UNK         0.0600 
    214 H214       -7.8233  -27.9677  -49.1718 H         1 UNK         0.0600 
    215 H215       -6.7932  -23.5441  -48.2431 H         1 UNK         0.3000 
    216 H216       -7.4911  -21.4783  -48.3139 H         1 UNK         0.0600 
    217 H217       -9.3575  -20.7453  -46.8899 H         1 UNK         0.0600 
    218 H218       -8.4582  -22.0045  -46.0617 H         1 UNK         0.0600 
    219 H219      -10.0081  -22.3762  -46.8166 H         1 UNK         0.0600 
    220 H220       -8.4505  -23.4761  -50.4461 H         1 UNK         0.3000 
    221 H221      -10.7661  -21.9944  -51.6077 H         1 UNK         0.0600 
    222 H222       -9.6526  -24.7984  -52.1549 H         1 UNK         0.0600 
    223 H223      -11.0999  -24.4126  -51.2310 H         1 UNK         0.0600 
    224 H224      -11.0432  -24.0721  -52.9542 H         1 UNK         0.0600 
    225 H225       -7.6650  -23.5635  -52.6038 H         1 UNK         0.3000 
    226 H226       -7.6561  -22.0096  -55.1150 H         1 UNK         0.0600 
    227 H227       -7.1944  -24.4006  -55.2417 H         1 UNK         0.0600 
    228 H228       -5.7408  -23.5192  -55.6732 H         1 UNK         0.0600 
    229 H229       -5.8725  -24.2764  -54.0918 H         1 UNK         0.0600 
    230 H230       -6.4129  -21.5819  -52.0156 H         1 UNK         0.3000 
    231 H231       -5.0848  -20.1989  -50.9597 H         1 UNK         0.0600 
    232 H232       -5.0407  -18.5339  -53.5281 H         1 UNK         0.0600 
    233 H233       -6.2736  -18.4546  -52.2687 H         1 UNK         0.0600 
    234 H234       -4.6220  -17.9654  -51.9210 H         1 UNK         0.0600 
    235 H235       -3.7229  -21.3356  -53.9272 H         1 UNK         0.3000 
    236 H236       -1.7749  -22.1073  -54.5894 H         1 UNK         0.0600 
    237 H237       -0.7554  -21.7451  -51.7296 H         1 UNK         0.0600 
    238 H238       -1.2917  -23.2348  -52.4980 H         1 UNK         0.0600 
    239 H239        0.1807  -22.4544  -53.0323 H         1 UNK         0.0600 
    240 H240       -1.1877  -19.2786  -52.4939 H         1 UNK         0.3000 
    241 H241        0.7025  -18.1001  -54.4114 H         1 UNK         0.0600 
    242 H242       -1.4395  -15.7893  -56.0550 H         1 UNK         0.3800 
    243 H243        0.1710  -16.4328  -55.9062 H         1 UNK         0.3800 
    244 H244       -0.3678  -16.7184  -51.9092 H         1 UNK         0.0800 
    245 H245        0.8681  -17.9270  -51.7940 H         1 UNK         0.0800 
    246 H246        3.0205  -17.7702  -53.7906 H         1 UNK         0.0800 
    247 H247        3.9947  -16.3567  -53.4911 H         1 UNK         0.0800 
@<TRIPOS>BOND
     1    1    2 1    
     2    1  127 1    
     3    1  128 1    
     4    1  129 1    
     5    2    3 2    
     6    2    4 am   BACKBONE|DICT|INTERRES
     7    4    5 1    
     8    4  130 1    
     9    5    6 1    
    10    5   65 1    
    11    5  131 1    
    12    6    7 1    
    13    6  132 1    
    14    6  133 1    
    15    7    8 1    
    16    8    9 1    
    17    8  134 1    
    18    8  135 1    
    19    9   10 ar   
    20    9   14 ar   
    21   10   11 ar   
    22   10  136 1    
    23   11   12 ar   
    24   11  126 1    
    25   12   13 ar   
    26   12  137 1    
    27   13   14 ar   
    28   13   15 1    
    29   14  138 1    
    30   15   16 1    
    31   15  139 1    
    32   15  140 1    
    33   16   17 1    
    34   17   18 1    
    35   17  141 1    
    36   17  142 1    
    37   18   19 1    
    38   18   67 1    
    39   18  143 1    
    40   19   20 am   BACKBONE|DICT|INTERRES
    41   19  144 1    
    42   20   21 2    
    43   20   22 1    
    44   22   23 1    
    45   22   24 1    
    46   22  145 1    
    47   23  146 1    
    48   23  147 1    
    49   23  148 1    
    50   24   25 am   BACKBONE|DICT|INTERRES
    51   24  149 1    
    52   25   26 2    
    53   25   27 1    
    54   27   28 1    
    55   27   29 1    
    56   27  150 1    
    57   28  151 1    
    58   28  152 1    
    59   28  153 1    
    60   29   30 am   BACKBONE|DICT|INTERRES
    61   29  154 1    
    62   30   31 2    
    63   30   32 1    
    64   32   33 1    
    65   32   34 1    
    66   32  155 1    
    67   33  156 1    
    68   33  157 1    
    69   33  158 1    
    70   34   35 am   BACKBONE|DICT|INTERRES
    71   34  159 1    
    72   35   36 2    
    73   35   37 1    
    74   37   38 1    
    75   37   39 1    
    76   37  160 1    
    77   38  161 1    
    78   38  162 1    
    79   38  163 1    
    80   39   40 am   BACKBONE|DICT|INTERRES
    81   39  164 1    
    82   40   41 2    
    83   40   42 1    
    84   42   43 1    
    85   42   44 1    
    86   42  165 1    
    87   43  166 1    
    88   43  167 1    
    89   43  168 1    
    90   44   45 am   BACKBONE|DICT|INTERRES
    91   44  169 1    
    92   45   46 2    
    93   45   47 1    
    94   47   48 1    
    95   47   49 1    
    96   47  170 1    
    97   48  171 1    
    98   48  172 1    
    99   48  173 1    
   100   49   50 am   BACKBONE|DICT|INTERRES
   101   49  174 1    
   102   50   51 2    
   103   50   52 1    
   104   52   53 1    
   105   52   54 1    
   106   52  175 1    
   107   53  176 1    
   108   53  177 1    
   109   53  178 1    
   110   54   55 am   BACKBONE|DICT|INTERRES
   111   54  179 1    
   112   55   56 2    
   113   55   57 1    
   114   57   58 1    
   115   57   59 1    
   116   57  180 1    
   117   58  181 1    
   118   58  182 1    
   119   58  183 1    
   120   59   60 am   BACKBONE|DICT|INTERRES
   121   59  184 1    
   122   60   61 2    
   123   60   62 1    
   124   62   63 1    
   125   62   64 1    
   126   62  185 1    
   127   63  186 1    
   128   63  187 1    
   129   63  188 1    
   130   64   65 am   BACKBONE|DICT|INTERRES
   131   64  189 1    
   132   65   66 2    
   133   67   68 2    
   134   67   69 am   BACKBONE|DICT|INTERRES
   135   69   70 1    
   136   69  190 1    
   137   70   71 1    
   138   70   72 1    
   139   70  191 1    
   140   71  192 1    
   141   71  193 1    
   142   71  194 1    
   143   72   73 2    
   144   72   74 am   BACKBONE|DICT|INTERRES
   145   74   75 1    
   146   74  195 1    
   147   75   76 1    
   148   75   77 1    
   149   75  196 1    
   150   76  197 1    
   151   76  198 1    
   152   76  199 1    
   153   77   78 2    
   154   77   79 am   BACKBONE|DICT|INTERRES
   155   79   80 1    
   156   79  200 1    
   157   80   81 1    
   158   80   82 1    
   159   80  201 1    
   160   81  202 1    
   161   81  203 1    
   162   81  204 1    
   163   82   83 2    
   164   82   84 am   BACKBONE|DICT|INTERRES
   165   84   85 1    
   166   84  205 1    
   167   85   86 1    
   168   85   87 1    
   169   85  206 1    
   170   86  207 1    
   171   86  208 1    
   172   86  209 1    
   173   87   88 2    
   174   87   89 am   BACKBONE|DICT|INTERRES
   175   89   90 1    
   176   89  210 1    
   177   90   91 1    
   178   90   92 1    
   179   90  211 1    
   180   91  212 1    
   181   91  213 1    
   182   91  214 1    
   183   92   93 2    
   184   92   94 am   BACKBONE|DICT|INTERRES
   185   94   95 1    
   186   94  215 1    
   187   95   96 1    
   188   95   97 1    
   189   95  216 1    
   190   96  217 1    
   191   96  218 1    
   192   96  219 1    
   193   97   98 2    
   194   97   99 am   BACKBONE|DICT|INTERRES
   195   99  100 1    
   196   99  220 1    
   197  100  101 1    
   198  100  102 1    
   199  100  221 1    
   200  101  222 1    
   201  101  223 1    
   202  101  224 1    
   203  102  103 2    
   204  102  104 am   BACKBONE|DICT|INTERRES
   205  104  105 1    
   206  104  225 1    
   207  105  106 1    
   208  105  107 1    
   209  105  226 1    
   210  106  227 1    
   211  106  228 1    
   212  106  229 1    
   213  107  108 2    
   214  107  109 am   BACKBONE|DICT|INTERRES
   215  109  110 1    
   216  109  230 1    
   217  110  111 1    
   218  110  112 1    
   219  110  231 1    
   220  111  232 1    
   221  111  233 1    
   222  111  234 1    
   223  112  113 2    
   224  112  114 am   BACKBONE|DICT|INTERRES
   225  114  115 1    
   226  114  235 1    
   227  115  116 1    
   228  115  117 1    
   229  115  236 1    
   230  116  237 1    
   231  116  238 1    
   232  116  239 1    
   233  117  118 2    
   234  117  119 am   BACKBONE|DICT|INTERRES
   235  119  120 1    
   236  119  240 1    
   237  120  121 1    
   238  120  124 1    
   239  120  241 1    
   240  121  122 am   BACKBONE|DICT|INTERRES
   241  121  123 2    
   242  122  242 1    
   243  122  243 1    
   244  124  125 1    
   245  124  244 1    
   246  124  245 1    
   247  125  126 1    
   248  126  246 1    
   249  126  247 1    
@<TRIPOS>SUBSTRUCTURE
     1 UNK         1 GROUP             0       ****    0 ROOT    
