@<TRIPOS>MOLECULE
3R540
247   249    1
SMALL
USER_CHARGES


@<TRIPOS>ATOM
      1 CA          0.1958  -14.1199  -50.9559 C.3       0 UNK        -0.1800 
      2 C          -0.3598  -14.9348  -49.7962 C.2       0 UNK         0.5000 
      3 O           0.0256  -16.0897  -49.6275 O.2       0 UNK        -0.5000 
      4 N          -1.2584  -14.3309  -49.0103 N.am      1 UNK        -0.5000 
      5 CA         -1.9056  -14.9287  -47.8389 C.3       1 UNK         0.1400 
      6 C6         -3.4495  -14.7778  -47.9048 C.3       23 UNK        -0.0398 
      7 S7         -4.1466  -15.7151  -49.3042 S.3       23 UNK        -0.2404 
      8 C8         -4.9967  -17.0750  -48.4467 C.3       23 UNK        -0.0205 
      9 C9         -5.4300  -18.1526  -49.4249 C.ar      23 UNK        -0.0193 
     10 C10        -6.4563  -17.9048  -50.3413 C.ar      23 UNK        -0.1150 
     11 C11        -6.8221  -18.8785  -51.2749 C.ar      23 UNK        -0.0193 
     12 C12        -6.1780  -20.1192  -51.2624 C.ar      23 UNK        -0.1150 
     13 C13        -5.1669  -20.3853  -50.3351 C.ar      23 UNK        -0.0193 
     14 C14        -4.7923  -19.3959  -49.4227 C.ar      23 UNK        -0.1150 
     15 C15        -4.4527  -21.7271  -50.3449 C.3       23 UNK        -0.0205 
     16 S16        -5.4438  -23.0591  -49.5928 S.3       23 UNK        -0.2404 
     17 C17        -5.5892  -22.5258  -47.8509 C.3       23 UNK        -0.0398 
     18 CA         -4.3053  -22.6993  -47.0003 C.3       11 UNK         0.1400 
     19 N          -4.4280  -21.9736  -45.7272 N.am      11 UNK        -0.5000 
     20 C          -3.4743  -21.8633  -44.7933 C.2       10 UNK         0.5000 
     21 O          -2.3776  -22.4149  -44.8749 O.2       10 UNK        -0.5000 
     22 CA         -3.8030  -20.9921  -43.5675 C.3       10 UNK         0.1400 
     23 CB         -3.1955  -21.5643  -42.2760 C.3       10 UNK        -0.1800 
     24 N          -3.2899  -19.6437  -43.7694 N.am      10 UNK        -0.5000 
     25 C          -3.8292  -18.7328  -44.5882 C.2       9 UNK         0.5000 
     26 O          -4.9147  -18.8702  -45.1536 O.2       9 UNK        -0.5000 
     27 CA         -2.9873  -17.4700  -44.8424 C.3       9 UNK         0.1400 
     28 CB         -3.1415  -16.4804  -43.6790 C.3       9 UNK        -0.1800 
     29 N          -1.5692  -17.7681  -45.0631 N.am      9 UNK        -0.5000 
     30 C          -1.0904  -18.5550  -46.0416 C.2       8 UNK         0.5000 
     31 O          -1.7973  -19.0563  -46.9137 O.2       8 UNK        -0.5000 
     32 CA          0.4173  -18.8674  -46.0172 C.3       8 UNK         0.1400 
     33 CB          1.2342  -17.7775  -46.7241 C.3       8 UNK        -0.1800 
     34 N           0.8913  -19.0172  -44.6429 N.am      8 UNK        -0.5000 
     35 C           0.9072  -20.1790  -43.9743 C.2       7 UNK         0.5000 
     36 O           0.6604  -21.2651  -44.4922 O.2       7 UNK        -0.5000 
     37 CA          1.2626  -20.1345  -42.4741 C.3       7 UNK         0.1400 
     38 CB          2.7090  -20.6017  -42.2519 C.3       7 UNK        -0.1800 
     39 N           1.0961  -18.8097  -41.8738 N.am      7 UNK        -0.5000 
     40 C          -0.0815  -18.2112  -41.6458 C.2       6 UNK         0.5000 
     41 O          -1.1696  -18.7420  -41.8659 O.2       6 UNK        -0.5000 
     42 CA         -0.0219  -16.7478  -41.1582 C.3       6 UNK         0.1400 
     43 CB          0.0289  -16.6899  -39.6248 C.3       6 UNK        -0.1800 
     44 N           1.1227  -16.0140  -41.7139 N.am      6 UNK        -0.5000 
     45 C           1.2894  -15.7669  -43.0197 C.2       5 UNK         0.5000 
     46 O           0.4544  -16.0698  -43.8727 O.2       5 UNK        -0.5000 
     47 CA          2.6490  -15.2013  -43.4470 C.3       5 UNK         0.1400 
     48 CB          3.6779  -16.3522  -43.4966 C.3       5 UNK        -0.1800 
     49 N           2.5396  -14.5571  -44.7566 N.am      5 UNK        -0.5000 
     50 C           3.5065  -13.8312  -45.3366 C.2       4 UNK         0.5000 
     51 O           4.5928  -13.5904  -44.8078 O.2       4 UNK        -0.5000 
     52 CA          3.2107  -13.2502  -46.7279 C.3       4 UNK         0.1400 
     53 CB          3.0505  -14.3553  -47.7862 C.3       4 UNK        -0.1800 
     54 N           2.0111  -12.4211  -46.6828 N.am      4 UNK        -0.5000 
     55 C           2.0069  -11.1085  -46.4073 C.2       3 UNK         0.5000 
     56 O           3.0294  -10.4379  -46.2585 O.2       3 UNK        -0.5000 
     57 CA          0.6339  -10.4180  -46.2687 C.3       3 UNK         0.1400 
     58 CB          0.2272   -9.7630  -47.5977 C.3       3 UNK        -0.1800 
     59 N          -0.4286  -11.3298  -45.8461 N.am      3 UNK        -0.5000 
     60 C          -0.4997  -11.9232  -44.6467 C.2       2 UNK         0.5000 
     61 O           0.2596  -11.6692  -43.7113 O.2       2 UNK        -0.5000 
     62 CA         -1.5763  -13.0128  -44.4739 C.3       2 UNK         0.1400 
     63 CB         -2.7916  -12.4589  -43.7153 C.3       2 UNK        -0.1800 
     64 N          -2.0359  -13.6282  -45.7281 N.am      2 UNK        -0.5000 
     65 C          -1.2572  -14.3115  -46.5821 C.2       1 UNK         0.5000 
     66 O          -0.0430  -14.4328  -46.4179 O.2       1 UNK        -0.5000 
     67 C          -3.9083  -24.1866  -46.8261 C.2       11 UNK         0.5000 
     68 O          -3.1608  -24.7199  -47.6481 O.2       11 UNK        -0.5000 
     69 N          -4.3676  -24.8106  -45.7311 N.am      12 UNK        -0.5000 
     70 CA         -4.0109  -26.1743  -45.3384 C.3       12 UNK         0.1400 
     71 CB         -4.9447  -26.6356  -44.2096 C.3       12 UNK        -0.1800 
     72 C          -2.5362  -26.3168  -44.9128 C.2       12 UNK         0.5000 
     73 O          -1.9104  -27.3239  -45.2431 O.2       12 UNK        -0.5000 
     74 N          -1.9964  -25.3035  -44.2189 N.am      13 UNK        -0.5000 
     75 CA         -0.5883  -25.2379  -43.8132 C.3       13 UNK         0.1400 
     76 CB         -0.4203  -24.2214  -42.6738 C.3       13 UNK        -0.1800 
     77 C           0.3277  -24.8893  -44.9998 C.2       13 UNK         0.5000 
     78 O           1.4446  -25.4014  -45.0803 O.2       13 UNK        -0.5000 
     79 N          -0.1906  -24.0735  -45.9277 N.am      14 UNK        -0.5000 
     80 CA          0.4290  -23.7376  -47.2102 C.3       14 UNK         0.1400 
     81 CB         -0.3403  -22.5571  -47.8283 C.3       14 UNK        -0.1800 
     82 C           0.4535  -24.9192  -48.2032 C.2       14 UNK         0.5000 
     83 O           1.1291  -24.8273  -49.2300 O.2       14 UNK        -0.5000 
     84 N          -0.3255  -25.9748  -47.9100 N.am      15 UNK        -0.5000 
     85 CA         -0.5920  -27.1568  -48.7374 C.3       15 UNK         0.1400 
     86 CB          0.6670  -28.0421  -48.8321 C.3       15 UNK        -0.1800 
     87 C          -1.1646  -26.7762  -50.1185 C.2       15 UNK         0.5000 
     88 O          -0.8305  -27.4032  -51.1259 O.2       15 UNK        -0.5000 
     89 N          -1.9624  -25.6983  -50.1364 N.am      16 UNK        -0.5000 
     90 CA         -2.4450  -24.9180  -51.2781 C.3       16 UNK         0.1400 
     91 CB         -3.3759  -25.7462  -52.1816 C.3       16 UNK        -0.1800 
     92 C          -1.3331  -24.2261  -52.0938 C.2       16 UNK         0.5000 
     93 O          -1.4415  -23.0319  -52.3633 O.2       16 UNK        -0.5000 
     94 N          -0.2935  -24.9786  -52.4716 N.am      17 UNK        -0.5000 
     95 CA          0.7810  -24.5962  -53.3868 C.3       17 UNK         0.1400 
     96 CB          1.7187  -25.7975  -53.5786 C.3       17 UNK        -0.1800 
     97 C           1.5858  -23.3494  -52.9781 C.2       17 UNK         0.5000 
     98 O           1.9461  -22.5611  -53.8534 O.2       17 UNK        -0.5000 
     99 N           1.8521  -23.1747  -51.6751 N.am      18 UNK        -0.5000 
    100 CA         2.6382  -22.0465  -51.1609 C.3       18 UNK         0.1400 
    101 CB         3.2301  -22.4076  -49.7896 C.3       18 UNK        -0.1800 
    102 C          1.8548  -20.7184  -51.0960 C.2       18 UNK         0.5000 
    103 O          2.4659  -19.6793  -50.8451 O.2       18 UNK        -0.5000 
    104 N          0.5371  -20.7626  -51.3262 N.am      19 UNK        -0.5000 
    105 CA        -0.3573  -19.6078  -51.3396 C.3       19 UNK         0.1400 
    106 CB        -0.9985  -19.4403  -49.9530 C.3       19 UNK        -0.1800 
    107 C         -1.3820  -19.7742  -52.4726 C.2       19 UNK         0.5000 
    108 O         -2.5796  -19.5895  -52.2630 O.2       19 UNK        -0.5000 
    109 N         -0.8892  -20.1602  -53.6593 N.am      20 UNK        -0.5000 
    110 CA        -1.7056  -20.4711  -54.8360 C.3       20 UNK         0.1400 
    111 CB        -0.8144  -21.1160  -55.9080 C.3       20 UNK        -0.1800 
    112 C         -2.4593  -19.2544  -55.4093 C.2       20 UNK         0.5000 
    113 O         -3.5263  -19.4262  -56.0001 O.2       20 UNK        -0.5000 
    114 N         -1.9006  -18.0535  -55.2146 N.am      21 UNK        -0.5000 
    115 CA        -2.5586  -16.7807  -55.4838 C.3       21 UNK         0.1400 
    116 CB        -1.5056  -15.7489  -55.9202 C.3       21 UNK        -0.1800 
    117 C         -3.2838  -16.3281  -54.2067 C.2       21 UNK         0.5000 
    118 O         -2.6320  -16.1412  -53.1775 O.2       21 UNK        -0.5000 
    119 N         -4.6068  -16.1565  -54.2999 N.am      22 UNK        -0.5000 
    120 CA        -5.4859  -15.7678  -53.1816 C.3       22 UNK         0.1400 
    121 C         -5.3954  -14.2669  -52.7649 C.2       22 UNK         0.5000 
    122 N         -4.6330  -13.4228  -53.4499 N.am      22 UNK        -0.7600 
    123 O         -6.0417  -13.8533  -51.8065 O.2       22 UNK        -0.5000 
    124 C124       -6.9639  -16.1654  -53.4453 C.3       23 UNK        -0.0398 
    125 S125       -7.2040  -17.9319  -53.8505 S.3       23 UNK        -0.2404 
    126 C126       -7.9046  -18.5937  -52.3038 C.3       23 UNK        -0.0205 
    127 H127        1.2837  -14.0817  -50.9006 H         1 UNK         0.0600 
    128 H128       -0.1810  -13.0969  -50.9521 H         1 UNK         0.0600 
    129 H129       -0.0838  -14.5823  -51.9030 H         1 UNK         0.0600 
    130 H130       -1.5194  -13.3774  -49.2133 H         1 UNK         0.3000 
    131 H131       -1.6828  -15.9969  -47.7892 H         1 UNK         0.0600 
    132 H132       -3.9256  -15.1177  -46.9848 H         1 UNK         0.0800 
    133 H133       -3.7328  -13.7314  -48.0300 H         1 UNK         0.0800 
    134 H134       -5.8648  -16.6906  -47.9095 H         1 UNK         0.0800 
    135 H135       -4.3270  -17.5051  -47.7027 H         1 UNK         0.0800 
    136 H136       -6.9458  -16.9411  -50.3461 H         1 UNK         0.1150 
    137 H137       -6.4551  -20.8766  -51.9821 H         1 UNK         0.1150 
    138 H138       -3.9949  -19.5895  -48.7179 H         1 UNK         0.1150 
    139 H139       -3.4904  -21.6579  -49.8382 H         1 UNK         0.0800 
    140 H140       -4.2237  -21.9958  -51.3774 H         1 UNK         0.0800 
    141 H141       -6.4159  -23.0769  -47.3994 H         1 UNK         0.0800 
    142 H142       -5.9029  -21.4816  -47.8458 H         1 UNK         0.0800 
    143 H143       -3.4851  -22.2158  -47.5324 H         1 UNK         0.0600 
    144 H144       -5.2798  -21.4459  -45.5965 H         1 UNK         0.3000 
    145 H145       -4.8871  -20.9525  -43.4423 H         1 UNK         0.0600 
    146 H146       -3.5298  -21.0014  -41.4045 H         1 UNK         0.0600 
    147 H147       -3.4898  -22.6039  -42.1271 H         1 UNK         0.0600 
    148 H148       -2.1059  -21.5258  -42.2924 H         1 UNK         0.0600 
    149 H149       -2.4071  -19.4249  -43.3189 H         1 UNK         0.3000 
    150 H150       -3.3580  -16.9897  -45.7453 H         1 UNK         0.0600 
    151 H151       -2.9353  -16.9473  -42.7165 H         1 UNK         0.0600 
    152 H152       -4.1580  -16.0877  -43.6373 H         1 UNK         0.0600 
    153 H153       -2.4675  -15.6349  -43.7851 H         1 UNK         0.0600 
    154 H154       -0.9073  -17.3214  -44.4371 H         1 UNK         0.3000 
    155 H155        0.5786  -19.7969  -46.5651 H         1 UNK         0.0600 
    156 H156        1.0942  -16.8006  -46.2663 H         1 UNK         0.0600 
    157 H157        0.9405  -17.6920  -47.7695 H         1 UNK         0.0600 
    158 H158        2.2996  -18.0060  -46.7052 H         1 UNK         0.0600 
    159 H159        1.0798  -18.1613  -44.1411 H         1 UNK         0.3000 
    160 H160        0.5946  -20.8297  -41.9607 H         1 UNK         0.0600 
    161 H161        3.4256  -19.9365  -42.7355 H         1 UNK         0.0600 
    162 H162        2.8628  -21.6021  -42.6591 H         1 UNK         0.0600 
    163 H163        2.9517  -20.6444  -41.1899 H         1 UNK         0.0600 
    164 H164        1.9412  -18.3043  -41.6543 H         1 UNK         0.3000 
    165 H165       -0.9348  -16.2487  -41.4886 H         1 UNK         0.0600 
    166 H166       -0.0027  -15.6603  -39.2680 H         1 UNK         0.0600 
    167 H167        0.9343  -17.1545  -39.2325 H         1 UNK         0.0600 
    168 H168       -0.8238  -17.2106  -39.1869 H         1 UNK         0.0600 
    169 H169        1.8476  -15.7469  -41.0630 H         1 UNK         0.3000 
    170 H170        2.9595  -14.4550  -42.7132 H         1 UNK         0.0600 
    171 H171        3.7331  -16.8789  -42.5434 H         1 UNK         0.0600 
    172 H172        3.4209  -17.0853  -44.2626 H         1 UNK         0.0600 
    173 H173        4.6829  -15.9895  -43.7097 H         1 UNK         0.0600 
    174 H174        1.6491  -14.6918  -45.2301 H         1 UNK         0.3000 
    175 H175        4.0665  -12.6404  -47.0257 H         1 UNK         0.0600 
    176 H176        2.2077  -15.0127  -47.5765 H         1 UNK         0.0600 
    177 H177        2.8973  -13.9285  -48.7772 H         1 UNK         0.0600 
    178 H178        3.9442  -14.9784  -47.8350 H         1 UNK         0.0600 
    179 H179        1.1298  -12.9230  -46.7223 H         1 UNK         0.3000 
    180 H180        0.7309   -9.6347  -45.5140 H         1 UNK         0.0600 
    181 H181        0.1018  -10.5027  -48.3895 H         1 UNK         0.0600 
    182 H182        0.9847   -9.0520  -47.9302 H         1 UNK         0.0600 
    183 H183       -0.7095   -9.2142  -47.4975 H         1 UNK         0.0600 
    184 H184       -1.1066  -11.5904  -46.5457 H         1 UNK         0.3000 
    185 H185       -1.1225  -13.7965  -43.8653 H         1 UNK         0.0600 
    186 H186       -3.5132  -13.2457  -43.4949 H         1 UNK         0.0600 
    187 H187       -2.4916  -12.0208  -42.7624 H         1 UNK         0.0600 
    188 H188       -3.3025  -11.6832  -44.2869 H         1 UNK         0.0600 
    189 H189       -3.0199  -13.5296  -45.9271 H         1 UNK         0.3000 
    190 H190       -4.9719  -24.3001  -45.1043 H         1 UNK         0.3000 
    191 H191       -4.1711  -26.8261  -46.2000 H         1 UNK         0.0600 
    192 H192       -4.7172  -27.6593  -43.9089 H         1 UNK         0.0600 
    193 H193       -5.9873  -26.6162  -44.5275 H         1 UNK         0.0600 
    194 H194       -4.8510  -26.0050  -43.3246 H         1 UNK         0.0600 
    195 H195       -2.5433  -24.4671  -44.0674 H         1 UNK         0.3000 
    196 H196       -0.2910  -26.2186  -43.4355 H         1 UNK         0.0600 
    197 H197       -0.6392  -23.2074  -43.0058 H         1 UNK         0.0600 
    198 H198       -1.0760  -24.4518  -41.8341 H         1 UNK         0.0600 
    199 H199        0.6043  -24.2242  -42.3003 H         1 UNK         0.0600 
    200 H200       -1.0710  -23.6134  -45.7149 H         1 UNK         0.3000 
    201 H201        1.4576  -23.4280  -47.0172 H         1 UNK         0.0600 
    202 H202       -1.3177  -22.8634  -48.1982 H         1 UNK         0.0600 
    203 H203        0.1991  -22.1307  -48.6730 H         1 UNK         0.0600 
    204 H204       -0.4985  -21.7594  -47.1036 H         1 UNK         0.0600 
    205 H205       -0.8633  -25.9190  -47.0562 H         1 UNK         0.3000 
    206 H206       -1.3683  -27.7269  -48.2253 H         1 UNK         0.0600 
    207 H207        1.0477  -28.2908  -47.8414 H         1 UNK         0.0600 
    208 H208        0.4477  -28.9816  -49.3405 H         1 UNK         0.0600 
    209 H209        1.4674  -27.5492  -49.3850 H         1 UNK         0.0600 
    210 H210       -2.1985  -25.2972  -49.2317 H         1 UNK         0.3000 
    211 H211       -3.0414  -24.1204  -50.8403 H         1 UNK         0.0600 
    212 H212       -3.8030  -25.1246  -52.9695 H         1 UNK         0.0600 
    213 H213       -4.2060  -26.1630  -51.6112 H         1 UNK         0.0600 
    214 H214       -2.8522  -26.5708  -52.6654 H         1 UNK         0.0600 
    215 H215       -0.2972  -25.9453  -52.1562 H         1 UNK         0.3000 
    216 H216        0.3141  -24.3750  -54.3486 H         1 UNK         0.0600 
    217 H217        2.1751  -26.1028  -52.6359 H         1 UNK         0.0600 
    218 H218        2.5248  -25.5601  -54.2742 H         1 UNK         0.0600 
    219 H219        1.1825  -26.6558  -53.9841 H         1 UNK         0.0600 
    220 H220        1.5213  -23.8535  -50.9952 H         1 UNK         0.3000 
    221 H221        3.4786  -21.8827  -51.8391 H         1 UNK         0.0600 
    222 H222        3.7700  -23.3539  -49.8264 H         1 UNK         0.0600 
    223 H223        2.4607  -22.4890  -49.0253 H         1 UNK         0.0600 
    224 H224        3.9347  -21.6444  -49.4573 H         1 UNK         0.0600 
    225 H225        0.1081  -21.6481  -51.5726 H         1 UNK         0.3000 
    226 H226        0.2042  -18.6990  -51.5661 H         1 UNK         0.0600 
    227 H227       -1.5780  -20.3171  -49.6668 H         1 UNK         0.0600 
    228 H228       -0.2372  -19.2819  -49.1903 H         1 UNK         0.0600 
    229 H229       -1.6652  -18.5770  -49.9264 H         1 UNK         0.0600 
    230 H230        0.1037  -20.3261  -53.7407 H         1 UNK         0.3000 
    231 H231       -2.4553  -21.2050  -54.5322 H         1 UNK         0.0600 
    232 H232       -0.0154  -20.4446  -56.2245 H         1 UNK         0.0600 
    233 H233       -1.3948  -21.3782  -56.7935 H         1 UNK         0.0600 
    234 H234       -0.3564  -22.0334  -55.5380 H         1 UNK         0.0600 
    235 H235       -1.0528  -18.0096  -54.6688 H         1 UNK         0.3000 
    236 H236       -3.2797  -16.8925  -56.2965 H         1 UNK         0.0600 
    237 H237       -0.9963  -16.0682  -56.8296 H         1 UNK         0.0600 
    238 H238       -1.9692  -14.7841  -56.1286 H         1 UNK         0.0600 
    239 H239       -0.7485  -15.5905  -55.1511 H         1 UNK         0.0600 
    240 H240       -5.0694  -16.3448  -55.1772 H         1 UNK         0.3000 
    241 H241       -5.1514  -16.3294  -52.3076 H         1 UNK         0.0600 
    242 H242       -4.5890  -12.4559  -53.1692 H         1 UNK         0.3800 
    243 H243       -4.0933  -13.7426  -54.2371 H         1 UNK         0.3800 
    244 H244       -7.3618  -15.5811  -54.2766 H         1 UNK         0.0800 
    245 H245       -7.5862  -15.9143  -52.5851 H         1 UNK         0.0800 
    246 H246       -8.4399  -19.5166  -52.5324 H         1 UNK         0.0800 
    247 H247       -8.6508  -17.9078  -51.9003 H         1 UNK         0.0800 
@<TRIPOS>BOND
     1    1    2 1    
     2    1  127 1    
     3    1  128 1    
     4    1  129 1    
     5    2    3 2    
     6    2    4 am   BACKBONE|DICT|INTERRES
     7    4    5 1    
     8    4  130 1    
     9    5    6 1    
    10    5   65 1    
    11    5  131 1    
    12    6    7 1    
    13    6  132 1    
    14    6  133 1    
    15    7    8 1    
    16    8    9 1    
    17    8  134 1    
    18    8  135 1    
    19    9   10 ar   
    20    9   14 ar   
    21   10   11 ar   
    22   10  136 1    
    23   11   12 ar   
    24   11  126 1    
    25   12   13 ar   
    26   12  137 1    
    27   13   14 ar   
    28   13   15 1    
    29   14  138 1    
    30   15   16 1    
    31   15  139 1    
    32   15  140 1    
    33   16   17 1    
    34   17   18 1    
    35   17  141 1    
    36   17  142 1    
    37   18   19 1    
    38   18   67 1    
    39   18  143 1    
    40   19   20 am   BACKBONE|DICT|INTERRES
    41   19  144 1    
    42   20   21 2    
    43   20   22 1    
    44   22   23 1    
    45   22   24 1    
    46   22  145 1    
    47   23  146 1    
    48   23  147 1    
    49   23  148 1    
    50   24   25 am   BACKBONE|DICT|INTERRES
    51   24  149 1    
    52   25   26 2    
    53   25   27 1    
    54   27   28 1    
    55   27   29 1    
    56   27  150 1    
    57   28  151 1    
    58   28  152 1    
    59   28  153 1    
    60   29   30 am   BACKBONE|DICT|INTERRES
    61   29  154 1    
    62   30   31 2    
    63   30   32 1    
    64   32   33 1    
    65   32   34 1    
    66   32  155 1    
    67   33  156 1    
    68   33  157 1    
    69   33  158 1    
    70   34   35 am   BACKBONE|DICT|INTERRES
    71   34  159 1    
    72   35   36 2    
    73   35   37 1    
    74   37   38 1    
    75   37   39 1    
    76   37  160 1    
    77   38  161 1    
    78   38  162 1    
    79   38  163 1    
    80   39   40 am   BACKBONE|DICT|INTERRES
    81   39  164 1    
    82   40   41 2    
    83   40   42 1    
    84   42   43 1    
    85   42   44 1    
    86   42  165 1    
    87   43  166 1    
    88   43  167 1    
    89   43  168 1    
    90   44   45 am   BACKBONE|DICT|INTERRES
    91   44  169 1    
    92   45   46 2    
    93   45   47 1    
    94   47   48 1    
    95   47   49 1    
    96   47  170 1    
    97   48  171 1    
    98   48  172 1    
    99   48  173 1    
   100   49   50 am   BACKBONE|DICT|INTERRES
   101   49  174 1    
   102   50   51 2    
   103   50   52 1    
   104   52   53 1    
   105   52   54 1    
   106   52  175 1    
   107   53  176 1    
   108   53  177 1    
   109   53  178 1    
   110   54   55 am   BACKBONE|DICT|INTERRES
   111   54  179 1    
   112   55   56 2    
   113   55   57 1    
   114   57   58 1    
   115   57   59 1    
   116   57  180 1    
   117   58  181 1    
   118   58  182 1    
   119   58  183 1    
   120   59   60 am   BACKBONE|DICT|INTERRES
   121   59  184 1    
   122   60   61 2    
   123   60   62 1    
   124   62   63 1    
   125   62   64 1    
   126   62  185 1    
   127   63  186 1    
   128   63  187 1    
   129   63  188 1    
   130   64   65 am   BACKBONE|DICT|INTERRES
   131   64  189 1    
   132   65   66 2    
   133   67   68 2    
   134   67   69 am   BACKBONE|DICT|INTERRES
   135   69   70 1    
   136   69  190 1    
   137   70   71 1    
   138   70   72 1    
   139   70  191 1    
   140   71  192 1    
   141   71  193 1    
   142   71  194 1    
   143   72   73 2    
   144   72   74 am   BACKBONE|DICT|INTERRES
   145   74   75 1    
   146   74  195 1    
   147   75   76 1    
   148   75   77 1    
   149   75  196 1    
   150   76  197 1    
   151   76  198 1    
   152   76  199 1    
   153   77   78 2    
   154   77   79 am   BACKBONE|DICT|INTERRES
   155   79   80 1    
   156   79  200 1    
   157   80   81 1    
   158   80   82 1    
   159   80  201 1    
   160   81  202 1    
   161   81  203 1    
   162   81  204 1    
   163   82   83 2    
   164   82   84 am   BACKBONE|DICT|INTERRES
   165   84   85 1    
   166   84  205 1    
   167   85   86 1    
   168   85   87 1    
   169   85  206 1    
   170   86  207 1    
   171   86  208 1    
   172   86  209 1    
   173   87   88 2    
   174   87   89 am   BACKBONE|DICT|INTERRES
   175   89   90 1    
   176   89  210 1    
   177   90   91 1    
   178   90   92 1    
   179   90  211 1    
   180   91  212 1    
   181   91  213 1    
   182   91  214 1    
   183   92   93 2    
   184   92   94 am   BACKBONE|DICT|INTERRES
   185   94   95 1    
   186   94  215 1    
   187   95   96 1    
   188   95   97 1    
   189   95  216 1    
   190   96  217 1    
   191   96  218 1    
   192   96  219 1    
   193   97   98 2    
   194   97   99 am   BACKBONE|DICT|INTERRES
   195   99  100 1    
   196   99  220 1    
   197  100  101 1    
   198  100  102 1    
   199  100  221 1    
   200  101  222 1    
   201  101  223 1    
   202  101  224 1    
   203  102  103 2    
   204  102  104 am   BACKBONE|DICT|INTERRES
   205  104  105 1    
   206  104  225 1    
   207  105  106 1    
   208  105  107 1    
   209  105  226 1    
   210  106  227 1    
   211  106  228 1    
   212  106  229 1    
   213  107  108 2    
   214  107  109 am   BACKBONE|DICT|INTERRES
   215  109  110 1    
   216  109  230 1    
   217  110  111 1    
   218  110  112 1    
   219  110  231 1    
   220  111  232 1    
   221  111  233 1    
   222  111  234 1    
   223  112  113 2    
   224  112  114 am   BACKBONE|DICT|INTERRES
   225  114  115 1    
   226  114  235 1    
   227  115  116 1    
   228  115  117 1    
   229  115  236 1    
   230  116  237 1    
   231  116  238 1    
   232  116  239 1    
   233  117  118 2    
   234  117  119 am   BACKBONE|DICT|INTERRES
   235  119  120 1    
   236  119  240 1    
   237  120  121 1    
   238  120  124 1    
   239  120  241 1    
   240  121  122 am   BACKBONE|DICT|INTERRES
   241  121  123 2    
   242  122  242 1    
   243  122  243 1    
   244  124  125 1    
   245  124  244 1    
   246  124  245 1    
   247  125  126 1    
   248  126  246 1    
   249  126  247 1    
@<TRIPOS>SUBSTRUCTURE
     1 UNK         1 GROUP             0       ****    0 ROOT    
