@<TRIPOS>MOLECULE
3R540
247   249    1
SMALL
USER_CHARGES


@<TRIPOS>ATOM
      1 CA         -3.3007  -18.4624  -47.4288 C.3       0 UNK        -0.1800 
      2 C          -2.1018  -17.5312  -47.5416 C.2       0 UNK         0.5000 
      3 O          -1.4889  -17.2022  -46.5264 O.2       0 UNK        -0.5000 
      4 N          -1.7556  -17.1168  -48.7687 N.am      1 UNK        -0.5000 
      5 CA         -0.5936  -16.2799  -49.0910 C.3       1 UNK         0.1400 
      6 C6          0.7322  -17.0297  -48.7726 C.3       23 UNK        -0.0398 
      7 S7          2.1985  -16.4440  -49.7011 S.3       23 UNK        -0.2404 
      8 C8          1.9353  -17.0233  -51.4182 C.3       23 UNK        -0.0205 
      9 C9          1.1365  -18.3143  -51.5055 C.ar      23 UNK        -0.0193 
     10 C10        -0.1618  -18.2965  -52.0174 C.ar      23 UNK        -0.1150 
     11 C11        -0.9494  -19.4490  -52.0042 C.ar      23 UNK        -0.0193 
     12 C12        -0.4256  -20.6337  -51.4802 C.ar      23 UNK        -0.1150 
     13 C13         0.8716  -20.6601  -50.9540 C.ar      23 UNK        -0.0193 
     14 C14         1.6598  -19.5072  -51.0017 C.ar      23 UNK        -0.1150 
     15 C15         1.4043  -21.9081  -50.2662 C.3       23 UNK        -0.0205 
     16 S16         1.4214  -21.7094  -48.4503 S.3       23 UNK        -0.2404 
     17 C17        -0.3552  -21.5240  -48.0763 C.3       23 UNK        -0.0398 
     18 CA         -0.8639  -22.6207  -47.1148 C.3       11 UNK         0.1400 
     19 N          -0.4366  -22.3792  -45.7314 N.am      11 UNK        -0.5000 
     20 C          -0.6638  -23.1985  -44.6926 C.2       10 UNK         0.5000 
     21 O          -1.2328  -24.2847  -44.7983 O.2       10 UNK        -0.5000 
     22 CA         -0.2624  -22.7008  -43.2905 C.3       10 UNK         0.1400 
     23 CB          1.1379  -23.2135  -42.9253 C.3       10 UNK        -0.1800 
     24 N          -0.2941  -21.2441  -43.1415 N.am      10 UNK        -0.5000 
     25 C          -1.3441  -20.4485  -43.3948 C.2       9 UNK         0.5000 
     26 O          -2.4479  -20.8670  -43.7432 O.2       9 UNK        -0.5000 
     27 CA         -1.1171  -18.9285  -43.2873 C.3       9 UNK         0.1400 
     28 CB         -1.6812  -18.4034  -41.9577 C.3       9 UNK        -0.1800 
     29 N           0.2815  -18.5006  -43.4145 N.am      9 UNK        -0.5000 
     30 C           1.0981  -18.7372  -44.4541 C.2       8 UNK         0.5000 
     31 O           0.7797  -19.4191  -45.4294 O.2       8 UNK        -0.5000 
     32 CA          2.5155  -18.1369  -44.3814 C.3       8 UNK         0.1400 
     33 CB          2.7894  -17.2201  -45.5830 C.3       8 UNK        -0.1800 
     34 N           2.7347  -17.3587  -43.1615 N.am      8 UNK        -0.5000 
     35 C           3.4098  -17.7713  -42.0807 C.2       7 UNK         0.5000 
     36 O           3.8437  -18.9161  -41.9440 O.2       7 UNK        -0.5000 
     37 CA          3.6350  -16.7107  -40.9778 C.3       7 UNK         0.1400 
     38 CB          4.7990  -17.0589  -40.0275 C.3       7 UNK        -0.1800 
     39 N           3.7863  -15.3569  -41.5275 N.am      7 UNK        -0.5000 
     40 C           4.7264  -14.9214  -42.3820 C.2       6 UNK         0.5000 
     41 O           5.7129  -15.5809  -42.7111 O.2       6 UNK        -0.5000 
     42 CA          4.5084  -13.5347  -43.0185 C.3       6 UNK         0.1400 
     43 CB          4.3450  -13.6741  -44.5392 C.3       6 UNK        -0.1800 
     44 N           3.3142  -12.8669  -42.4962 N.am      6 UNK        -0.5000 
     45 C           3.3206  -11.8091  -41.6745 C.2       5 UNK         0.5000 
     46 O           4.3440  -11.2390  -41.2947 O.2       5 UNK        -0.5000 
     47 CA          1.9491  -11.3143  -41.1722 C.3       5 UNK         0.1400 
     48 CB          1.4039  -10.2138  -42.0948 C.3       5 UNK        -0.1800 
     49 N           0.9536  -12.3836  -41.0624 N.am      5 UNK        -0.5000 
     50 C           1.0325  -13.4192  -40.2147 C.2       4 UNK         0.5000 
     51 O           1.9402  -13.5622  -39.3963 O.2       4 UNK        -0.5000 
     52 CA         -0.0521  -14.5072  -40.3226 C.3       4 UNK         0.1400 
     53 CB         -1.1088  -14.3244  -39.2233 C.3       4 UNK        -0.1800 
     54 N          -0.7266  -14.5705  -41.6213 N.am      4 UNK        -0.5000 
     55 C          -0.1515  -14.8472  -42.7991 C.2       3 UNK         0.5000 
     56 O           1.0622  -15.0263  -42.9388 O.2       3 UNK        -0.5000 
     57 CA         -1.0979  -14.9971  -44.0075 C.3       3 UNK         0.1400 
     58 CB         -2.4730  -14.3171  -43.8229 C.3       3 UNK        -0.1800 
     59 N          -0.4911  -14.5841  -45.2713 N.am      3 UNK        -0.5000 
     60 C          -0.0455  -13.3631  -45.6045 C.2       2 UNK         0.5000 
     61 O          -0.0298  -12.4094  -44.8247 O.2       2 UNK        -0.5000 
     62 CA          0.4523  -13.1586  -47.0549 C.3       2 UNK         0.1400 
     63 CB          1.8948  -12.6303  -47.0897 C.3       2 UNK        -0.1800 
     64 N           0.3883  -14.3728  -47.8711 N.am      2 UNK        -0.5000 
     65 C          -0.7141  -14.8795  -48.4379 C.2       1 UNK         0.5000 
     66 O          -1.8016  -14.2986  -48.4367 O.2       1 UNK        -0.5000 
     67 C          -2.3909  -22.7916  -47.2711 C.2       11 UNK         0.5000 
     68 O          -2.8138  -23.4680  -48.2095 O.2       11 UNK        -0.5000 
     69 N          -3.1928  -22.2333  -46.3514 N.am      12 UNK        -0.5000 
     70 CA         -4.6463  -22.4131  -46.3217 C.3       12 UNK         0.1400 
     71 CB         -5.2679  -21.4037  -45.3457 C.3       12 UNK        -0.1800 
     72 C          -5.0787  -23.8500  -45.9657 C.2       12 UNK         0.5000 
     73 O          -6.2065  -24.2272  -46.2824 O.2       12 UNK        -0.5000 
     74 N          -4.1843  -24.6229  -45.3347 N.am      13 UNK        -0.5000 
     75 CA         -4.3812  -26.0310  -45.0019 C.3       13 UNK         0.1400 
     76 CB         -4.0517  -26.2496  -43.5163 C.3       13 UNK        -0.1800 
     77 C          -3.5042  -26.9269  -45.8905 C.2       13 UNK         0.5000 
     78 O          -4.0105  -27.8895  -46.4662 O.2       13 UNK        -0.5000 
     79 N          -2.2092  -26.5954  -45.9929 N.am      14 UNK        -0.5000 
     80 CA         -1.1877  -27.3999  -46.6664 C.3       14 UNK         0.1400 
     81 CB          0.2034  -26.8782  -46.2736 C.3       14 UNK        -0.1800 
     82 C          -1.3331  -27.4351  -48.1970 C.2       14 UNK         0.5000 
     83 O          -1.0717  -28.4750  -48.8027 O.2       14 UNK        -0.5000 
     84 N          -1.7480  -26.3079  -48.7876 N.am      15 UNK        -0.5000 
     85 CA         -1.9744  -26.1529  -50.2264 C.3       15 UNK         0.1400 
     86 CB         -1.0742  -25.0188  -50.7485 C.3       15 UNK        -0.1800 
     87 C          -3.4540  -25.8685  -50.5406 C.2       15 UNK         0.5000 
     88 O          -3.7805  -25.6139  -51.6993 O.2       15 UNK        -0.5000 
     89 N          -4.3152  -25.8641  -49.5093 N.am      16 UNK        -0.5000 
     90 CA         -5.7504  -25.5475  -49.5375 C.3       16 UNK         0.1400 
     91 CB         -6.5199  -26.6581  -50.2821 C.3       16 UNK        -0.1800 
     92 C          -6.0782  -24.1402  -50.0937 C.2       16 UNK         0.5000 
     93 O          -7.2042  -23.9117  -50.5383 O.2       16 UNK        -0.5000 
     94 N          -5.0788  -23.2413  -50.1028 N.am      17 UNK        -0.5000 
     95 CA         -5.0466  -21.9482  -50.7984 C.3       17 UNK         0.1400 
     96 CB         -5.9899  -20.9372  -50.1137 C.3       17 UNK        -0.1800 
     97 C          -5.2910  -22.0551  -52.3258 C.2       17 UNK         0.5000 
     98 O          -5.7469  -21.0919  -52.9427 O.2       17 UNK        -0.5000 
     99 N          -4.9915  -23.2171  -52.9238 N.am      18 UNK        -0.5000 
    100 CA        -5.2795  -23.5377  -54.3207 C.3       18 UNK         0.1400 
    101 CB        -5.6315  -25.0332  -54.4238 C.3       18 UNK        -0.1800 
    102 C         -4.1167  -23.1330  -55.2465 C.2       18 UNK         0.5000 
    103 O         -3.4957  -23.9916  -55.8767 O.2       18 UNK        -0.5000 
    104 N         -3.8467  -21.8266  -55.3237 N.am      19 UNK        -0.5000 
    105 CA        -2.9041  -21.2195  -56.2591 C.3       19 UNK         0.1400 
    106 CB        -1.4733  -21.2688  -55.6942 C.3       19 UNK        -0.1800 
    107 C         -3.3529  -19.7818  -56.5498 C.2       19 UNK         0.5000 
    108 O         -4.0185  -19.1682  -55.7120 O.2       19 UNK        -0.5000 
    109 N         -2.9700  -19.2633  -57.7247 N.am      20 UNK        -0.5000 
    110 CA        -3.3813  -17.9560  -58.2538 C.3       20 UNK         0.1400 
    111 CB        -2.8006  -17.7801  -59.6650 C.3       20 UNK        -0.1800 
    112 C         -3.0044  -16.7548  -57.3651 C.2       20 UNK         0.5000 
    113 O         -3.7272  -15.7575  -57.3528 O.2       20 UNK        -0.5000 
    114 N         -1.9137  -16.8898  -56.5986 N.am      21 UNK        -0.5000 
    115 CA        -1.4410  -15.9129  -55.6140 C.3       21 UNK         0.1400 
    116 CB        -0.0612  -16.3588  -55.1060 C.3       21 UNK        -0.1800 
    117 C         -2.4157  -15.6718  -54.4390 C.2       21 UNK         0.5000 
    118 O         -2.3125  -14.6377  -53.7787 O.2       21 UNK        -0.5000 
    119 N         -3.3468  -16.6072  -54.2136 N.am      22 UNK        -0.5000 
    120 CA        -4.4575  -16.4912  -53.2563 C.3       22 UNK         0.1400 
    121 C         -5.7465  -15.8816  -53.8858 C.2       22 UNK         0.5000 
    122 N         -5.7745  -15.5211  -55.1647 N.am      22 UNK        -0.7600 
    123 O         -6.7449  -15.7089  -53.1920 O.2       22 UNK        -0.5000 
    124 C124       -4.7499  -17.8502  -52.5661 C.3       23 UNK        -0.0398 
    125 S125       -3.4105  -18.3580  -51.4375 S.3       23 UNK        -0.2404 
    126 C126       -2.3743  -19.3835  -52.5249 C.3       23 UNK        -0.0205 
    127 H127       -3.6976  -18.7387  -48.4054 H         1 UNK         0.0600 
    128 H128       -4.0960  -17.9830  -46.8586 H         1 UNK         0.0600 
    129 H129       -3.0117  -19.3759  -46.9100 H         1 UNK         0.0600 
    130 H130       -2.3150  -17.4026  -49.5623 H         1 UNK         0.3000 
    131 H131       -0.6446  -16.1123  -50.1670 H         1 UNK         0.0600 
    132 H132        0.9480  -16.9797  -47.7069 H         1 UNK         0.0800 
    133 H133        0.6115  -18.0974  -48.9521 H         1 UNK         0.0800 
    134 H134        1.4375  -16.2295  -51.9771 H         1 UNK         0.0800 
    135 H135        2.9050  -17.1668  -51.8964 H         1 UNK         0.0800 
    136 H136       -0.5831  -17.3729  -52.3875 H         1 UNK         0.1150 
    137 H137       -1.0395  -21.5227  -51.4468 H         1 UNK         0.1150 
    138 H138        2.6534  -19.5180  -50.5758 H         1 UNK         0.1150 
    139 H139        0.8127  -22.7835  -50.5340 H         1 UNK         0.0800 
    140 H140        2.4197  -22.1067  -50.6117 H         1 UNK         0.0800 
    141 H141       -0.5265  -20.5291  -47.6609 H         1 UNK         0.0800 
    142 H142       -0.9118  -21.5519  -49.0122 H         1 UNK         0.0800 
    143 H143       -0.4278  -23.5736  -47.4218 H         1 UNK         0.0600 
    144 H144        0.0268  -21.4938  -45.5587 H         1 UNK         0.3000 
    145 H145       -0.9792  -23.1183  -42.5807 H         1 UNK         0.0600 
    146 H146        1.3992  -22.9530  -41.8995 H         1 UNK         0.0600 
    147 H147        1.1898  -24.3003  -43.0065 H         1 UNK         0.0600 
    148 H148        1.9021  -22.7979  -43.5835 H         1 UNK         0.0600 
    149 H149        0.5720  -20.8024  -42.8714 H         1 UNK         0.3000 
    150 H150       -1.6761  -18.4699  -44.1047 H         1 UNK         0.0600 
    151 H151       -2.7252  -18.6949  -41.8335 H         1 UNK         0.0600 
    152 H152       -1.6463  -17.3166  -41.9078 H         1 UNK         0.0600 
    153 H153       -1.1280  -18.7964  -41.1038 H         1 UNK         0.0600 
    154 H154        0.6556  -17.9551  -42.6530 H         1 UNK         0.3000 
    155 H155        3.2206  -18.9694  -44.4254 H         1 UNK         0.0600 
    156 H156        3.7863  -16.7827  -45.5245 H         1 UNK         0.0600 
    157 H157        2.0684  -16.4035  -45.6384 H         1 UNK         0.0600 
    158 H158        2.7425  -17.7813  -46.5166 H         1 UNK         0.0600 
    159 H159        2.3572  -16.4144  -43.1618 H         1 UNK         0.3000 
    160 H160        2.7208  -16.6958  -40.3832 H         1 UNK         0.0600 
    161 H161        5.7429  -17.1679  -40.5620 H         1 UNK         0.0600 
    162 H162        4.6098  -17.9981  -39.5065 H         1 UNK         0.0600 
    163 H163        4.9302  -16.2885  -39.2677 H         1 UNK         0.0600 
    164 H164        3.0351  -14.7174  -41.3133 H         1 UNK         0.3000 
    165 H165        5.4038  -12.9419  -42.8215 H         1 UNK         0.0600 
    166 H166        3.4769  -14.2855  -44.7879 H         1 UNK         0.0600 
    167 H167        4.2205  -12.6993  -45.0107 H         1 UNK         0.0600 
    168 H168        5.2195  -14.1435  -44.9915 H         1 UNK         0.0600 
    169 H169        2.4241  -13.2735  -42.7591 H         1 UNK         0.3000 
    170 H170        2.0955  -10.8871  -40.1780 H         1 UNK         0.0600 
    171 H171        2.1092   -9.3856  -42.1740 H         1 UNK         0.0600 
    172 H172        1.2226  -10.5878  -43.1032 H         1 UNK         0.0600 
    173 H173        0.4672   -9.8067  -41.7138 H         1 UNK         0.0600 
    174 H174        0.1836  -12.3545  -41.7154 H         1 UNK         0.3000 
    175 H175        0.4401  -15.4686  -40.1632 H         1 UNK         0.0600 
    176 H176       -1.6608  -13.3919  -39.3475 H         1 UNK         0.0600 
    177 H177       -1.8274  -15.1442  -39.2258 H         1 UNK         0.0600 
    178 H178       -0.6470  -14.3034  -38.2351 H         1 UNK         0.0600 
    179 H179       -1.7258  -14.4257  -41.6051 H         1 UNK         0.3000 
    180 H180       -1.2774  -16.0663  -44.1071 H         1 UNK         0.0600 
    181 H181       -2.3766  -13.2500  -43.6188 H         1 UNK         0.0600 
    182 H182       -3.0366  -14.7667  -43.0048 H         1 UNK         0.0600 
    183 H183       -3.0827  -14.4274  -44.7201 H         1 UNK         0.0600 
    184 H184       -0.4737  -15.3082  -45.9780 H         1 UNK         0.3000 
    185 H185       -0.1932  -12.3997  -47.5016 H         1 UNK         0.0600 
    186 H186        2.1699  -12.3158  -48.0965 H         1 UNK         0.0600 
    187 H187        2.0234  -11.7667  -46.4358 H         1 UNK         0.0600 
    188 H188        2.6059  -13.3938  -46.7781 H         1 UNK         0.0600 
    189 H189        1.2508  -14.8922  -47.9606 H         1 UNK         0.3000 
    190 H190       -2.7877  -21.7206  -45.5744 H         1 UNK         0.3000 
    191 H191       -5.0315  -22.1990  -47.3193 H         1 UNK         0.0600 
    192 H192       -4.9832  -20.3817  -45.5954 H         1 UNK         0.0600 
    193 H193       -6.3570  -21.4539  -45.3752 H         1 UNK         0.0600 
    194 H194       -4.9602  -21.5974  -44.3177 H         1 UNK         0.0600 
    195 H195       -3.2712  -24.2369  -45.1258 H         1 UNK         0.3000 
    196 H196       -5.4214  -26.3238  -45.1598 H         1 UNK         0.0600 
    197 H197       -4.1737  -27.2974  -43.2389 H         1 UNK         0.0600 
    198 H198       -4.7153  -25.6653  -42.8788 H         1 UNK         0.0600 
    199 H199       -3.0260  -25.9633  -43.2798 H         1 UNK         0.0600 
    200 H200       -1.8669  -25.7795  -45.4880 H         1 UNK         0.3000 
    201 H201       -1.2780  -28.4259  -46.3034 H         1 UNK         0.0600 
    202 H202        0.3453  -26.9082  -45.1931 H         1 UNK         0.0600 
    203 H203        0.3562  -25.8494  -46.6015 H         1 UNK         0.0600 
    204 H204        0.9903  -27.4860  -46.7219 H         1 UNK         0.0600 
    205 H205       -1.9509  -25.4958  -48.2191 H         1 UNK         0.3000 
    206 H206       -1.7124  -27.0668  -50.7627 H         1 UNK         0.0600 
    207 H207       -0.0255  -25.2177  -50.5274 H         1 UNK         0.0600 
    208 H208       -1.1615  -24.9136  -51.8306 H         1 UNK         0.0600 
    209 H209       -1.3339  -24.0576  -50.3058 H         1 UNK         0.0600 
    210 H210       -3.9406  -26.0899  -48.6000 H         1 UNK         0.3000 
    211 H211       -6.0873  -25.5565  -48.5019 H         1 UNK         0.0600 
    212 H212       -6.2864  -26.6670  -51.3473 H         1 UNK         0.0600 
    213 H213       -7.5977  -26.5234  -50.1847 H         1 UNK         0.0600 
    214 H214       -6.2810  -27.6418  -49.8778 H         1 UNK         0.0600 
    215 H215       -4.2089  -23.5126  -49.6545 H         1 UNK         0.3000 
    216 H216       -4.0288  -21.5722  -50.6856 H         1 UNK         0.0600 
    217 H217       -5.7486  -20.8212  -49.0582 H         1 UNK         0.0600 
    218 H218       -7.0340  -21.2408  -50.1900 H         1 UNK         0.0600 
    219 H219       -5.9060  -19.9497  -50.5672 H         1 UNK         0.0600 
    220 H220       -4.5834  -23.9694  -52.3754 H         1 UNK         0.3000 
    221 H221       -6.1600  -22.9799  -54.6466 H         1 UNK         0.0600 
    222 H222       -4.7865  -25.6686  -54.1569 H         1 UNK         0.0600 
    223 H223       -6.4620  -25.2887  -53.7652 H         1 UNK         0.0600 
    224 H224       -5.9294  -25.2945  -55.4398 H         1 UNK         0.0600 
    225 H225       -4.4121  -21.1682  -54.7967 H         1 UNK         0.3000 
    226 H226       -2.9340  -21.7715  -57.2012 H         1 UNK         0.0600 
    227 H227       -1.1446  -22.2974  -55.5451 H         1 UNK         0.0600 
    228 H228       -0.7644  -20.8003  -56.3777 H         1 UNK         0.0600 
    229 H229       -1.3930  -20.7561  -54.7379 H         1 UNK         0.0600 
    230 H230       -2.4085  -19.8313  -58.3432 H         1 UNK         0.3000 
    231 H231       -4.4703  -17.9658  -58.3329 H         1 UNK         0.0600 
    232 H232       -3.1077  -16.8274  -60.0988 H         1 UNK         0.0600 
    233 H233       -3.1470  -18.5664  -60.3360 H         1 UNK         0.0600 
    234 H234       -1.7101  -17.8006  -59.6565 H         1 UNK         0.0600 
    235 H235       -1.3868  -17.7472  -56.6734 H         1 UNK         0.3000 
    236 H236       -1.3210  -14.9557  -56.1254 H         1 UNK         0.0600 
    237 H237        0.6763  -16.3364  -55.9084 H         1 UNK         0.0600 
    238 H238        0.3027  -15.7016  -54.3152 H         1 UNK         0.0600 
    239 H239       -0.0883  -17.3739  -54.7105 H         1 UNK         0.0600 
    240 H240       -3.3881  -17.4170  -54.8223 H         1 UNK         0.3000 
    241 H241       -4.1702  -15.7883  -52.4722 H         1 UNK         0.0600 
    242 H242       -4.9662  -15.6305  -55.7664 H         1 UNK         0.3800 
    243 H243       -6.6191  -15.1215  -55.5418 H         1 UNK         0.3800 
    244 H244       -4.9339  -18.6295  -53.3052 H         1 UNK         0.0800 
    245 H245       -5.6569  -17.7910  -51.9626 H         1 UNK         0.0800 
    246 H246       -2.8092  -20.3789  -52.6146 H         1 UNK         0.0800 
    247 H247       -2.3549  -18.9638  -53.5288 H         1 UNK         0.0800 
@<TRIPOS>BOND
     1    1    2 1    
     2    1  127 1    
     3    1  128 1    
     4    1  129 1    
     5    2    3 2    
     6    2    4 am   BACKBONE|DICT|INTERRES
     7    4    5 1    
     8    4  130 1    
     9    5    6 1    
    10    5   65 1    
    11    5  131 1    
    12    6    7 1    
    13    6  132 1    
    14    6  133 1    
    15    7    8 1    
    16    8    9 1    
    17    8  134 1    
    18    8  135 1    
    19    9   10 ar   
    20    9   14 ar   
    21   10   11 ar   
    22   10  136 1    
    23   11   12 ar   
    24   11  126 1    
    25   12   13 ar   
    26   12  137 1    
    27   13   14 ar   
    28   13   15 1    
    29   14  138 1    
    30   15   16 1    
    31   15  139 1    
    32   15  140 1    
    33   16   17 1    
    34   17   18 1    
    35   17  141 1    
    36   17  142 1    
    37   18   19 1    
    38   18   67 1    
    39   18  143 1    
    40   19   20 am   BACKBONE|DICT|INTERRES
    41   19  144 1    
    42   20   21 2    
    43   20   22 1    
    44   22   23 1    
    45   22   24 1    
    46   22  145 1    
    47   23  146 1    
    48   23  147 1    
    49   23  148 1    
    50   24   25 am   BACKBONE|DICT|INTERRES
    51   24  149 1    
    52   25   26 2    
    53   25   27 1    
    54   27   28 1    
    55   27   29 1    
    56   27  150 1    
    57   28  151 1    
    58   28  152 1    
    59   28  153 1    
    60   29   30 am   BACKBONE|DICT|INTERRES
    61   29  154 1    
    62   30   31 2    
    63   30   32 1    
    64   32   33 1    
    65   32   34 1    
    66   32  155 1    
    67   33  156 1    
    68   33  157 1    
    69   33  158 1    
    70   34   35 am   BACKBONE|DICT|INTERRES
    71   34  159 1    
    72   35   36 2    
    73   35   37 1    
    74   37   38 1    
    75   37   39 1    
    76   37  160 1    
    77   38  161 1    
    78   38  162 1    
    79   38  163 1    
    80   39   40 am   BACKBONE|DICT|INTERRES
    81   39  164 1    
    82   40   41 2    
    83   40   42 1    
    84   42   43 1    
    85   42   44 1    
    86   42  165 1    
    87   43  166 1    
    88   43  167 1    
    89   43  168 1    
    90   44   45 am   BACKBONE|DICT|INTERRES
    91   44  169 1    
    92   45   46 2    
    93   45   47 1    
    94   47   48 1    
    95   47   49 1    
    96   47  170 1    
    97   48  171 1    
    98   48  172 1    
    99   48  173 1    
   100   49   50 am   BACKBONE|DICT|INTERRES
   101   49  174 1    
   102   50   51 2    
   103   50   52 1    
   104   52   53 1    
   105   52   54 1    
   106   52  175 1    
   107   53  176 1    
   108   53  177 1    
   109   53  178 1    
   110   54   55 am   BACKBONE|DICT|INTERRES
   111   54  179 1    
   112   55   56 2    
   113   55   57 1    
   114   57   58 1    
   115   57   59 1    
   116   57  180 1    
   117   58  181 1    
   118   58  182 1    
   119   58  183 1    
   120   59   60 am   BACKBONE|DICT|INTERRES
   121   59  184 1    
   122   60   61 2    
   123   60   62 1    
   124   62   63 1    
   125   62   64 1    
   126   62  185 1    
   127   63  186 1    
   128   63  187 1    
   129   63  188 1    
   130   64   65 am   BACKBONE|DICT|INTERRES
   131   64  189 1    
   132   65   66 2    
   133   67   68 2    
   134   67   69 am   BACKBONE|DICT|INTERRES
   135   69   70 1    
   136   69  190 1    
   137   70   71 1    
   138   70   72 1    
   139   70  191 1    
   140   71  192 1    
   141   71  193 1    
   142   71  194 1    
   143   72   73 2    
   144   72   74 am   BACKBONE|DICT|INTERRES
   145   74   75 1    
   146   74  195 1    
   147   75   76 1    
   148   75   77 1    
   149   75  196 1    
   150   76  197 1    
   151   76  198 1    
   152   76  199 1    
   153   77   78 2    
   154   77   79 am   BACKBONE|DICT|INTERRES
   155   79   80 1    
   156   79  200 1    
   157   80   81 1    
   158   80   82 1    
   159   80  201 1    
   160   81  202 1    
   161   81  203 1    
   162   81  204 1    
   163   82   83 2    
   164   82   84 am   BACKBONE|DICT|INTERRES
   165   84   85 1    
   166   84  205 1    
   167   85   86 1    
   168   85   87 1    
   169   85  206 1    
   170   86  207 1    
   171   86  208 1    
   172   86  209 1    
   173   87   88 2    
   174   87   89 am   BACKBONE|DICT|INTERRES
   175   89   90 1    
   176   89  210 1    
   177   90   91 1    
   178   90   92 1    
   179   90  211 1    
   180   91  212 1    
   181   91  213 1    
   182   91  214 1    
   183   92   93 2    
   184   92   94 am   BACKBONE|DICT|INTERRES
   185   94   95 1    
   186   94  215 1    
   187   95   96 1    
   188   95   97 1    
   189   95  216 1    
   190   96  217 1    
   191   96  218 1    
   192   96  219 1    
   193   97   98 2    
   194   97   99 am   BACKBONE|DICT|INTERRES
   195   99  100 1    
   196   99  220 1    
   197  100  101 1    
   198  100  102 1    
   199  100  221 1    
   200  101  222 1    
   201  101  223 1    
   202  101  224 1    
   203  102  103 2    
   204  102  104 am   BACKBONE|DICT|INTERRES
   205  104  105 1    
   206  104  225 1    
   207  105  106 1    
   208  105  107 1    
   209  105  226 1    
   210  106  227 1    
   211  106  228 1    
   212  106  229 1    
   213  107  108 2    
   214  107  109 am   BACKBONE|DICT|INTERRES
   215  109  110 1    
   216  109  230 1    
   217  110  111 1    
   218  110  112 1    
   219  110  231 1    
   220  111  232 1    
   221  111  233 1    
   222  111  234 1    
   223  112  113 2    
   224  112  114 am   BACKBONE|DICT|INTERRES
   225  114  115 1    
   226  114  235 1    
   227  115  116 1    
   228  115  117 1    
   229  115  236 1    
   230  116  237 1    
   231  116  238 1    
   232  116  239 1    
   233  117  118 2    
   234  117  119 am   BACKBONE|DICT|INTERRES
   235  119  120 1    
   236  119  240 1    
   237  120  121 1    
   238  120  124 1    
   239  120  241 1    
   240  121  122 am   BACKBONE|DICT|INTERRES
   241  121  123 2    
   242  122  242 1    
   243  122  243 1    
   244  124  125 1    
   245  124  244 1    
   246  124  245 1    
   247  125  126 1    
   248  126  246 1    
   249  126  247 1    
@<TRIPOS>SUBSTRUCTURE
     1 UNK         1 GROUP             0       ****    0 ROOT    
