@<TRIPOS>MOLECULE
3R540
247   249    1
SMALL
USER_CHARGES


@<TRIPOS>ATOM
      1 CA         -4.9521  -12.1043  -50.2845 C.3       0 UNK        -0.1800 
      2 C          -3.7235  -12.5707  -51.0523 C.2       0 UNK         0.5000 
      3 O          -2.8902  -11.7489  -51.4341 O.2       0 UNK        -0.5000 
      4 N          -3.6103  -13.8849  -51.2805 N.am      1 UNK        -0.5000 
      5 CA         -2.4814  -14.5323  -51.9619 C.3       1 UNK         0.1400 
      6 C6         -2.8313  -15.9795  -52.3868 C.3       23 UNK        -0.0398 
      7 S7         -3.3026  -17.0612  -50.9864 S.3       23 UNK        -0.2404 
      8 C8         -2.7330  -18.6832  -51.5694 C.3       23 UNK        -0.0205 
      9 C9         -1.2203  -18.8304  -51.5553 C.ar      23 UNK        -0.0193 
     10 C10        -0.4960  -18.7558  -52.7454 C.ar      23 UNK        -0.1150 
     11 C11         0.8852  -18.9541  -52.7545 C.ar      23 UNK        -0.0193 
     12 C12         1.5481  -19.2390  -51.5560 C.ar      23 UNK        -0.1150 
     13 C13         0.8334  -19.3192  -50.3560 C.ar      23 UNK        -0.0193 
     14 C14        -0.5478  -19.1010  -50.3631 C.ar      23 UNK        -0.1150 
     15 C15         1.5397  -19.6583  -49.0529 C.3       23 UNK        -0.0205 
     16 S16         1.4000  -21.4341  -48.6829 S.3       23 UNK        -0.2404 
     17 C17         1.8223  -21.4722  -46.9052 C.3       23 UNK        -0.0398 
     18 CA          1.6296  -22.8757  -46.2767 C.3       11 UNK         0.1400 
     19 N           2.0972  -22.9475  -44.8900 N.am      11 UNK        -0.5000 
     20 C           2.2960  -24.1028  -44.2360 C.2       10 UNK         0.5000 
     21 O           2.3556  -25.1936  -44.8075 O.2       10 UNK        -0.5000 
     22 CA          2.3693  -24.0493  -42.6973 C.3       10 UNK         0.1400 
     23 CB          3.0163  -25.3026  -42.0685 C.3       10 UNK        -0.1800 
     24 N           2.9521  -22.8184  -42.1636 N.am      10 UNK        -0.5000 
     25 C           4.2339  -22.4276  -42.2027 C.2       9 UNK         0.5000 
     26 O           5.1221  -23.0624  -42.7733 O.2       9 UNK        -0.5000 
     27 CA          4.6005  -21.1156  -41.4707 C.3       9 UNK         0.1400 
     28 CB          5.3705  -20.1609  -42.3978 C.3       9 UNK        -0.1800 
     29 N           3.4415  -20.4108  -40.9135 N.am      9 UNK        -0.5000 
     30 C           2.8187  -20.7134  -39.7656 C.2       8 UNK         0.5000 
     31 O           3.2080  -21.5845  -38.9878 O.2       8 UNK        -0.5000 
     32 CA          1.5091  -19.9543  -39.4637 C.3       8 UNK         0.1400 
     33 CB          1.7936  -18.6664  -38.6773 C.3       8 UNK        -0.1800 
     34 N           0.7418  -19.6293  -40.6701 N.am      8 UNK        -0.5000 
     35 C           0.1968  -20.5330  -41.4987 C.2       7 UNK         0.5000 
     36 O           0.2292  -21.7472  -41.3017 O.2       7 UNK        -0.5000 
     37 CA         -0.4153  -19.9938  -42.8046 C.3       7 UNK         0.1400 
     38 CB         -1.8448  -19.4807  -42.5760 C.3       7 UNK        -0.1800 
     39 N           0.4132  -18.9385  -43.3935 N.am      7 UNK        -0.5000 
     40 C           1.6447  -19.1432  -43.8836 C.2       6 UNK         0.5000 
     41 O           2.1695  -20.2529  -43.9567 O.2       6 UNK        -0.5000 
     42 CA          2.4430  -17.9050  -44.3207 C.3       6 UNK         0.1400 
     43 CB          2.1157  -17.5297  -45.7715 C.3       6 UNK        -0.1800 
     44 N           2.1998  -16.7658  -43.4361 N.am      6 UNK        -0.5000 
     45 C           2.7120  -16.6661  -42.1991 C.2       5 UNK         0.5000 
     46 O           3.4715  -17.5028  -41.7143 O.2       5 UNK        -0.5000 
     47 CA          2.2819  -15.4605  -41.3389 C.3       5 UNK         0.1400 
     48 CB          3.2629  -14.2935  -41.5235 C.3       5 UNK        -0.1800 
     49 N           0.9269  -14.9958  -41.6302 N.am      5 UNK        -0.5000 
     50 C          -0.1872  -15.7283  -41.4933 C.2       4 UNK         0.5000 
     51 O          -0.2013  -16.8547  -40.9971 O.2       4 UNK        -0.5000 
     52 CA         -1.4882  -15.1300  -42.0699 C.3       4 UNK         0.1400 
     53 CB         -2.3265  -14.4927  -40.9526 C.3       4 UNK        -0.1800 
     54 N          -1.2656  -14.1396  -43.1330 N.am      4 UNK        -0.5000 
     55 C          -0.6396  -14.3855  -44.2928 C.2       3 UNK         0.5000 
     56 O          -0.1932  -15.4936  -44.5994 O.2       3 UNK        -0.5000 
     57 CA         -0.3916  -13.1705  -45.2060 C.3       3 UNK         0.1400 
     58 CB          0.7400  -12.3004  -44.6335 C.3       3 UNK        -0.1800 
     59 N          -0.0189  -13.5743  -46.5615 N.am      3 UNK        -0.5000 
     60 C          -0.8750  -14.0405  -47.4756 C.2       2 UNK         0.5000 
     61 O          -2.0954  -14.1176  -47.3004 O.2       2 UNK        -0.5000 
     62 CA         -0.2618  -14.4923  -48.8091 C.3       2 UNK         0.1400 
     63 CB          0.3743  -15.8892  -48.6868 C.3       2 UNK        -0.1800 
     64 N          -1.3220  -14.5177  -49.8040 N.am      2 UNK        -0.5000 
     65 C          -1.1777  -14.4873  -51.1326 C.2       1 UNK         0.5000 
     66 O          -0.0894  -14.4157  -51.7052 O.2       1 UNK        -0.5000 
     67 C           0.1542  -23.3256  -46.3028 C.2       11 UNK         0.5000 
     68 O          -0.7170  -22.5955  -45.8218 O.2       11 UNK        -0.5000 
     69 N          -0.0907  -24.5272  -46.8415 N.am      12 UNK        -0.5000 
     70 CA         -1.4056  -25.1671  -46.8985 C.3       12 UNK         0.1400 
     71 CB         -1.2617  -26.5756  -47.4930 C.3       12 UNK        -0.1800 
     72 C          -2.4475  -24.3525  -47.6825 C.2       12 UNK         0.5000 
     73 O          -3.6106  -24.3217  -47.2857 O.2       12 UNK        -0.5000 
     74 N          -2.0053  -23.6730  -48.7496 N.am      13 UNK        -0.5000 
     75 CA         -2.8394  -22.7931  -49.5662 C.3       13 UNK         0.1400 
     76 CB         -2.0750  -22.3987  -50.8377 C.3       13 UNK        -0.1800 
     77 C          -3.3264  -21.5527  -48.7947 C.2       13 UNK         0.5000 
     78 O          -4.4842  -21.1671  -48.9519 O.2       13 UNK        -0.5000 
     79 N          -2.4625  -20.9808  -47.9412 N.am      14 UNK        -0.5000 
     80 CA         -2.8133  -19.8674  -47.0560 C.3       14 UNK         0.1400 
     81 CB         -1.5475  -19.2169  -46.4745 C.3       14 UNK        -0.1800 
     82 C          -3.7471  -20.3192  -45.9231 C.2       14 UNK         0.5000 
     83 O          -4.7201  -19.6261  -45.6287 O.2       14 UNK        -0.5000 
     84 N          -3.4470  -21.4835  -45.3297 N.am      15 UNK        -0.5000 
     85 CA         -4.2275  -22.0941  -44.2526 C.3       15 UNK         0.1400 
     86 CB         -3.4569  -23.2961  -43.6872 C.3       15 UNK        -0.1800 
     87 C          -5.6498  -22.4982  -44.6884 C.2       15 UNK         0.5000 
     88 O          -6.6002  -22.2760  -43.9375 O.2       15 UNK        -0.5000 
     89 N          -5.7757  -23.0542  -45.9009 N.am      16 UNK        -0.5000 
     90 CA         -7.0517  -23.4168  -46.5227 C.3       16 UNK         0.1400 
     91 CB         -6.7889  -24.4567  -47.6238 C.3       16 UNK        -0.1800 
     92 C          -7.8104  -22.2119  -47.1136 C.2       16 UNK         0.5000 
     93 O          -9.0005  -22.3417  -47.4030 O.2       16 UNK        -0.5000 
     94 N          -7.1085  -21.0852  -47.3106 N.am      17 UNK        -0.5000 
     95 CA         -7.5453  -19.8701  -48.0080 C.3       17 UNK         0.1400 
     96 CB         -8.6751  -19.1591  -47.2349 C.3       17 UNK        -0.1800 
     97 C          -7.8897  -20.1399  -49.4897 C.2       17 UNK         0.5000 
     98 O          -8.8558  -19.5898  -50.0222 O.2       17 UNK        -0.5000 
     99 N          -7.0831  -20.9969  -50.1255 N.am      18 UNK        -0.5000 
    100 CA        -7.1709  -21.3662  -51.5313 C.3       18 UNK         0.1400 
    101 CB        -6.7088  -22.8256  -51.6866 C.3       18 UNK        -0.1800 
    102 C         -6.2902  -20.3935  -52.3258 C.2       18 UNK         0.5000 
    103 O         -5.0813  -20.6081  -52.4203 O.2       18 UNK        -0.5000 
    104 N         -6.9022  -19.3114  -52.8237 N.am      19 UNK        -0.5000 
    105 CA        -6.2606  -18.1590  -53.4642 C.3       19 UNK         0.1400 
    106 CB        -7.2678  -16.9957  -53.5004 C.3       19 UNK        -0.1800 
    107 C         -5.6385  -18.4526  -54.8494 C.2       19 UNK         0.5000 
    108 O         -6.0189  -17.8389  -55.8486 O.2       19 UNK        -0.5000 
    109 N         -4.6833  -19.3861  -54.8804 N.am      20 UNK        -0.5000 
    110 CA        -3.8222  -19.7028  -56.0168 C.3       20 UNK         0.1400 
    111 CB        -3.0454  -20.9876  -55.6860 C.3       20 UNK        -0.1800 
    112 C         -2.8397  -18.5584  -56.3362 C.2       20 UNK         0.5000 
    113 O         -2.5139  -17.7578  -55.4568 O.2       20 UNK        -0.5000 
    114 N         -2.3599  -18.5245  -57.5846 N.am      21 UNK        -0.5000 
    115 CA        -1.3378  -17.5794  -58.0434 C.3       21 UNK         0.1400 
    116 CB        -1.6172  -17.2254  -59.5129 C.3       21 UNK        -0.1800 
    117 C          0.0935  -18.1330  -57.8926 C.2       21 UNK         0.5000 
    118 O          1.0385  -17.3451  -57.8472 O.2       21 UNK        -0.5000 
    119 N          0.2294  -19.4671  -57.8463 N.am      22 UNK        -0.5000 
    120 CA         1.4989  -20.2236  -57.8264 C.3       22 UNK         0.1400 
    121 C          2.3430  -20.1153  -59.1364 C.2       22 UNK         0.5000 
    122 N          1.7756  -19.6861  -60.2574 N.am      22 UNK        -0.7600 
    123 O          3.5231  -20.4557  -59.1534 O.2       22 UNK        -0.5000 
    124 C124        2.3546  -19.9829  -56.5493 C.3       23 UNK        -0.0398 
    125 S125        1.4692  -20.4159  -55.0140 S.3       23 UNK        -0.2404 
    126 C126        1.6419  -18.8725  -54.0692 C.3       23 UNK        -0.0205 
    127 H127       -5.6095  -12.9353  -50.0275 H         1 UNK         0.0600 
    128 H128       -5.5214  -11.3929  -50.8827 H         1 UNK         0.0600 
    129 H129       -4.6510  -11.6111  -49.3602 H         1 UNK         0.0600 
    130 H130       -4.3237  -14.5131  -50.9380 H         1 UNK         0.3000 
    131 H131       -2.2882  -13.9661  -52.8758 H         1 UNK         0.0600 
    132 H132       -1.9946  -16.4164  -52.9323 H         1 UNK         0.0800 
    133 H133       -3.6599  -15.9635  -53.0958 H         1 UNK         0.0800 
    134 H134       -3.1170  -18.8580  -52.5740 H         1 UNK         0.0800 
    135 H135       -3.1757  -19.4487  -50.9327 H         1 UNK         0.0800 
    136 H136       -1.0071  -18.5628  -53.6752 H         1 UNK         0.1150 
    137 H137        2.6152  -19.4107  -51.5591 H         1 UNK         0.1150 
    138 H138       -1.1108  -19.1683  -49.4465 H         1 UNK         0.1150 
    139 H139        2.5934  -19.3799  -49.1027 H         1 UNK         0.0800 
    140 H140        1.1050  -19.0720  -48.2452 H         1 UNK         0.0800 
    141 H141        1.2163  -20.7307  -46.3858 H         1 UNK         0.0800 
    142 H142        2.8598  -21.1548  -46.7925 H         1 UNK         0.0800 
    143 H143        2.2238  -23.5767  -46.8672 H         1 UNK         0.0600 
    144 H144        2.0832  -22.0734  -44.3691 H         1 UNK         0.3000 
    145 H145        1.3299  -24.0376  -42.3673 H         1 UNK         0.0600 
    146 H146        3.0376  -25.2323  -40.9809 H         1 UNK         0.0600 
    147 H147        2.4529  -26.2014  -42.3218 H         1 UNK         0.0600 
    148 H148        4.0383  -25.4526  -42.4168 H         1 UNK         0.0600 
    149 H149        2.2893  -22.2065  -41.7035 H         1 UNK         0.3000 
    150 H150        5.2655  -21.3874  -40.6487 H         1 UNK         0.0600 
    151 H151        6.2954  -20.6176  -42.7519 H         1 UNK         0.0600 
    152 H152        5.6435  -19.2411  -41.8805 H         1 UNK         0.0600 
    153 H153        4.7831  -19.8930  -43.2751 H         1 UNK         0.0600 
    154 H154        3.0873  -19.6375  -41.4627 H         1 UNK         0.3000 
    155 H155        0.8878  -20.6018  -38.8415 H         1 UNK         0.0600 
    156 H156        2.2978  -18.8885  -37.7361 H         1 UNK         0.0600 
    157 H157        0.8710  -18.1376  -38.4366 H         1 UNK         0.0600 
    158 H158        2.4335  -17.9857  -39.2379 H         1 UNK         0.0600 
    159 H159        0.6140  -18.6436  -40.8796 H         1 UNK         0.3000 
    160 H160       -0.4647  -20.8210  -43.5167 H         1 UNK         0.0600 
    161 H161       -1.8773  -18.6663  -41.8531 H         1 UNK         0.0600 
    162 H162       -2.4828  -20.2781  -42.1940 H         1 UNK         0.0600 
    163 H163       -2.2923  -19.1227  -43.5020 H         1 UNK         0.0600 
    164 H164        0.0608  -17.9935  -43.3453 H         1 UNK         0.3000 
    165 H165        3.5053  -18.1520  -44.2763 H         1 UNK         0.0600 
    166 H166        2.6184  -16.6079  -46.0638 H         1 UNK         0.0600 
    167 H167        2.4528  -18.3116  -46.4516 H         1 UNK         0.0600 
    168 H168        1.0449  -17.3961  -45.9280 H         1 UNK         0.0600 
    169 H169        1.5278  -16.0790  -43.7616 H         1 UNK         0.3000 
    170 H170        2.3104  -15.7713  -40.2928 H         1 UNK         0.0600 
    171 H171        3.0161  -13.4618  -40.8634 H         1 UNK         0.0600 
    172 H172        4.2831  -14.6008  -41.2894 H         1 UNK         0.0600 
    173 H173        3.2589  -13.9222  -42.5491 H         1 UNK         0.0600 
    174 H174        0.8428  -14.0775  -42.0386 H         1 UNK         0.3000 
    175 H175       -2.0597  -15.9552  -42.4999 H         1 UNK         0.0600 
    176 H176       -2.5308  -15.2124  -40.1586 H         1 UNK         0.0600 
    177 H177       -1.8150  -13.6418  -40.5009 H         1 UNK         0.0600 
    178 H178       -3.2889  -14.1461  -41.3296 H         1 UNK         0.0600 
    179 H179       -1.5925  -13.2027  -42.9441 H         1 UNK         0.3000 
    180 H180       -1.3071  -12.5767  -45.2510 H         1 UNK         0.0600 
    181 H181        0.4898  -11.9257  -43.6403 H         1 UNK         0.0600 
    182 H182        1.6741  -12.8576  -44.5489 H         1 UNK         0.0600 
    183 H183        0.9256  -11.4313  -45.2651 H         1 UNK         0.0600 
    184 H184        0.9687  -13.5782  -46.7695 H         1 UNK         0.3000 
    185 H185        0.4943  -13.7649  -49.1116 H         1 UNK         0.0600 
    186 H186        1.1968  -15.8807  -47.9728 H         1 UNK         0.0600 
    187 H187       -0.3511  -16.6304  -48.3498 H         1 UNK         0.0600 
    188 H188        0.7792  -16.2300  -49.6399 H         1 UNK         0.0600 
    189 H189       -2.2536  -14.5339  -49.4075 H         1 UNK         0.3000 
    190 H190        0.6883  -25.0754  -47.1774 H         1 UNK         0.3000 
    191 H191       -1.7677  -25.2663  -45.8736 H         1 UNK         0.0600 
    192 H192       -0.8682  -26.5461  -48.5099 H         1 UNK         0.0600 
    193 H193       -2.2260  -27.0845  -47.5284 H         1 UNK         0.0600 
    194 H194       -0.5930  -27.1914  -46.8912 H         1 UNK         0.0600 
    195 H195       -1.0295  -23.7430  -48.9983 H         1 UNK         0.3000 
    196 H196       -3.7238  -23.3579  -49.8676 H         1 UNK         0.0600 
    197 H197       -1.8098  -23.2773  -51.4255 H         1 UNK         0.0600 
    198 H198       -1.1545  -21.8624  -50.6069 H         1 UNK         0.0600 
    199 H199       -2.6823  -21.7572  -51.4770 H         1 UNK         0.0600 
    200 H200       -1.5490  -21.3941  -47.8201 H         1 UNK         0.3000 
    201 H201       -3.3391  -19.1128  -47.6456 H         1 UNK         0.0600 
    202 H202       -1.8043  -18.3904  -45.8106 H         1 UNK         0.0600 
    203 H203       -0.9555  -19.9256  -45.8971 H         1 UNK         0.0600 
    204 H204       -0.9145  -18.8031  -47.2543 H         1 UNK         0.0600 
    205 H205       -2.6032  -21.9710  -45.6157 H         1 UNK         0.3000 
    206 H206       -4.3278  -21.3529  -43.4574 H         1 UNK         0.0600 
    207 H207       -2.4693  -23.0003  -43.3315 H         1 UNK         0.0600 
    208 H208       -3.9887  -23.7389  -42.8443 H         1 UNK         0.0600 
    209 H209       -3.3232  -24.0754  -44.4373 H         1 UNK         0.0600 
    210 H210       -4.9370  -23.2788  -46.4310 H         1 UNK         0.3000 
    211 H211       -7.6936  -23.8745  -45.7671 H         1 UNK         0.0600 
    212 H212       -7.7213  -24.7888  -48.0820 H         1 UNK         0.0600 
    213 H213       -6.2919  -25.3400  -47.2224 H         1 UNK         0.0600 
    214 H214       -6.1605  -24.0495  -48.4174 H         1 UNK         0.0600 
    215 H215       -6.1338  -21.0958  -47.0421 H         1 UNK         0.3000 
    216 H216       -6.6825  -19.2024  -48.0156 H         1 UNK         0.0600 
    217 H217       -8.8988  -18.1883  -47.6784 H         1 UNK         0.0600 
    218 H218       -8.3908  -18.9837  -46.1974 H         1 UNK         0.0600 
    219 H219       -9.5985  -19.7387  -47.2373 H         1 UNK         0.0600 
    220 H220       -6.2370  -21.2897  -49.6427 H         1 UNK         0.3000 
    221 H221       -8.2022  -21.2940  -51.8832 H         1 UNK         0.0600 
    222 H222       -5.6897  -22.9704  -51.3264 H         1 UNK         0.0600 
    223 H223       -7.3566  -23.5029  -51.1298 H         1 UNK         0.0600 
    224 H224       -6.7351  -23.1330  -52.7326 H         1 UNK         0.0600 
    225 H225       -7.8985  -19.2280  -52.6789 H         1 UNK         0.3000 
    226 H226       -5.4384  -17.8467  -52.8207 H         1 UNK         0.0600 
    227 H227       -7.6155  -16.7440  -52.4982 H         1 UNK         0.0600 
    228 H228       -6.8134  -16.0960  -53.9176 H         1 UNK         0.0600 
    229 H229       -8.1402  -17.2378  -54.1085 H         1 UNK         0.0600 
    230 H230       -4.4914  -19.8765  -54.0107 H         1 UNK         0.3000 
    231 H231       -4.4545  -19.8803  -56.8890 H         1 UNK         0.0600 
    232 H232       -3.7230  -21.8132  -55.4672 H         1 UNK         0.0600 
    233 H233       -2.3950  -20.8511  -54.8202 H         1 UNK         0.0600 
    234 H234       -2.4173  -21.2970  -56.5220 H         1 UNK         0.0600 
    235 H235       -2.6930  -19.1968  -58.2607 H         1 UNK         0.3000 
    236 H236       -1.3962  -16.6570  -57.4613 H         1 UNK         0.0600 
    237 H237       -0.8841  -16.5107  -59.8895 H         1 UNK         0.0600 
    238 H238       -2.6008  -16.7692  -59.6267 H         1 UNK         0.0600 
    239 H239       -1.5791  -18.1052  -60.1562 H         1 UNK         0.0600 
    240 H240       -0.6068  -20.0295  -57.8785 H         1 UNK         0.3000 
    241 H241        1.1974  -21.2714  -57.8028 H         1 UNK         0.0600 
    242 H242        2.3256  -19.6304  -61.1005 H         1 UNK         0.3800 
    243 H243        0.8052  -19.4182  -60.2741 H         1 UNK         0.3800 
    244 H244        3.2561  -20.5972  -56.5709 H         1 UNK         0.0800 
    245 H245        2.7004  -18.9493  -56.5098 H         1 UNK         0.0800 
    246 H246        1.2589  -18.0389  -54.6607 H         1 UNK         0.0800 
    247 H247        2.6990  -18.6703  -53.8900 H         1 UNK         0.0800 
@<TRIPOS>BOND
     1    1    2 1    
     2    1  127 1    
     3    1  128 1    
     4    1  129 1    
     5    2    3 2    
     6    2    4 am   BACKBONE|DICT|INTERRES
     7    4    5 1    
     8    4  130 1    
     9    5    6 1    
    10    5   65 1    
    11    5  131 1    
    12    6    7 1    
    13    6  132 1    
    14    6  133 1    
    15    7    8 1    
    16    8    9 1    
    17    8  134 1    
    18    8  135 1    
    19    9   10 ar   
    20    9   14 ar   
    21   10   11 ar   
    22   10  136 1    
    23   11   12 ar   
    24   11  126 1    
    25   12   13 ar   
    26   12  137 1    
    27   13   14 ar   
    28   13   15 1    
    29   14  138 1    
    30   15   16 1    
    31   15  139 1    
    32   15  140 1    
    33   16   17 1    
    34   17   18 1    
    35   17  141 1    
    36   17  142 1    
    37   18   19 1    
    38   18   67 1    
    39   18  143 1    
    40   19   20 am   BACKBONE|DICT|INTERRES
    41   19  144 1    
    42   20   21 2    
    43   20   22 1    
    44   22   23 1    
    45   22   24 1    
    46   22  145 1    
    47   23  146 1    
    48   23  147 1    
    49   23  148 1    
    50   24   25 am   BACKBONE|DICT|INTERRES
    51   24  149 1    
    52   25   26 2    
    53   25   27 1    
    54   27   28 1    
    55   27   29 1    
    56   27  150 1    
    57   28  151 1    
    58   28  152 1    
    59   28  153 1    
    60   29   30 am   BACKBONE|DICT|INTERRES
    61   29  154 1    
    62   30   31 2    
    63   30   32 1    
    64   32   33 1    
    65   32   34 1    
    66   32  155 1    
    67   33  156 1    
    68   33  157 1    
    69   33  158 1    
    70   34   35 am   BACKBONE|DICT|INTERRES
    71   34  159 1    
    72   35   36 2    
    73   35   37 1    
    74   37   38 1    
    75   37   39 1    
    76   37  160 1    
    77   38  161 1    
    78   38  162 1    
    79   38  163 1    
    80   39   40 am   BACKBONE|DICT|INTERRES
    81   39  164 1    
    82   40   41 2    
    83   40   42 1    
    84   42   43 1    
    85   42   44 1    
    86   42  165 1    
    87   43  166 1    
    88   43  167 1    
    89   43  168 1    
    90   44   45 am   BACKBONE|DICT|INTERRES
    91   44  169 1    
    92   45   46 2    
    93   45   47 1    
    94   47   48 1    
    95   47   49 1    
    96   47  170 1    
    97   48  171 1    
    98   48  172 1    
    99   48  173 1    
   100   49   50 am   BACKBONE|DICT|INTERRES
   101   49  174 1    
   102   50   51 2    
   103   50   52 1    
   104   52   53 1    
   105   52   54 1    
   106   52  175 1    
   107   53  176 1    
   108   53  177 1    
   109   53  178 1    
   110   54   55 am   BACKBONE|DICT|INTERRES
   111   54  179 1    
   112   55   56 2    
   113   55   57 1    
   114   57   58 1    
   115   57   59 1    
   116   57  180 1    
   117   58  181 1    
   118   58  182 1    
   119   58  183 1    
   120   59   60 am   BACKBONE|DICT|INTERRES
   121   59  184 1    
   122   60   61 2    
   123   60   62 1    
   124   62   63 1    
   125   62   64 1    
   126   62  185 1    
   127   63  186 1    
   128   63  187 1    
   129   63  188 1    
   130   64   65 am   BACKBONE|DICT|INTERRES
   131   64  189 1    
   132   65   66 2    
   133   67   68 2    
   134   67   69 am   BACKBONE|DICT|INTERRES
   135   69   70 1    
   136   69  190 1    
   137   70   71 1    
   138   70   72 1    
   139   70  191 1    
   140   71  192 1    
   141   71  193 1    
   142   71  194 1    
   143   72   73 2    
   144   72   74 am   BACKBONE|DICT|INTERRES
   145   74   75 1    
   146   74  195 1    
   147   75   76 1    
   148   75   77 1    
   149   75  196 1    
   150   76  197 1    
   151   76  198 1    
   152   76  199 1    
   153   77   78 2    
   154   77   79 am   BACKBONE|DICT|INTERRES
   155   79   80 1    
   156   79  200 1    
   157   80   81 1    
   158   80   82 1    
   159   80  201 1    
   160   81  202 1    
   161   81  203 1    
   162   81  204 1    
   163   82   83 2    
   164   82   84 am   BACKBONE|DICT|INTERRES
   165   84   85 1    
   166   84  205 1    
   167   85   86 1    
   168   85   87 1    
   169   85  206 1    
   170   86  207 1    
   171   86  208 1    
   172   86  209 1    
   173   87   88 2    
   174   87   89 am   BACKBONE|DICT|INTERRES
   175   89   90 1    
   176   89  210 1    
   177   90   91 1    
   178   90   92 1    
   179   90  211 1    
   180   91  212 1    
   181   91  213 1    
   182   91  214 1    
   183   92   93 2    
   184   92   94 am   BACKBONE|DICT|INTERRES
   185   94   95 1    
   186   94  215 1    
   187   95   96 1    
   188   95   97 1    
   189   95  216 1    
   190   96  217 1    
   191   96  218 1    
   192   96  219 1    
   193   97   98 2    
   194   97   99 am   BACKBONE|DICT|INTERRES
   195   99  100 1    
   196   99  220 1    
   197  100  101 1    
   198  100  102 1    
   199  100  221 1    
   200  101  222 1    
   201  101  223 1    
   202  101  224 1    
   203  102  103 2    
   204  102  104 am   BACKBONE|DICT|INTERRES
   205  104  105 1    
   206  104  225 1    
   207  105  106 1    
   208  105  107 1    
   209  105  226 1    
   210  106  227 1    
   211  106  228 1    
   212  106  229 1    
   213  107  108 2    
   214  107  109 am   BACKBONE|DICT|INTERRES
   215  109  110 1    
   216  109  230 1    
   217  110  111 1    
   218  110  112 1    
   219  110  231 1    
   220  111  232 1    
   221  111  233 1    
   222  111  234 1    
   223  112  113 2    
   224  112  114 am   BACKBONE|DICT|INTERRES
   225  114  115 1    
   226  114  235 1    
   227  115  116 1    
   228  115  117 1    
   229  115  236 1    
   230  116  237 1    
   231  116  238 1    
   232  116  239 1    
   233  117  118 2    
   234  117  119 am   BACKBONE|DICT|INTERRES
   235  119  120 1    
   236  119  240 1    
   237  120  121 1    
   238  120  124 1    
   239  120  241 1    
   240  121  122 am   BACKBONE|DICT|INTERRES
   241  121  123 2    
   242  122  242 1    
   243  122  243 1    
   244  124  125 1    
   245  124  244 1    
   246  124  245 1    
   247  125  126 1    
   248  126  246 1    
   249  126  247 1    
@<TRIPOS>SUBSTRUCTURE
     1 UNK         1 GROUP             0       ****    0 ROOT    
