@<TRIPOS>MOLECULE
3R540
247   249    1
SMALL
USER_CHARGES


@<TRIPOS>ATOM
      1 CA          0.9915  -10.7725  -52.1342 C.3       0 UNK        -0.1800 
      2 C           2.2287  -10.6096  -51.2622 C.2       0 UNK         0.5000 
      3 O           2.7879   -9.5150  -51.1876 O.2       0 UNK        -0.5000 
      4 N           2.6602  -11.6950  -50.6104 N.am      1 UNK        -0.5000 
      5 CA          3.7722  -11.7179  -49.6569 C.3       1 UNK         0.1400 
      6 C6          4.3489  -13.1482  -49.4803 C.3       23 UNK        -0.0398 
      7 S7          3.1444  -14.4093  -48.9244 S.3       23 UNK        -0.2404 
      8 C8          2.7547  -15.2473  -50.4927 C.3       23 UNK        -0.0205 
      9 C9          1.7270  -16.3490  -50.2878 C.ar      23 UNK        -0.0193 
     10 C10         0.3752  -16.0290  -50.1236 C.ar      23 UNK        -0.1150 
     11 C11        -0.5747  -17.0362  -49.9270 C.ar      23 UNK        -0.0193 
     12 C12        -0.1619  -18.3713  -49.8993 C.ar      23 UNK        -0.1150 
     13 C13         1.1831  -18.7048  -50.0785 C.ar      23 UNK        -0.0193 
     14 C14         2.1240  -17.6893  -50.2697 C.ar      23 UNK        -0.1150 
     15 C15         1.6129  -20.1637  -50.0873 C.3       23 UNK        -0.0205 
     16 S16         2.5986  -20.6244  -48.6259 S.3       23 UNK        -0.2404 
     17 C17         1.4702  -20.2675  -47.2366 C.3       23 UNK        -0.0398 
     18 CA          0.6018  -21.4832  -46.8282 C.3       11 UNK         0.1400 
     19 N           0.2810  -21.4830  -45.4000 N.am      11 UNK        -0.5000 
     20 C          -0.3204  -22.4889  -44.7488 C.2       10 UNK         0.5000 
     21 O          -0.6242  -23.5613  -45.2728 O.2       10 UNK        -0.5000 
     22 CA         -0.6869  -22.2332  -43.2754 C.3       10 UNK         0.1400 
     23 CB          0.5294  -22.4447  -42.3618 C.3       10 UNK        -0.1800 
     24 N          -1.2404  -20.8946  -43.0610 N.am      10 UNK        -0.5000 
     25 C          -2.3958  -20.4650  -43.5892 C.2       9 UNK         0.5000 
     26 O          -3.1395  -21.1728  -44.2682 O.2       9 UNK        -0.5000 
     27 CA         -2.7633  -18.9877  -43.3608 C.3       9 UNK         0.1400 
     28 CB         -3.3575  -18.7829  -41.9597 C.3       9 UNK        -0.1800 
     29 N          -1.6288  -18.0840  -43.5588 N.am      9 UNK        -0.5000 
     30 C          -0.9885  -17.9178  -44.7264 C.2       8 UNK         0.5000 
     31 O          -1.3126  -18.4790  -45.7713 O.2       8 UNK        -0.5000 
     32 CA          0.2585  -17.0189  -44.7196 C.3       8 UNK         0.1400 
     33 CB         -0.1323  -15.5357  -44.7936 C.3       8 UNK        -0.1800 
     34 N           1.1016  -17.2478  -43.5486 N.am      8 UNK        -0.5000 
     35 C           1.7210  -18.4010  -43.2638 C.2       7 UNK         0.5000 
     36 O           1.6729  -19.4001  -43.9791 O.2       7 UNK        -0.5000 
     37 CA          2.4755  -18.4644  -41.9270 C.3       7 UNK         0.1400 
     38 CB          3.8267  -17.7386  -42.0197 C.3       7 UNK        -0.1800 
     39 N           1.6854  -17.9087  -40.8289 N.am      7 UNK        -0.5000 
     40 C           0.5608  -18.4602  -40.3509 C.2       6 UNK         0.5000 
     41 O           0.0764  -19.5085  -40.7775 O.2       6 UNK        -0.5000 
     42 CA         -0.1576  -17.6945  -39.2255 C.3       6 UNK         0.1400 
     43 CB          0.4532  -18.0412  -37.8596 C.3       6 UNK        -0.1800 
     44 N          -0.1222  -16.2441  -39.4192 N.am      6 UNK        -0.5000 
     45 C          -0.7818  -15.5988  -40.3908 C.2       5 UNK         0.5000 
     46 O          -1.4950  -16.1576  -41.2245 O.2       5 UNK        -0.5000 
     47 CA         -0.5598  -14.0765  -40.4737 C.3       5 UNK         0.1400 
     48 CB         -1.3897  -13.3451  -39.4077 C.3       5 UNK        -0.1800 
     49 N           0.8485  -13.6763  -40.3605 N.am      5 UNK        -0.5000 
     50 C           1.8161  -14.0938  -41.1859 C.2       4 UNK         0.5000 
     51 O           1.6384  -14.9345  -42.0717 O.2       4 UNK        -0.5000 
     52 CA          3.2173  -13.4964  -41.0012 C.3       4 UNK         0.1400 
     53 CB          3.9996  -14.2299  -39.8998 C.3       4 UNK        -0.1800 
     54 N           3.8891  -13.6589  -42.2816 N.am      4 UNK        -0.5000 
     55 C           4.7975  -12.8531  -42.8316 C.2       3 UNK         0.5000 
     56 O           5.3483  -11.9279  -42.2311 O.2       3 UNK        -0.5000 
     57 CA          5.1367  -13.1131  -44.3192 C.3       3 UNK         0.1400 
     58 CB          4.3162  -14.2541  -44.9676 C.3       3 UNK        -0.1800 
     59 N           5.0274  -11.9073  -45.1482 N.am      3 UNK        -0.5000 
     60 C           3.9935  -11.0521  -45.2206 C.2       2 UNK         0.5000 
     61 O           2.9603  -11.1395  -44.5558 O.2       2 UNK        -0.5000 
     62 CA          4.1296   -9.9293  -46.2642 C.3       2 UNK         0.1400 
     63 CB          5.2836   -8.9714  -45.9228 C.3       2 UNK        -0.1800 
     64 N           4.3231  -10.4826  -47.6060 N.am      2 UNK        -0.5000 
     65 C           3.3553  -11.0857  -48.3105 C.2       1 UNK         0.5000 
     66 O           2.1827  -11.1607  -47.9324 O.2       1 UNK        -0.5000 
     67 C          -0.6716  -21.5905  -47.6898 C.2       11 UNK         0.5000 
     68 O          -0.7268  -22.4440  -48.5727 O.2       11 UNK        -0.5000 
     69 N          -1.6855  -20.7661  -47.3867 N.am      12 UNK        -0.5000 
     70 CA         -2.9981  -20.7713  -48.0346 C.3       12 UNK         0.1400 
     71 CB         -3.8664  -19.6444  -47.4563 C.3       12 UNK        -0.1800 
     72 C          -3.7220  -22.1207  -47.9041 C.2       12 UNK         0.5000 
     73 O          -4.2445  -22.6202  -48.8974 O.2       12 UNK        -0.5000 
     74 N          -3.7051  -22.7050  -46.6973 N.am      13 UNK        -0.5000 
     75 CA         -4.2877  -24.0149  -46.4016 C.3       13 UNK         0.1400 
     76 CB         -4.2236  -24.2762  -44.8895 C.3       13 UNK        -0.1800 
     77 C          -3.6270  -25.1662  -47.1831 C.2       13 UNK         0.5000 
     78 O          -4.3294  -26.0759  -47.6247 O.2       13 UNK        -0.5000 
     79 N          -2.3006  -25.0984  -47.3603 N.am      14 UNK        -0.5000 
     80 CA         -1.5341  -26.0389  -48.1762 C.3       14 UNK         0.1400 
     81 CB         -0.0402  -25.9096  -47.8399 C.3       14 UNK        -0.1800 
     82 C          -1.7833  -25.8313  -49.6815 C.2       14 UNK         0.5000 
     83 O          -2.0453  -26.7971  -50.3996 O.2       14 UNK        -0.5000 
     84 N          -1.7157  -24.5713  -50.1305 N.am      15 UNK        -0.5000 
     85 CA         -1.8789  -24.1660  -51.5272 C.3       15 UNK         0.1400 
     86 CB         -1.3792  -22.7264  -51.6926 C.3       15 UNK        -0.1800 
     87 C          -3.3114  -24.3379  -52.0701 C.2       15 UNK         0.5000 
     88 O          -3.4763  -24.4689  -53.2823 O.2       15 UNK        -0.5000 
     89 N          -4.3102  -24.4147  -51.1779 N.am      16 UNK        -0.5000 
     90 CA         -5.7134  -24.7290  -51.4711 C.3       16 UNK         0.1400 
     91 CB         -6.5666  -24.4749  -50.2173 C.3       16 UNK        -0.1800 
     92 C          -5.9616  -26.1503  -52.0233 C.2       16 UNK         0.5000 
     93 O          -7.0874  -26.4494  -52.4242 O.2       16 UNK        -0.5000 
     94 N          -4.9213  -26.9960  -52.0732 N.am      17 UNK        -0.5000 
     95 CA         -4.8945  -28.2246  -52.8709 C.3       17 UNK         0.1400 
     96 CB         -3.6450  -29.0347  -52.4955 C.3       17 UNK        -0.1800 
     97 C          -4.9233  -27.9457  -54.3918 C.2       17 UNK         0.5000 
     98 O          -5.3584  -28.8073  -55.1571 O.2       17 UNK        -0.5000 
     99 N          -4.4778  -26.7484  -54.7930 N.am      18 UNK        -0.5000 
    100 CA        -4.5857  -26.1833  -56.1333 C.3       18 UNK         0.1400 
    101 CB        -3.1729  -25.7867  -56.6020 C.3       18 UNK        -0.1800 
    102 C         -5.5402  -24.9710  -56.0951 C.2       18 UNK         0.5000 
    103 O         -6.2268  -24.7458  -55.0960 O.2       18 UNK        -0.5000 
    104 N         -5.5759  -24.1972  -57.1876 N.am      19 UNK        -0.5000 
    105 CA        -6.4013  -22.9914  -57.3214 C.3       19 UNK         0.1400 
    106 CB        -6.4338  -22.5757  -58.8002 C.3       19 UNK        -0.1800 
    107 C         -5.9363  -21.8101  -56.4425 C.2       19 UNK         0.5000 
    108 O         -6.7266  -20.9021  -56.1812 O.2       19 UNK        -0.5000 
    109 N         -4.6731  -21.8338  -55.9974 N.am      20 UNK        -0.5000 
    110 CA        -4.0104  -20.7980  -55.2007 C.3       20 UNK         0.1400 
    111 CB        -2.4902  -20.9364  -55.4018 C.3       20 UNK        -0.1800 
    112 C         -4.4144  -20.8143  -53.7081 C.2       20 UNK         0.5000 
    113 O         -3.5517  -20.7445  -52.8354 O.2       20 UNK        -0.5000 
    114 N         -5.7206  -20.8946  -53.4306 N.am      21 UNK        -0.5000 
    115 CA        -6.2908  -20.9621  -52.0819 C.3       21 UNK         0.1400 
    116 CB        -7.7400  -21.4633  -52.1907 C.3       21 UNK        -0.1800 
    117 C         -6.2326  -19.6343  -51.2960 C.2       21 UNK         0.5000 
    118 O         -6.4609  -19.6498  -50.0861 O.2       21 UNK        -0.5000 
    119 N         -5.9441  -18.5221  -51.9870 N.am      22 UNK        -0.5000 
    120 CA        -5.8808  -17.1475  -51.4563 C.3       22 UNK         0.1400 
    121 C         -7.2694  -16.5998  -50.9939 C.2       22 UNK         0.5000 
    122 N         -7.3197  -15.4639  -50.3074 N.am      22 UNK        -0.7600 
    123 O         -8.3215  -17.1619  -51.2956 O.2       22 UNK        -0.5000 
    124 C124       -4.7536  -16.9531  -50.3963 C.3       23 UNK        -0.0398 
    125 S125       -3.0995  -17.4017  -51.0225 S.3       23 UNK        -0.2404 
    126 C126       -2.0418  -16.6864  -49.7234 C.3       23 UNK        -0.0205 
    127 H127        1.2238  -10.5152  -53.1676 H         1 UNK         0.0600 
    128 H128        0.1982  -10.1107  -51.7868 H         1 UNK         0.0600 
    129 H129        0.6137  -11.7952  -52.1152 H         1 UNK         0.0600 
    130 H130        2.1244  -12.5482  -50.6609 H         1 UNK         0.3000 
    131 H131        4.5718  -11.0994  -50.0708 H         1 UNK         0.0600 
    132 H132        5.1732  -13.1351  -48.7652 H         1 UNK         0.0800 
    133 H133        4.7948  -13.4747  -50.4207 H         1 UNK         0.0800 
    134 H134        2.3735  -14.5268  -51.2169 H         1 UNK         0.0800 
    135 H135        3.6714  -15.6575  -50.9193 H         1 UNK         0.0800 
    136 H136        0.0677  -14.9928  -50.1382 H         1 UNK         0.1150 
    137 H137       -0.8954  -19.1509  -49.7502 H         1 UNK         0.1150 
    138 H138        3.1658  -17.9459  -50.4020 H         1 UNK         0.1150 
    139 H139        0.7468  -20.8209  -50.1634 H         1 UNK         0.0800 
    140 H140        2.2082  -20.3512  -50.9818 H         1 UNK         0.0800 
    141 H141        0.8708  -19.3766  -47.4284 H         1 UNK         0.0800 
    142 H142        2.1264  -19.9944  -46.4113 H         1 UNK         0.0800 
    143 H143        1.1851  -22.3906  -47.0004 H         1 UNK         0.0600 
    144 H144        0.5454  -20.6533  -44.8756 H         1 UNK         0.3000 
    145 H145       -1.4518  -22.9598  -42.9938 H         1 UNK         0.0600 
    146 H146        0.2542  -22.3446  -41.3117 H         1 UNK         0.0600 
    147 H147        0.9492  -23.4424  -42.4950 H         1 UNK         0.0600 
    148 H148        1.3208  -21.7240  -42.5687 H         1 UNK         0.0600 
    149 H149       -0.7006  -20.2659  -42.4745 H         1 UNK         0.3000 
    150 H150       -3.5287  -18.7220  -44.0927 H         1 UNK         0.0600 
    151 H151       -4.2089  -19.4446  -41.7956 H         1 UNK         0.0600 
    152 H152       -3.7112  -17.7603  -41.8282 H         1 UNK         0.0600 
    153 H153       -2.6264  -18.9871  -41.1772 H         1 UNK         0.0600 
    154 H154       -1.3239  -17.5527  -42.7502 H         1 UNK         0.3000 
    155 H155        0.8474  -17.2600  -45.6072 H         1 UNK         0.0600 
    156 H156       -0.6921  -15.2229  -43.9112 H         1 UNK         0.0600 
    157 H157       -0.7537  -15.3384  -45.6680 H         1 UNK         0.0600 
    158 H158        0.7500  -14.9001  -44.8711 H         1 UNK         0.0600 
    159 H159        1.2108  -16.4613  -42.9106 H         1 UNK         0.3000 
    160 H160        2.6710  -19.5155  -41.7040 H         1 UNK         0.0600 
    161 H161        3.7060  -16.6788  -42.2419 H         1 UNK         0.0600 
    162 H162        4.4442  -18.1683  -42.8094 H         1 UNK         0.0600 
    163 H163        4.3856  -17.8247  -41.0879 H         1 UNK         0.0600 
    164 H164        1.9824  -17.0198  -40.4568 H         1 UNK         0.3000 
    165 H165       -1.2023  -18.0127  -39.2215 H         1 UNK         0.0600 
    166 H166       -0.0980  -17.5641  -37.0490 H         1 UNK         0.0600 
    167 H167        0.4242  -19.1170  -37.6816 H         1 UNK         0.0600 
    168 H168        1.4946  -17.7247  -37.7900 H         1 UNK         0.0600 
    169 H169        0.4509  -15.7081  -38.7843 H         1 UNK         0.3000 
    170 H170       -0.9121  -13.7525  -41.4553 H         1 UNK         0.0600 
    171 H171       -2.4435  -13.6183  -39.4780 H         1 UNK         0.0600 
    172 H172       -1.0545  -13.5861  -38.3983 H         1 UNK         0.0600 
    173 H173       -1.3274  -12.2640  -39.5330 H         1 UNK         0.0600 
    174 H174        1.0685  -12.9949  -39.6484 H         1 UNK         0.3000 
    175 H175        3.1245  -12.4355  -40.7599 H         1 UNK         0.0600 
    176 H176        3.5071  -14.1233  -38.9327 H         1 UNK         0.0600 
    177 H177        4.0890  -15.2963  -40.1089 H         1 UNK         0.0600 
    178 H178        5.0065  -13.8250  -39.7977 H         1 UNK         0.0600 
    179 H179        3.4399  -14.3526  -42.8673 H         1 UNK         0.3000 
    180 H180        6.1864  -13.4088  -44.3399 H         1 UNK         0.0600 
    181 H181        3.2479  -14.0332  -44.9797 H         1 UNK         0.0600 
    182 H182        4.4597  -15.2000  -44.4438 H         1 UNK         0.0600 
    183 H183        4.6258  -14.4161  -46.0002 H         1 UNK         0.0600 
    184 H184        5.8313  -11.7144  -45.7273 H         1 UNK         0.3000 
    185 H185        3.2038   -9.3495  -46.2558 H         1 UNK         0.0600 
    186 H186        5.3077   -8.1268  -46.6116 H         1 UNK         0.0600 
    187 H187        5.1671   -8.5655  -44.9171 H         1 UNK         0.0600 
    188 H188        6.2549   -9.4649  -45.9671 H         1 UNK         0.0600 
    189 H189        5.2598  -10.4448  -47.9813 H         1 UNK         0.3000 
    190 H190       -1.5491  -20.0632  -46.6627 H         1 UNK         0.3000 
    191 H191       -2.8458  -20.5747  -49.0979 H         1 UNK         0.0600 
    192 H192       -4.8391  -19.6109  -47.9468 H         1 UNK         0.0600 
    193 H193       -3.3991  -18.6720  -47.5938 H         1 UNK         0.0600 
    194 H194       -4.0441  -19.7772  -46.3895 H         1 UNK         0.0600 
    195 H195       -3.2902  -22.2042  -45.9163 H         1 UNK         0.3000 
    196 H196       -5.3387  -23.9803  -46.6956 H         1 UNK         0.0600 
    197 H197       -4.6678  -25.2405  -44.6397 H         1 UNK         0.0600 
    198 H198       -4.7694  -23.5131  -44.3345 H         1 UNK         0.0600 
    199 H199       -3.1958  -24.2829  -44.5256 H         1 UNK         0.0600 
    200 H200       -1.7878  -24.3353  -46.9331 H         1 UNK         0.3000 
    201 H201       -1.8487  -27.0532  -47.9217 H         1 UNK         0.0600 
    202 H202        0.1449  -26.1233  -46.7870 H         1 UNK         0.0600 
    203 H203        0.3376  -24.9077  -48.0461 H         1 UNK         0.0600 
    204 H204        0.5540  -26.6124  -48.4251 H         1 UNK         0.0600 
    205 H205       -1.4726  -23.8286  -49.4766 H         1 UNK         0.3000 
    206 H206       -1.2354  -24.8086  -52.1315 H         1 UNK         0.0600 
    207 H207       -1.9589  -22.0299  -51.0857 H         1 UNK         0.0600 
    208 H208       -1.4504  -22.4043  -52.7313 H         1 UNK         0.0600 
    209 H209       -0.3335  -22.6381  -51.3992 H         1 UNK         0.0600 
    210 H210       -4.0954  -24.1990  -50.2103 H         1 UNK         0.3000 
    211 H211       -6.0412  -24.0414  -52.2522 H         1 UNK         0.0600 
    212 H212       -6.2343  -25.0845  -49.3768 H         1 UNK         0.0600 
    213 H213       -7.6165  -24.7082  -50.3986 H         1 UNK         0.0600 
    214 H214       -6.5242  -23.4298  -49.9130 H         1 UNK         0.0600 
    215 H215       -4.0411  -26.7011  -51.6705 H         1 UNK         0.3000 
    216 H216       -5.7778  -28.8163  -52.6224 H         1 UNK         0.0600 
    217 H217       -2.7290  -28.4854  -52.7174 H         1 UNK         0.0600 
    218 H218       -3.6076  -29.9747  -53.0475 H         1 UNK         0.0600 
    219 H219       -3.6381  -29.2801  -51.4332 H         1 UNK         0.0600 
    220 H220       -4.1951  -26.0752  -54.0858 H         1 UNK         0.3000 
    221 H221       -5.0013  -26.9143  -56.8293 H         1 UNK         0.0600 
    222 H222       -2.4901  -26.6347  -56.5444 H         1 UNK         0.0600 
    223 H223       -2.7564  -24.9847  -55.9908 H         1 UNK         0.0600 
    224 H224       -3.1727  -25.4495  -57.6387 H         1 UNK         0.0600 
    225 H225       -4.9979  -24.4372  -57.9801 H         1 UNK         0.3000 
    226 H226       -7.4200  -23.2401  -57.0163 H         1 UNK         0.0600 
    227 H227       -6.8375  -23.3721  -59.4257 H         1 UNK         0.0600 
    228 H228       -7.0658  -21.6987  -58.9465 H         1 UNK         0.0600 
    229 H229       -5.4382  -22.3280  -59.1707 H         1 UNK         0.0600 
    230 H230       -4.1154  -22.6446  -56.2193 H         1 UNK         0.3000 
    231 H231       -4.3058  -19.8225  -55.5923 H         1 UNK         0.0600 
    232 H232       -2.2220  -20.8482  -56.4547 H         1 UNK         0.0600 
    233 H233       -2.1261  -21.8998  -55.0429 H         1 UNK         0.0600 
    234 H234       -1.9474  -20.1568  -54.8657 H         1 UNK         0.0600 
    235 H235       -6.3675  -20.9232  -54.2116 H         1 UNK         0.3000 
    236 H236       -5.7157  -21.6923  -51.5091 H         1 UNK         0.0600 
    237 H237       -8.1815  -21.5992  -51.2026 H         1 UNK         0.0600 
    238 H238       -8.3668  -20.7572  -52.7366 H         1 UNK         0.0600 
    239 H239       -7.7923  -22.4236  -52.7038 H         1 UNK         0.0600 
    240 H240       -5.7955  -18.6157  -52.9799 H         1 UNK         0.3000 
    241 H241       -5.6228  -16.5304  -52.3174 H         1 UNK         0.0600 
    242 H242       -8.2212  -15.1064  -50.0305 H         1 UNK         0.3800 
    243 H243       -6.4911  -14.9410  -50.0696 H         1 UNK         0.3800 
    244 H244       -4.7023  -15.9116  -50.0783 H         1 UNK         0.0800 
    245 H245       -4.9609  -17.5357  -49.4981 H         1 UNK         0.0800 
    246 H246       -2.1811  -15.6046  -49.7094 H         1 UNK         0.0800 
    247 H247       -2.3556  -17.0499  -48.7460 H         1 UNK         0.0800 
@<TRIPOS>BOND
     1    1    2 1    
     2    1  127 1    
     3    1  128 1    
     4    1  129 1    
     5    2    3 2    
     6    2    4 am   BACKBONE|DICT|INTERRES
     7    4    5 1    
     8    4  130 1    
     9    5    6 1    
    10    5   65 1    
    11    5  131 1    
    12    6    7 1    
    13    6  132 1    
    14    6  133 1    
    15    7    8 1    
    16    8    9 1    
    17    8  134 1    
    18    8  135 1    
    19    9   10 ar   
    20    9   14 ar   
    21   10   11 ar   
    22   10  136 1    
    23   11   12 ar   
    24   11  126 1    
    25   12   13 ar   
    26   12  137 1    
    27   13   14 ar   
    28   13   15 1    
    29   14  138 1    
    30   15   16 1    
    31   15  139 1    
    32   15  140 1    
    33   16   17 1    
    34   17   18 1    
    35   17  141 1    
    36   17  142 1    
    37   18   19 1    
    38   18   67 1    
    39   18  143 1    
    40   19   20 am   BACKBONE|DICT|INTERRES
    41   19  144 1    
    42   20   21 2    
    43   20   22 1    
    44   22   23 1    
    45   22   24 1    
    46   22  145 1    
    47   23  146 1    
    48   23  147 1    
    49   23  148 1    
    50   24   25 am   BACKBONE|DICT|INTERRES
    51   24  149 1    
    52   25   26 2    
    53   25   27 1    
    54   27   28 1    
    55   27   29 1    
    56   27  150 1    
    57   28  151 1    
    58   28  152 1    
    59   28  153 1    
    60   29   30 am   BACKBONE|DICT|INTERRES
    61   29  154 1    
    62   30   31 2    
    63   30   32 1    
    64   32   33 1    
    65   32   34 1    
    66   32  155 1    
    67   33  156 1    
    68   33  157 1    
    69   33  158 1    
    70   34   35 am   BACKBONE|DICT|INTERRES
    71   34  159 1    
    72   35   36 2    
    73   35   37 1    
    74   37   38 1    
    75   37   39 1    
    76   37  160 1    
    77   38  161 1    
    78   38  162 1    
    79   38  163 1    
    80   39   40 am   BACKBONE|DICT|INTERRES
    81   39  164 1    
    82   40   41 2    
    83   40   42 1    
    84   42   43 1    
    85   42   44 1    
    86   42  165 1    
    87   43  166 1    
    88   43  167 1    
    89   43  168 1    
    90   44   45 am   BACKBONE|DICT|INTERRES
    91   44  169 1    
    92   45   46 2    
    93   45   47 1    
    94   47   48 1    
    95   47   49 1    
    96   47  170 1    
    97   48  171 1    
    98   48  172 1    
    99   48  173 1    
   100   49   50 am   BACKBONE|DICT|INTERRES
   101   49  174 1    
   102   50   51 2    
   103   50   52 1    
   104   52   53 1    
   105   52   54 1    
   106   52  175 1    
   107   53  176 1    
   108   53  177 1    
   109   53  178 1    
   110   54   55 am   BACKBONE|DICT|INTERRES
   111   54  179 1    
   112   55   56 2    
   113   55   57 1    
   114   57   58 1    
   115   57   59 1    
   116   57  180 1    
   117   58  181 1    
   118   58  182 1    
   119   58  183 1    
   120   59   60 am   BACKBONE|DICT|INTERRES
   121   59  184 1    
   122   60   61 2    
   123   60   62 1    
   124   62   63 1    
   125   62   64 1    
   126   62  185 1    
   127   63  186 1    
   128   63  187 1    
   129   63  188 1    
   130   64   65 am   BACKBONE|DICT|INTERRES
   131   64  189 1    
   132   65   66 2    
   133   67   68 2    
   134   67   69 am   BACKBONE|DICT|INTERRES
   135   69   70 1    
   136   69  190 1    
   137   70   71 1    
   138   70   72 1    
   139   70  191 1    
   140   71  192 1    
   141   71  193 1    
   142   71  194 1    
   143   72   73 2    
   144   72   74 am   BACKBONE|DICT|INTERRES
   145   74   75 1    
   146   74  195 1    
   147   75   76 1    
   148   75   77 1    
   149   75  196 1    
   150   76  197 1    
   151   76  198 1    
   152   76  199 1    
   153   77   78 2    
   154   77   79 am   BACKBONE|DICT|INTERRES
   155   79   80 1    
   156   79  200 1    
   157   80   81 1    
   158   80   82 1    
   159   80  201 1    
   160   81  202 1    
   161   81  203 1    
   162   81  204 1    
   163   82   83 2    
   164   82   84 am   BACKBONE|DICT|INTERRES
   165   84   85 1    
   166   84  205 1    
   167   85   86 1    
   168   85   87 1    
   169   85  206 1    
   170   86  207 1    
   171   86  208 1    
   172   86  209 1    
   173   87   88 2    
   174   87   89 am   BACKBONE|DICT|INTERRES
   175   89   90 1    
   176   89  210 1    
   177   90   91 1    
   178   90   92 1    
   179   90  211 1    
   180   91  212 1    
   181   91  213 1    
   182   91  214 1    
   183   92   93 2    
   184   92   94 am   BACKBONE|DICT|INTERRES
   185   94   95 1    
   186   94  215 1    
   187   95   96 1    
   188   95   97 1    
   189   95  216 1    
   190   96  217 1    
   191   96  218 1    
   192   96  219 1    
   193   97   98 2    
   194   97   99 am   BACKBONE|DICT|INTERRES
   195   99  100 1    
   196   99  220 1    
   197  100  101 1    
   198  100  102 1    
   199  100  221 1    
   200  101  222 1    
   201  101  223 1    
   202  101  224 1    
   203  102  103 2    
   204  102  104 am   BACKBONE|DICT|INTERRES
   205  104  105 1    
   206  104  225 1    
   207  105  106 1    
   208  105  107 1    
   209  105  226 1    
   210  106  227 1    
   211  106  228 1    
   212  106  229 1    
   213  107  108 2    
   214  107  109 am   BACKBONE|DICT|INTERRES
   215  109  110 1    
   216  109  230 1    
   217  110  111 1    
   218  110  112 1    
   219  110  231 1    
   220  111  232 1    
   221  111  233 1    
   222  111  234 1    
   223  112  113 2    
   224  112  114 am   BACKBONE|DICT|INTERRES
   225  114  115 1    
   226  114  235 1    
   227  115  116 1    
   228  115  117 1    
   229  115  236 1    
   230  116  237 1    
   231  116  238 1    
   232  116  239 1    
   233  117  118 2    
   234  117  119 am   BACKBONE|DICT|INTERRES
   235  119  120 1    
   236  119  240 1    
   237  120  121 1    
   238  120  124 1    
   239  120  241 1    
   240  121  122 am   BACKBONE|DICT|INTERRES
   241  121  123 2    
   242  122  242 1    
   243  122  243 1    
   244  124  125 1    
   245  124  244 1    
   246  124  245 1    
   247  125  126 1    
   248  126  246 1    
   249  126  247 1    
@<TRIPOS>SUBSTRUCTURE
     1 UNK         1 GROUP             0       ****    0 ROOT    
