@<TRIPOS>MOLECULE
3R540
247   249    1
SMALL
USER_CHARGES


@<TRIPOS>ATOM
      1 CA          3.1188  -15.5951  -48.6355 C.3       0 UNK        -0.1800 
      2 C           2.0672  -15.2047  -47.6089 C.2       0 UNK         0.5000 
      3 O           2.4123  -14.8283  -46.4907 O.2       0 UNK        -0.5000 
      4 N           0.7836  -15.2562  -47.9875 N.am      1 UNK        -0.5000 
      5 CA         -0.3586  -14.8900  -47.1361 C.3       1 UNK         0.1400 
      6 C6         -1.6944  -15.4510  -47.6816 C.3       23 UNK        -0.0398 
      7 S7         -2.1473  -14.8379  -49.3468 S.3       23 UNK        -0.2404 
      8 C8         -2.2739  -16.3760  -50.3105 C.3       23 UNK        -0.0205 
      9 C9         -0.9495  -16.7671  -50.9483 C.ar      23 UNK        -0.0193 
     10 C10        -0.6895  -16.4364  -52.2814 C.ar      23 UNK        -0.1150 
     11 C11         0.4940  -16.8512  -52.8990 C.ar      23 UNK        -0.0193 
     12 C12         1.4324  -17.5815  -52.1654 C.ar      23 UNK        -0.1150 
     13 C13         1.1917  -17.9072  -50.8289 C.ar      23 UNK        -0.0193 
     14 C14        -0.0004  -17.4932  -50.2245 C.ar      23 UNK        -0.1150 
     15 C15         2.2154  -18.7220  -50.0494 C.3       23 UNK        -0.0205 
     16 S16         2.1389  -20.4908  -50.4786 S.3       23 UNK        -0.2404 
     17 C17         0.4521  -20.9015  -49.9240 C.3       23 UNK        -0.0398 
     18 CA          0.3721  -22.0806  -48.9319 C.3       11 UNK         0.1400 
     19 N           1.2971  -21.9245  -47.8059 N.am      11 UNK        -0.5000 
     20 C           1.5902  -22.8885  -46.9253 C.2       10 UNK         0.5000 
     21 O           1.0877  -24.0109  -46.9482 O.2       10 UNK        -0.5000 
     22 CA          2.5763  -22.5172  -45.8020 C.3       10 UNK         0.1400 
     23 CB          4.0241  -22.7027  -46.2803 C.3       10 UNK        -0.1800 
     24 N           2.4138  -21.1591  -45.2674 N.am      10 UNK        -0.5000 
     25 C           1.2731  -20.6519  -44.7809 C.2       9 UNK         0.5000 
     26 O           0.1835  -21.2235  -44.8590 O.2       9 UNK        -0.5000 
     27 CA          1.3569  -19.2632  -44.1194 C.3       9 UNK         0.1400 
     28 CB          1.1041  -18.1611  -45.1605 C.3       9 UNK        -0.1800 
     29 N           0.3877  -19.1325  -43.0285 N.am      9 UNK        -0.5000 
     30 C           0.3981  -19.8782  -41.9105 C.2       8 UNK         0.5000 
     31 O           1.3108  -20.6565  -41.6286 O.2       8 UNK        -0.5000 
     32 CA         -0.7881  -19.7445  -40.9334 C.3       8 UNK         0.1400 
     33 CB         -0.3077  -19.3173  -39.5361 C.3       8 UNK        -0.1800 
     34 N          -1.8116  -18.8090  -41.4053 N.am      8 UNK        -0.5000 
     35 C          -2.8285  -19.1457  -42.2120 C.2       7 UNK         0.5000 
     36 O          -3.0462  -20.3013  -42.5748 O.2       7 UNK        -0.5000 
     37 CA         -3.7657  -18.0225  -42.7057 C.3       7 UNK         0.1400 
     38 CB         -5.1343  -18.1203  -42.0142 C.3       7 UNK        -0.1800 
     39 N          -3.2394  -16.6700  -42.5128 N.am      7 UNK        -0.5000 
     40 C          -2.2087  -16.1354  -43.1802 C.2       6 UNK         0.5000 
     41 O          -1.5875  -16.7328  -44.0593 O.2       6 UNK        -0.5000 
     42 CA         -1.7654  -14.7135  -42.7712 C.3       6 UNK         0.1400 
     43 CB         -2.7893  -13.9604  -41.8934 C.3       6 UNK        -0.1800 
     44 N          -0.4531  -14.7125  -42.1196 N.am      6 UNK        -0.5000 
     45 C          -0.0782  -15.4489  -41.0613 C.2       5 UNK         0.5000 
     46 O          -0.8235  -16.2358  -40.4783 O.2       5 UNK        -0.5000 
     47 CA          1.3692  -15.2778  -40.5585 C.3       5 UNK         0.1400 
     48 CB          2.2964  -16.2813  -41.2625 C.3       5 UNK        -0.1800 
     49 N           1.8917  -13.9257  -40.7566 N.am      5 UNK        -0.5000 
     50 C           1.4170  -12.8214  -40.1622 C.2       4 UNK         0.5000 
     51 O           0.5612  -12.8393  -39.2767 O.2       4 UNK        -0.5000 
     52 CA          1.9724  -11.4639  -40.6455 C.3       4 UNK         0.1400 
     53 CB          2.9574  -10.8908  -39.6146 C.3       4 UNK        -0.1800 
     54 N           2.6268  -11.4860  -41.9605 N.am      4 UNK        -0.5000 
     55 C           2.0559  -11.8485  -43.1174 C.2       3 UNK         0.5000 
     56 O           0.9074  -12.2904  -43.2038 O.2       3 UNK        -0.5000 
     57 CA          2.9502  -11.7525  -44.3677 C.3       3 UNK         0.1400 
     58 CB          3.9912  -12.8838  -44.3681 C.3       3 UNK        -0.1800 
     59 N           2.1652  -11.8279  -45.5994 N.am      3 UNK        -0.5000 
     60 C           1.3902  -10.8375  -46.0683 C.2       2 UNK         0.5000 
     61 O           1.3442   -9.7152  -45.5618 O.2       2 UNK        -0.5000 
     62 CA          0.5265  -11.1319  -47.3133 C.3       2 UNK         0.1400 
     63 CB          1.1508  -10.4958  -48.5650 C.3       2 UNK        -0.1800 
     64 N           0.3407  -12.5613  -47.5582 N.am      2 UNK        -0.5000 
     65 C          -0.4456  -13.3733  -46.8374 C.2       1 UNK         0.5000 
     66 O          -1.2067  -12.9714  -45.9578 O.2       1 UNK        -0.5000 
     67 C          -1.0938  -22.2335  -48.4776 C.2       11 UNK         0.5000 
     68 O          -1.8710  -22.9220  -49.1410 O.2       11 UNK        -0.5000 
     69 N          -1.4407  -21.5542  -47.3755 N.am      12 UNK        -0.5000 
     70 CA         -2.7562  -21.5978  -46.7469 C.3       12 UNK         0.1400 
     71 CB         -2.9737  -20.3221  -45.9202 C.3       12 UNK        -0.1800 
     72 C          -2.9079  -22.8673  -45.8937 C.2       12 UNK         0.5000 
     73 O          -3.9535  -23.5143  -45.9480 O.2       12 UNK        -0.5000 
     74 N          -1.8388  -23.2306  -45.1705 N.am      13 UNK        -0.5000 
     75 CA         -1.7347  -24.4485  -44.3661 C.3       13 UNK         0.1400 
     76 CB         -0.4233  -24.4170  -43.5677 C.3       13 UNK        -0.1800 
     77 C          -1.8367  -25.7394  -45.2023 C.2       13 UNK         0.5000 
     78 O          -2.4249  -26.7167  -44.7370 O.2       13 UNK        -0.5000 
     79 N          -1.3154  -25.7114  -46.4374 N.am      14 UNK        -0.5000 
     80 CA         -1.4011  -26.7763  -47.4419 C.3       14 UNK         0.1400 
     81 CB         -0.2999  -26.5494  -48.4937 C.3       14 UNK        -0.1800 
     82 C          -2.8059  -26.8854  -48.0793 C.2       14 UNK         0.5000 
     83 O          -2.9392  -26.8248  -49.3037 O.2       14 UNK        -0.5000 
     84 N          -3.8384  -27.0091  -47.2312 N.am      15 UNK        -0.5000 
     85 CA         -5.2678  -27.1385  -47.5534 C.3       15 UNK         0.1400 
     86 CB         -5.5415  -28.5231  -48.1757 C.3       15 UNK        -0.1800 
     87 C          -5.8275  -25.9879  -48.4216 C.2       15 UNK         0.5000 
     88 O          -6.8113  -26.1804  -49.1378 O.2       15 UNK        -0.5000 
     89 N          -5.1629  -24.8248  -48.3656 N.am      16 UNK        -0.5000 
     90 CA         -5.3525  -23.6309  -49.1919 C.3       16 UNK         0.1400 
     91 CB         -6.6985  -22.9519  -48.8706 C.3       16 UNK        -0.1800 
     92 C          -5.1473  -23.8498  -50.7063 C.2       16 UNK         0.5000 
     93 O          -5.5335  -22.9820  -51.4879 O.2       16 UNK        -0.5000 
     94 N          -4.5363  -24.9728  -51.1126 N.am      17 UNK        -0.5000 
     95 CA         -4.3884  -25.3663  -52.5147 C.3       17 UNK         0.1400 
     96 CB         -3.9010  -26.8209  -52.5917 C.3       17 UNK        -0.1800 
     97 C          -3.4555  -24.4274  -53.2951 C.2       17 UNK         0.5000 
     98 O          -3.8205  -23.9513  -54.3706 O.2       17 UNK        -0.5000 
     99 N          -2.2836  -24.1426  -52.7142 N.am      18 UNK        -0.5000 
    100 CA        -1.3001  -23.2206  -53.2807 C.3       18 UNK         0.1400 
    101 CB         0.0634  -23.4655  -52.6217 C.3       18 UNK        -0.1800 
    102 C         -1.7340  -21.7482  -53.1580 C.2       18 UNK         0.5000 
    103 O         -1.3900  -20.9453  -54.0235 O.2       18 UNK        -0.5000 
    104 N         -2.5065  -21.4247  -52.1097 N.am      19 UNK        -0.5000 
    105 CA        -3.1056  -20.1039  -51.9145 C.3       19 UNK         0.1400 
    106 CB        -3.6683  -19.9922  -50.4890 C.3       19 UNK        -0.1800 
    107 C         -4.1869  -19.8042  -52.9695 C.2       19 UNK         0.5000 
    108 O         -4.2076  -18.7043  -53.5208 O.2       19 UNK        -0.5000 
    109 N         -5.0347  -20.8011  -53.2643 N.am      20 UNK        -0.5000 
    110 CA        -6.0556  -20.7476  -54.3113 C.3       20 UNK         0.1400 
    111 CB        -6.9877  -21.9619  -54.1875 C.3       20 UNK        -0.1800 
    112 C         -5.4571  -20.6674  -55.7267 C.2       20 UNK         0.5000 
    113 O         -6.0055  -19.9591  -56.5718 O.2       20 UNK        -0.5000 
    114 N         -4.3258  -21.3523  -55.9547 N.am      21 UNK        -0.5000 
    115 CA        -3.5781  -21.3366  -57.2174 C.3       21 UNK         0.1400 
    116 CB        -2.4355  -22.3610  -57.1530 C.3       21 UNK        -0.1800 
    117 C         -3.0412  -19.9432  -57.6082 C.2       21 UNK         0.5000 
    118 O         -2.8918  -19.6682  -58.7997 O.2       21 UNK        -0.5000 
    119 N         -2.8011  -19.0822  -56.6114 N.am      22 UNK        -0.5000 
    120 CA        -2.4951  -17.6537  -56.7883 C.3       22 UNK         0.1400 
    121 C         -3.7349  -16.7684  -57.1245 C.2       22 UNK         0.5000 
    122 N         -4.9601  -17.2808  -57.1394 N.am      22 UNK        -0.7600 
    123 O         -3.5798  -15.5814  -57.3986 O.2       22 UNK        -0.5000 
    124 C124       -1.7162  -17.0860  -55.5742 C.3       23 UNK        -0.0398 
    125 S125       -0.0175  -17.7421  -55.4704 S.3       23 UNK        -0.2404 
    126 C126        0.7607  -16.5251  -54.3603 C.3       23 UNK        -0.0205 
    127 H127        2.6888  -15.7157  -49.6297 H         1 UNK         0.0600 
    128 H128        3.5949  -16.5317  -48.3464 H         1 UNK         0.0600 
    129 H129        3.8884  -14.8256  -48.6938 H         1 UNK         0.0600 
    130 H130        0.5488  -15.5398  -48.9292 H         1 UNK         0.3000 
    131 H131       -0.1941  -15.3669  -46.1670 H         1 UNK         0.0600 
    132 H132       -2.5105  -15.2101  -46.9980 H         1 UNK         0.0800 
    133 H133       -1.6463  -16.5400  -47.6871 H         1 UNK         0.0800 
    134 H134       -3.0272  -16.2344  -51.0872 H         1 UNK         0.0800 
    135 H135       -2.6468  -17.1864  -49.6835 H         1 UNK         0.0800 
    136 H136       -1.4193  -15.8733  -52.8455 H         1 UNK         0.1150 
    137 H137        2.3460  -17.9127  -52.6389 H         1 UNK         0.1150 
    138 H138       -0.1994  -17.7518  -49.1945 H         1 UNK         0.1150 
    139 H139        3.2177  -18.3501  -50.2669 H         1 UNK         0.0800 
    140 H140        2.0703  -18.6002  -48.9749 H         1 UNK         0.0800 
    141 H141       -0.1378  -21.1068  -50.8148 H         1 UNK         0.0800 
    142 H142       -0.0014  -20.0243  -49.4674 H         1 UNK         0.0800 
    143 H143        0.6554  -22.9966  -49.4521 H         1 UNK         0.0600 
    144 H144        1.7687  -21.0364  -47.7243 H         1 UNK         0.3000 
    145 H145        2.4026  -23.2099  -44.9767 H         1 UNK         0.0600 
    146 H146        4.7320  -22.5550  -45.4645 H         1 UNK         0.0600 
    147 H147        4.1823  -23.7108  -46.6662 H         1 UNK         0.0600 
    148 H148        4.2779  -22.0025  -47.0772 H         1 UNK         0.0600 
    149 H149        3.2602  -20.6157  -45.1801 H         1 UNK         0.3000 
    150 H150        2.3564  -19.1296  -43.7008 H         1 UNK         0.0600 
    151 H151        1.8392  -18.2020  -45.9650 H         1 UNK         0.0600 
    152 H152        1.1730  -17.1698  -44.7113 H         1 UNK         0.0600 
    153 H153        0.1162  -18.2544  -45.6139 H         1 UNK         0.0600 
    154 H154       -0.4034  -18.5266  -43.2019 H         1 UNK         0.3000 
    155 H155       -1.2314  -20.7374  -40.8347 H         1 UNK         0.0600 
    156 H156        0.2722  -18.3958  -39.5678 H         1 UNK         0.0600 
    157 H157        0.3306  -20.0835  -39.0947 H         1 UNK         0.0600 
    158 H158       -1.1467  -19.1648  -38.8571 H         1 UNK         0.0600 
    159 H159       -1.6821  -17.8361  -41.1396 H         1 UNK         0.3000 
    160 H160       -3.9136  -18.1760  -43.7766 H         1 UNK         0.0600 
    161 H161       -5.0528  -17.9618  -40.9382 H         1 UNK         0.0600 
    162 H162       -5.5818  -19.1032  -42.1681 H         1 UNK         0.0600 
    163 H163       -5.8317  -17.3827  -42.4118 H         1 UNK         0.0600 
    164 H164       -3.6660  -16.1233  -41.7791 H         1 UNK         0.3000 
    165 H165       -1.6504  -14.1522  -43.6971 H         1 UNK         0.0600 
    166 H166       -2.9206  -14.4259  -40.9162 H         1 UNK         0.0600 
    167 H167       -2.4665  -12.9330  -41.7237 H         1 UNK         0.0600 
    168 H168       -3.7654  -13.9119  -42.3779 H         1 UNK         0.0600 
    169 H169        0.2154  -14.0576  -42.5129 H         1 UNK         0.3000 
    170 H170        1.3774  -15.4916  -39.4878 H         1 UNK         0.0600 
    171 H171        1.9591  -17.3055  -41.1010 H         1 UNK         0.0600 
    172 H172        2.3282  -16.1141  -42.3401 H         1 UNK         0.0600 
    173 H173        3.3152  -16.2136  -40.8809 H         1 UNK         0.0600 
    174 H174        2.6022  -13.8125  -41.4635 H         1 UNK         0.3000 
    175 H175        1.1218  -10.7833  -40.7189 H         1 UNK         0.0600 
    176 H176        3.8478  -11.5138  -39.5210 H         1 UNK         0.0600 
    177 H177        3.2769   -9.8852  -39.8889 H         1 UNK         0.0600 
    178 H178        2.4982  -10.8245  -38.6273 H         1 UNK         0.0600 
    179 H179        3.5825  -11.1598  -41.9783 H         1 UNK         0.3000 
    180 H180        3.4743  -10.7947  -44.3483 H         1 UNK         0.0600 
    181 H181        3.5209  -13.8643  -44.2843 H         1 UNK         0.0600 
    182 H182        4.6835  -12.7828  -43.5317 H         1 UNK         0.0600 
    183 H183        4.5859  -12.8752  -45.2818 H         1 UNK         0.0600 
    184 H184        2.1171  -12.7393  -46.0388 H         1 UNK         0.3000 
    185 H185       -0.4530  -10.6778  -47.1498 H         1 UNK         0.0600 
    186 H186        0.5186  -10.6446  -49.4405 H         1 UNK         0.0600 
    187 H187        1.2763   -9.4200  -48.4356 H         1 UNK         0.0600 
    188 H188        2.1330  -10.9169  -48.7832 H         1 UNK         0.0600 
    189 H189        0.9185  -12.9774  -48.2732 H         1 UNK         0.3000 
    190 H190       -0.7168  -21.0802  -46.8514 H         1 UNK         0.3000 
    191 H191       -3.5203  -21.6103  -47.5228 H         1 UNK         0.0600 
    192 H192       -3.9440  -20.3408  -45.4227 H         1 UNK         0.0600 
    193 H193       -2.9480  -19.4343  -46.5522 H         1 UNK         0.0600 
    194 H194       -2.2128  -20.2020  -45.1497 H         1 UNK         0.0600 
    195 H195       -1.0400  -22.6013  -45.1462 H         1 UNK         0.3000 
    196 H196       -2.5656  -24.4459  -43.6579 H         1 UNK         0.0600 
    197 H197        0.4459  -24.4329  -44.2250 H         1 UNK         0.0600 
    198 H198       -0.3583  -23.5218  -42.9484 H         1 UNK         0.0600 
    199 H199       -0.3494  -25.2797  -42.9046 H         1 UNK         0.0600 
    200 H200       -0.7949  -24.8862  -46.7127 H         1 UNK         0.3000 
    201 H201       -1.1998  -27.7304  -46.9512 H         1 UNK         0.0600 
    202 H202       -0.4299  -25.5975  -49.0107 H         1 UNK         0.0600 
    203 H203       -0.3040  -27.3384  -49.2467 H         1 UNK         0.0600 
    204 H204        0.6887  -26.5481  -48.0345 H         1 UNK         0.0600 
    205 H205       -3.6088  -27.0120  -46.2411 H         1 UNK         0.3000 
    206 H206       -5.8013  -27.0875  -46.6034 H         1 UNK         0.0600 
    207 H207       -5.1529  -29.3226  -47.5451 H         1 UNK         0.0600 
    208 H208       -6.6115  -28.6979  -48.2940 H         1 UNK         0.0600 
    209 H209       -5.0827  -28.6194  -49.1605 H         1 UNK         0.0600 
    210 H210       -4.4052  -24.7597  -47.6967 H         1 UNK         0.3000 
    211 H211       -4.5629  -22.9437  -48.9011 H         1 UNK         0.0600 
    212 H212       -6.7810  -21.9854  -49.3690 H         1 UNK         0.0600 
    213 H213       -6.8016  -22.7720  -47.8005 H         1 UNK         0.0600 
    214 H214       -7.5446  -23.5590  -49.1934 H         1 UNK         0.0600 
    215 H215       -4.1831  -25.6212  -50.4160 H         1 UNK         0.3000 
    216 H216       -5.3743  -25.3159  -52.9818 H         1 UNK         0.0600 
    217 H217       -2.9252  -26.9467  -52.1209 H         1 UNK         0.0600 
    218 H218       -3.8116  -27.1487  -53.6281 H         1 UNK         0.0600 
    219 H219       -4.5988  -27.4956  -52.0952 H         1 UNK         0.0600 
    220 H220       -2.0718  -24.5561  -51.8170 H         1 UNK         0.3000 
    221 H221       -1.1958  -23.4371  -54.3460 H         1 UNK         0.0600 
    222 H222        0.4637  -24.4392  -52.9043 H         1 UNK         0.0600 
    223 H223       -0.0114  -23.4433  -51.5373 H         1 UNK         0.0600 
    224 H224        0.7934  -22.7127  -52.9235 H         1 UNK         0.0600 
    225 H225       -2.7493  -22.1450  -51.4446 H         1 UNK         0.3000 
    226 H226       -2.3187  -19.3540  -52.0256 H         1 UNK         0.0600 
    227 H227       -4.4071  -20.7659  -50.2821 H         1 UNK         0.0600 
    228 H228       -2.8763  -20.0746  -49.7452 H         1 UNK         0.0600 
    229 H229       -4.1564  -19.0290  -50.3372 H         1 UNK         0.0600 
    230 H230       -5.0001  -21.6587  -52.7188 H         1 UNK         0.3000 
    231 H231       -6.6505  -19.8458  -54.1527 H         1 UNK         0.0600 
    232 H232       -6.4419  -22.9004  -54.2917 H         1 UNK         0.0600 
    233 H233       -7.7610  -21.9427  -54.9564 H         1 UNK         0.0600 
    234 H234       -7.4914  -21.9741  -53.2208 H         1 UNK         0.0600 
    235 H235       -3.9714  -21.9572  -55.2233 H         1 UNK         0.3000 
    236 H236       -4.2665  -21.6504  -58.0046 H         1 UNK         0.0600 
    237 H237       -2.8085  -23.3581  -56.9191 H         1 UNK         0.0600 
    238 H238       -1.9170  -22.4249  -58.1104 H         1 UNK         0.0600 
    239 H239       -1.6954  -22.0917  -56.4004 H         1 UNK         0.0600 
    240 H240       -2.9344  -19.3943  -55.6591 H         1 UNK         0.3000 
    241 H241       -1.8445  -17.5618  -57.6601 H         1 UNK         0.0600 
    242 H242       -5.7366  -16.6813  -57.3687 H         1 UNK         0.3800 
    243 H243       -5.1355  -18.2581  -56.9306 H         1 UNK         0.3800 
    244 H244       -2.2424  -17.3055  -54.6450 H         1 UNK         0.0800 
    245 H245       -1.6451  -15.9988  -55.6369 H         1 UNK         0.0800 
    246 H246        1.8354  -16.5231  -54.5483 H         1 UNK         0.0800 
    247 H247        0.4149  -15.5172  -54.5938 H         1 UNK         0.0800 
@<TRIPOS>BOND
     1    1    2 1    
     2    1  127 1    
     3    1  128 1    
     4    1  129 1    
     5    2    3 2    
     6    2    4 am   BACKBONE|DICT|INTERRES
     7    4    5 1    
     8    4  130 1    
     9    5    6 1    
    10    5   65 1    
    11    5  131 1    
    12    6    7 1    
    13    6  132 1    
    14    6  133 1    
    15    7    8 1    
    16    8    9 1    
    17    8  134 1    
    18    8  135 1    
    19    9   10 ar   
    20    9   14 ar   
    21   10   11 ar   
    22   10  136 1    
    23   11   12 ar   
    24   11  126 1    
    25   12   13 ar   
    26   12  137 1    
    27   13   14 ar   
    28   13   15 1    
    29   14  138 1    
    30   15   16 1    
    31   15  139 1    
    32   15  140 1    
    33   16   17 1    
    34   17   18 1    
    35   17  141 1    
    36   17  142 1    
    37   18   19 1    
    38   18   67 1    
    39   18  143 1    
    40   19   20 am   BACKBONE|DICT|INTERRES
    41   19  144 1    
    42   20   21 2    
    43   20   22 1    
    44   22   23 1    
    45   22   24 1    
    46   22  145 1    
    47   23  146 1    
    48   23  147 1    
    49   23  148 1    
    50   24   25 am   BACKBONE|DICT|INTERRES
    51   24  149 1    
    52   25   26 2    
    53   25   27 1    
    54   27   28 1    
    55   27   29 1    
    56   27  150 1    
    57   28  151 1    
    58   28  152 1    
    59   28  153 1    
    60   29   30 am   BACKBONE|DICT|INTERRES
    61   29  154 1    
    62   30   31 2    
    63   30   32 1    
    64   32   33 1    
    65   32   34 1    
    66   32  155 1    
    67   33  156 1    
    68   33  157 1    
    69   33  158 1    
    70   34   35 am   BACKBONE|DICT|INTERRES
    71   34  159 1    
    72   35   36 2    
    73   35   37 1    
    74   37   38 1    
    75   37   39 1    
    76   37  160 1    
    77   38  161 1    
    78   38  162 1    
    79   38  163 1    
    80   39   40 am   BACKBONE|DICT|INTERRES
    81   39  164 1    
    82   40   41 2    
    83   40   42 1    
    84   42   43 1    
    85   42   44 1    
    86   42  165 1    
    87   43  166 1    
    88   43  167 1    
    89   43  168 1    
    90   44   45 am   BACKBONE|DICT|INTERRES
    91   44  169 1    
    92   45   46 2    
    93   45   47 1    
    94   47   48 1    
    95   47   49 1    
    96   47  170 1    
    97   48  171 1    
    98   48  172 1    
    99   48  173 1    
   100   49   50 am   BACKBONE|DICT|INTERRES
   101   49  174 1    
   102   50   51 2    
   103   50   52 1    
   104   52   53 1    
   105   52   54 1    
   106   52  175 1    
   107   53  176 1    
   108   53  177 1    
   109   53  178 1    
   110   54   55 am   BACKBONE|DICT|INTERRES
   111   54  179 1    
   112   55   56 2    
   113   55   57 1    
   114   57   58 1    
   115   57   59 1    
   116   57  180 1    
   117   58  181 1    
   118   58  182 1    
   119   58  183 1    
   120   59   60 am   BACKBONE|DICT|INTERRES
   121   59  184 1    
   122   60   61 2    
   123   60   62 1    
   124   62   63 1    
   125   62   64 1    
   126   62  185 1    
   127   63  186 1    
   128   63  187 1    
   129   63  188 1    
   130   64   65 am   BACKBONE|DICT|INTERRES
   131   64  189 1    
   132   65   66 2    
   133   67   68 2    
   134   67   69 am   BACKBONE|DICT|INTERRES
   135   69   70 1    
   136   69  190 1    
   137   70   71 1    
   138   70   72 1    
   139   70  191 1    
   140   71  192 1    
   141   71  193 1    
   142   71  194 1    
   143   72   73 2    
   144   72   74 am   BACKBONE|DICT|INTERRES
   145   74   75 1    
   146   74  195 1    
   147   75   76 1    
   148   75   77 1    
   149   75  196 1    
   150   76  197 1    
   151   76  198 1    
   152   76  199 1    
   153   77   78 2    
   154   77   79 am   BACKBONE|DICT|INTERRES
   155   79   80 1    
   156   79  200 1    
   157   80   81 1    
   158   80   82 1    
   159   80  201 1    
   160   81  202 1    
   161   81  203 1    
   162   81  204 1    
   163   82   83 2    
   164   82   84 am   BACKBONE|DICT|INTERRES
   165   84   85 1    
   166   84  205 1    
   167   85   86 1    
   168   85   87 1    
   169   85  206 1    
   170   86  207 1    
   171   86  208 1    
   172   86  209 1    
   173   87   88 2    
   174   87   89 am   BACKBONE|DICT|INTERRES
   175   89   90 1    
   176   89  210 1    
   177   90   91 1    
   178   90   92 1    
   179   90  211 1    
   180   91  212 1    
   181   91  213 1    
   182   91  214 1    
   183   92   93 2    
   184   92   94 am   BACKBONE|DICT|INTERRES
   185   94   95 1    
   186   94  215 1    
   187   95   96 1    
   188   95   97 1    
   189   95  216 1    
   190   96  217 1    
   191   96  218 1    
   192   96  219 1    
   193   97   98 2    
   194   97   99 am   BACKBONE|DICT|INTERRES
   195   99  100 1    
   196   99  220 1    
   197  100  101 1    
   198  100  102 1    
   199  100  221 1    
   200  101  222 1    
   201  101  223 1    
   202  101  224 1    
   203  102  103 2    
   204  102  104 am   BACKBONE|DICT|INTERRES
   205  104  105 1    
   206  104  225 1    
   207  105  106 1    
   208  105  107 1    
   209  105  226 1    
   210  106  227 1    
   211  106  228 1    
   212  106  229 1    
   213  107  108 2    
   214  107  109 am   BACKBONE|DICT|INTERRES
   215  109  110 1    
   216  109  230 1    
   217  110  111 1    
   218  110  112 1    
   219  110  231 1    
   220  111  232 1    
   221  111  233 1    
   222  111  234 1    
   223  112  113 2    
   224  112  114 am   BACKBONE|DICT|INTERRES
   225  114  115 1    
   226  114  235 1    
   227  115  116 1    
   228  115  117 1    
   229  115  236 1    
   230  116  237 1    
   231  116  238 1    
   232  116  239 1    
   233  117  118 2    
   234  117  119 am   BACKBONE|DICT|INTERRES
   235  119  120 1    
   236  119  240 1    
   237  120  121 1    
   238  120  124 1    
   239  120  241 1    
   240  121  122 am   BACKBONE|DICT|INTERRES
   241  121  123 2    
   242  122  242 1    
   243  122  243 1    
   244  124  125 1    
   245  124  244 1    
   246  124  245 1    
   247  125  126 1    
   248  126  246 1    
   249  126  247 1    
@<TRIPOS>SUBSTRUCTURE
     1 UNK         1 GROUP             0       ****    0 ROOT    
