@<TRIPOS>MOLECULE
3R540
247   249    1
SMALL
USER_CHARGES


@<TRIPOS>ATOM
      1 CA          3.4745  -16.4837  -47.3276 C.3       0 UNK        -0.1800 
      2 C           2.9741  -15.1203  -46.8736 C.2       0 UNK         0.5000 
      3 O           3.3946  -14.6256  -45.8289 O.2       0 UNK        -0.5000 
      4 N           2.0959  -14.4983  -47.6698 N.am      1 UNK        -0.5000 
      5 CA          1.4273  -13.2177  -47.3863 C.3       1 UNK         0.1400 
      6 C6          0.3487  -12.8820  -48.4460 C.3       23 UNK        -0.0398 
      7 S7         -0.8984  -14.2050  -48.5967 S.3       23 UNK        -0.2404 
      8 C8         -0.5104  -14.9157  -50.2291 C.3       23 UNK        -0.0205 
      9 C9         -0.9759  -16.3614  -50.3334 C.ar      23 UNK        -0.0193 
     10 C10        -2.3297  -16.6786  -50.1896 C.ar      23 UNK        -0.1150 
     11 C11        -2.7646  -18.0033  -50.2782 C.ar      23 UNK        -0.0193 
     12 C12        -1.8336  -19.0172  -50.5167 C.ar      23 UNK        -0.1150 
     13 C13        -0.4767  -18.7166  -50.6601 C.ar      23 UNK        -0.0193 
     14 C14        -0.0547  -17.3856  -50.5757 C.ar      23 UNK        -0.1150 
     15 C15         0.5245  -19.8387  -50.9030 C.3       23 UNK        -0.0205 
     16 S16         1.8649  -19.9113  -49.6643 S.3       23 UNK        -0.2404 
     17 C17         0.9869  -19.8370  -48.0647 C.3       23 UNK        -0.0398 
     18 CA          0.5841  -21.2241  -47.5035 C.3       11 UNK         0.1400 
     19 N           0.5757  -21.2405  -46.0380 N.am      11 UNK        -0.5000 
     20 C           0.3879  -22.3246  -45.2726 C.2       10 UNK         0.5000 
     21 O           0.2527  -23.4616  -45.7212 O.2       10 UNK        -0.5000 
     22 CA          0.2734  -22.0931  -43.7538 C.3       10 UNK         0.1400 
     23 CB          1.6595  -21.9624  -43.1056 C.3       10 UNK        -0.1800 
     24 N          -0.5416  -20.9210  -43.4294 N.am      10 UNK        -0.5000 
     25 C          -1.8497  -20.8168  -43.7062 C.2       9 UNK         0.5000 
     26 O          -2.5164  -21.7274  -44.1982 O.2       9 UNK        -0.5000 
     27 CA         -2.5130  -19.4529  -43.4396 C.3       9 UNK         0.1400 
     28 CB         -2.8898  -19.3030  -41.9585 C.3       9 UNK        -0.1800 
     29 N          -1.6746  -18.3265  -43.8522 N.am      9 UNK        -0.5000 
     30 C          -1.2935  -18.0850  -45.1151 C.2       8 UNK         0.5000 
     31 O          -1.6420  -18.7667  -46.0773 O.2       8 UNK        -0.5000 
     32 CA         -0.3193  -16.9146  -45.3323 C.3       8 UNK         0.1400 
     33 CB         -1.0813  -15.5836  -45.2831 C.3       8 UNK        -0.1800 
     34 N           0.7715  -16.9043  -44.3543 N.am      8 UNK        -0.5000 
     35 C           1.6559  -17.8983  -44.1840 C.2       7 UNK         0.5000 
     36 O           1.6907  -18.9043  -44.8883 O.2       7 UNK        -0.5000 
     37 CA          2.6217  -17.7910  -42.9920 C.3       7 UNK         0.1400 
     38 CB          3.8529  -16.9407  -43.3315 C.3       7 UNK        -0.1800 
     39 N           1.9590  -17.2551  -41.8060 N.am      7 UNK        -0.5000 
     40 C           1.0309  -17.9153  -41.0994 C.2       6 UNK         0.5000 
     41 O           0.6824  -19.0716  -41.3391 O.2       6 UNK        -0.5000 
     42 CA          0.3484  -17.1274  -39.9661 C.3       6 UNK         0.1400 
     43 CB          1.1966  -17.1725  -38.6865 C.3       6 UNK        -0.1800 
     44 N           0.1019  -15.7320  -40.3371 N.am      6 UNK        -0.5000 
     45 C          -0.7735  -15.3467  -41.2771 C.2       5 UNK         0.5000 
     46 O          -1.5146  -16.1277  -41.8728 O.2       5 UNK        -0.5000 
     47 CA         -0.7878  -13.8487  -41.6438 C.3       5 UNK         0.1400 
     48 CB         -1.7704  -13.0832  -40.7457 C.3       5 UNK        -0.1800 
     49 N           0.5380  -13.2275  -41.5559 N.am      5 UNK        -0.5000 
     50 C           1.5713  -13.5363  -42.3507 C.2       4 UNK         0.5000 
     51 O           1.4982  -14.3430  -43.2779 O.2       4 UNK        -0.5000 
     52 CA          2.9206  -12.9030  -41.9891 C.3       4 UNK         0.1400 
     53 CB          3.5023  -13.6092  -40.7445 C.3       4 UNK        -0.1800 
     54 N           3.8565  -13.0077  -43.1103 N.am      4 UNK        -0.5000 
     55 C           5.0357  -12.3732  -43.1711 C.2       3 UNK         0.5000 
     56 O           5.4148  -11.5569  -42.3297 O.2       3 UNK        -0.5000 
     57 CA          5.9537  -12.6972  -44.3587 C.3       3 UNK         0.1400 
     58 CB          6.4300  -14.1592  -44.3219 C.3       3 UNK        -0.1800 
     59 N           5.2944  -12.4212  -45.6314 N.am      3 UNK        -0.5000 
     60 C           5.3933  -11.2619  -46.2984 C.2       2 UNK         0.5000 
     61 O           6.0436  -10.2970  -45.8938 O.2       2 UNK        -0.5000 
     62 CA          4.6712  -11.1528  -47.6574 C.3       2 UNK         0.1400 
     63 CB          5.6691  -11.3422  -48.8105 C.3       2 UNK        -0.1800 
     64 N           3.5860  -12.1195  -47.8138 N.am      2 UNK        -0.5000 
     65 C           2.3950  -12.0288  -47.2082 C.2       1 UNK         0.5000 
     66 O           2.0544  -11.0685  -46.5163 O.2       1 UNK        -0.5000 
     67 C          -0.7646  -21.6980  -48.0825 C.2       11 UNK         0.5000 
     68 O          -0.7778  -22.5555  -48.9622 O.2       11 UNK        -0.5000 
     69 N          -1.8752  -21.1740  -47.5457 N.am      12 UNK        -0.5000 
     70 CA         -3.2427  -21.5406  -47.9156 C.3       12 UNK         0.1400 
     71 CB         -4.2285  -20.6208  -47.1811 C.3       12 UNK        -0.1800 
     72 C          -3.5801  -23.0176  -47.6445 C.2       12 UNK         0.5000 
     73 O          -4.2953  -23.6255  -48.4435 O.2       12 UNK        -0.5000 
     74 N          -3.0543  -23.5580  -46.5370 N.am      13 UNK        -0.5000 
     75 CA         -3.1813  -24.9622  -46.1505 C.3       13 UNK         0.1400 
     76 CB         -2.8483  -25.1077  -44.6579 C.3       13 UNK        -0.1800 
     77 C          -2.3000  -25.8992  -46.9983 C.2       13 UNK         0.5000 
     78 O          -2.7119  -27.0276  -47.2683 O.2       13 UNK        -0.5000 
     79 N          -1.1096  -25.4271  -47.3970 N.am      14 UNK        -0.5000 
     80 CA         -0.1937  -26.1309  -48.2988 C.3       14 UNK         0.1400 
     81 CB          1.1971  -25.4819  -48.2256 C.3       14 UNK        -0.1800 
     82 C          -0.7073  -26.1597  -49.7511 C.2       14 UNK         0.5000 
     83 O          -0.4849  -27.1445  -50.4577 O.2       14 UNK        -0.5000 
     84 N          -1.3969  -25.0866  -50.1576 N.am      15 UNK        -0.5000 
     85 CA         -2.1436  -24.9628  -51.4073 C.3       15 UNK         0.1400 
     86 CB         -2.3910  -23.4678  -51.6722 C.3       15 UNK        -0.1800 
     87 C          -3.4545  -25.7836  -51.3783 C.2       15 UNK         0.5000 
     88 O          -3.6907  -26.5617  -50.4507 O.2       15 UNK        -0.5000 
     89 N          -4.3089  -25.6105  -52.3938 N.am      16 UNK        -0.5000 
     90 CA         -5.5553  -26.3615  -52.5760 C.3       16 UNK         0.1400 
     91 CB         -5.9049  -26.3971  -54.0754 C.3       16 UNK        -0.1800 
     92 C          -6.7097  -25.8210  -51.7028 C.2       16 UNK         0.5000 
     93 O          -7.7970  -25.5604  -52.2184 O.2       16 UNK        -0.5000 
     94 N          -6.4482  -25.6714  -50.3956 N.am      17 UNK        -0.5000 
     95 CA         -7.3449  -25.1723  -49.3481 C.3       17 UNK         0.1400 
     96 CB         -8.5054  -26.1600  -49.1059 C.3       17 UNK        -0.1800 
     97 C          -7.8211  -23.7357  -49.6402 C.2       17 UNK         0.5000 
     98 O          -9.0083  -23.5056  -49.8786 O.2       17 UNK        -0.5000 
     99 N          -6.8573  -22.8042  -49.6344 N.am      18 UNK        -0.5000 
    100 CA        -7.0100  -21.3767  -49.9443 C.3       18 UNK         0.1400 
    101 CB        -7.9234  -20.6716  -48.9192 C.3       18 UNK        -0.1800 
    102 C         -7.4226  -21.1136  -51.4094 C.2       18 UNK         0.5000 
    103 O         -8.2149  -20.2119  -51.6870 O.2       18 UNK        -0.5000 
    104 N         -6.8528  -21.9029  -52.3231 N.am      19 UNK        -0.5000 
    105 CA        -6.9949  -21.8095  -53.7711 C.3       19 UNK         0.1400 
    106 CB        -8.2694  -22.5426  -54.2240 C.3       19 UNK        -0.1800 
    107 C         -5.7358  -22.4233  -54.4008 C.2       19 UNK         0.5000 
    108 O         -4.9751  -23.0831  -53.6906 O.2       19 UNK        -0.5000 
    109 N         -5.5503  -22.2072  -55.7107 N.am      20 UNK        -0.5000 
    110 CA        -4.3972  -22.6134  -56.5265 C.3       20 UNK         0.1400 
    111 CB        -4.1742  -24.1407  -56.4996 C.3       20 UNK        -0.1800 
    112 C         -3.1324  -21.8236  -56.1361 C.2       20 UNK         0.5000 
    113 O         -2.4243  -22.2012  -55.2029 O.2       20 UNK        -0.5000 
    114 N         -2.9074  -20.7103  -56.8489 N.am      21 UNK        -0.5000 
    115 CA        -1.8301  -19.7231  -56.6670 C.3       21 UNK         0.1400 
    116 CB        -0.4310  -20.3736  -56.7179 C.3       21 UNK        -0.1800 
    117 C         -2.0125  -18.8026  -55.4394 C.2       21 UNK         0.5000 
    118 O         -1.1132  -18.0194  -55.1311 O.2       21 UNK        -0.5000 
    119 N         -3.1839  -18.8713  -54.7936 N.am      22 UNK        -0.5000 
    120 CA        -3.6224  -17.9439  -53.7384 C.3       22 UNK         0.1400 
    121 C         -4.0260  -16.5399  -54.2897 C.2       22 UNK         0.5000 
    122 N         -4.4469  -16.4194  -55.5443 N.am      22 UNK        -0.7600 
    123 O         -3.9255  -15.5386  -53.5870 O.2       22 UNK        -0.5000 
    124 C124       -4.7382  -18.6061  -52.8838 C.3       23 UNK        -0.0398 
    125 S125       -5.2792  -17.6550  -51.4207 S.3       23 UNK        -0.2404 
    126 C126       -4.2360  -18.3394  -50.0973 C.3       23 UNK        -0.0205 
    127 H127        3.2857  -17.2305  -46.5583 H         1 UNK         0.0600 
    128 H128        4.5484  -16.4463  -47.5089 H         1 UNK         0.0600 
    129 H129        2.9832  -16.8128  -48.2438 H         1 UNK         0.0600 
    130 H130        1.7875  -14.9631  -48.5103 H         1 UNK         0.3000 
    131 H131        0.9289  -13.3302  -46.4235 H         1 UNK         0.0600 
    132 H132       -0.1796  -11.9671  -48.1714 H         1 UNK         0.0800 
    133 H133        0.8042  -12.6871  -49.4184 H         1 UNK         0.0800 
    134 H134        0.5623  -14.8518  -50.4153 H         1 UNK         0.0800 
    135 H135       -0.9961  -14.3222  -51.0049 H         1 UNK         0.0800 
    136 H136       -3.0476  -15.8917  -50.0047 H         1 UNK         0.1150 
    137 H137       -2.1629  -20.0440  -50.5865 H         1 UNK         0.1150 
    138 H138        0.9949  -17.1538  -50.6890 H         1 UNK         0.1150 
    139 H139        0.0225  -20.8067  -50.9293 H         1 UNK         0.0800 
    140 H140        0.9677  -19.7032  -51.8903 H         1 UNK         0.0800 
    141 H141        0.1419  -19.1488  -48.1064 H         1 UNK         0.0800 
    142 H142        1.6972  -19.3643  -47.3878 H         1 UNK         0.0800 
    143 H143        1.3418  -21.9496  -47.8068 H         1 UNK         0.0600 
    144 H144        0.7388  -20.3486  -45.5771 H         1 UNK         0.3000 
    145 H145       -0.2176  -22.9678  -43.3223 H         1 UNK         0.0600 
    146 H146        1.5794  -21.8417  -42.0251 H         1 UNK         0.0600 
    147 H147        2.2603  -22.8536  -43.2908 H         1 UNK         0.0600 
    148 H148        2.2123  -21.1088  -43.4965 H         1 UNK         0.0600 
    149 H149       -0.0706  -20.1415  -42.9836 H         1 UNK         0.3000 
    150 H150       -3.4321  -19.4124  -44.0275 H         1 UNK         0.0600 
    151 H151       -3.5426  -20.1159  -41.6380 H         1 UNK         0.0600 
    152 H152       -3.4218  -18.3683  -41.7805 H         1 UNK         0.0600 
    153 H153       -2.0109  -19.3141  -41.3140 H         1 UNK         0.0600 
    154 H154       -1.3871  -17.6795  -43.1245 H         1 UNK         0.3000 
    155 H155        0.1263  -17.0191  -46.3239 H         1 UNK         0.0600 
    156 H156       -1.6368  -15.4626  -44.3552 H         1 UNK         0.0600 
    157 H157       -1.8048  -15.5247  -46.0964 H         1 UNK         0.0600 
    158 H158       -0.4077  -14.7355  -45.3763 H         1 UNK         0.0600 
    159 H159        0.8726  -16.0641  -43.7919 H         1 UNK         0.3000 
    160 H160        2.9698  -18.7996  -42.7593 H         1 UNK         0.0600 
    161 H161        3.5849  -15.9034  -43.5206 H         1 UNK         0.0600 
    162 H162        4.3560  -17.3170  -44.2229 H         1 UNK         0.0600 
    163 H163        4.5783  -16.9538  -42.5181 H         1 UNK         0.0600 
    164 H164        2.1539  -16.2944  -41.5720 H         1 UNK         0.3000 
    165 H165       -0.6122  -17.6037  -39.7584 H         1 UNK         0.0600 
    166 H166        0.6886  -16.6758  -37.8596 H         1 UNK         0.0600 
    167 H167        1.3842  -18.2024  -38.3797 H         1 UNK         0.0600 
    168 H168        2.1647  -16.6894  -38.8250 H         1 UNK         0.0600 
    169 H169        0.6612  -15.0289  -39.8786 H         1 UNK         0.3000 
    170 H170       -1.1328  -13.7625  -42.6760 H         1 UNK         0.0600 
    171 H171       -2.7716  -13.5118  -40.8094 H         1 UNK         0.0600 
    172 H172       -1.4671  -13.1116  -39.6984 H         1 UNK         0.0600 
    173 H173       -1.8464  -12.0379  -41.0457 H         1 UNK         0.0600 
    174 H174        0.6722  -12.5572  -40.8123 H         1 UNK         0.3000 
    175 H175        2.7508  -11.8470  -41.7694 H         1 UNK         0.0600 
    176 H176        3.7394  -14.6534  -40.9513 H         1 UNK         0.0600 
    177 H177        4.4150  -13.1263  -40.3966 H         1 UNK         0.0600 
    178 H178        2.8020  -13.5899  -39.9088 H         1 UNK         0.0600 
    179 H179        3.5666  -13.6295  -43.8606 H         1 UNK         0.3000 
    180 H180        6.8446  -12.0722  -44.2651 H         1 UNK         0.0600 
    181 H181        5.6093  -14.8636  -44.4472 H         1 UNK         0.0600 
    182 H182        6.9143  -14.3875  -43.3717 H         1 UNK         0.0600 
    183 H183        7.1559  -14.3535  -45.1114 H         1 UNK         0.0600 
    184 H184        4.6775  -13.1480  -45.9800 H         1 UNK         0.3000 
    185 H185        4.2547  -10.1458  -47.7297 H         1 UNK         0.0600 
    186 H186        6.4810  -10.6163  -48.7484 H         1 UNK         0.0600 
    187 H187        6.1167  -12.3369  -48.7962 H         1 UNK         0.0600 
    188 H188        5.1857  -11.2043  -49.7779 H         1 UNK         0.0600 
    189 H189        3.7857  -12.9458  -48.3583 H         1 UNK         0.3000 
    190 H190       -1.7780  -20.4298  -46.8574 H         1 UNK         0.3000 
    191 H191       -3.3499  -21.3750  -48.9883 H         1 UNK         0.0600 
    192 H192       -4.1672  -20.7481  -46.1005 H         1 UNK         0.0600 
    193 H193       -5.2559  -20.8315  -47.4743 H         1 UNK         0.0600 
    194 H194       -4.0313  -19.5720  -47.4003 H         1 UNK         0.0600 
    195 H195       -2.5370  -22.9572  -45.9044 H         1 UNK         0.3000 
    196 H196       -4.2209  -25.2633  -46.2965 H         1 UNK         0.0600 
    197 H197       -2.9611  -26.1420  -44.3310 H         1 UNK         0.0600 
    198 H198       -3.5124  -24.4977  -44.0452 H         1 UNK         0.0600 
    199 H199       -1.8235  -24.8041  -44.4424 H         1 UNK         0.0600 
    200 H200       -0.8056  -24.5199  -47.0588 H         1 UNK         0.3000 
    201 H201       -0.1037  -27.1640  -47.9569 H         1 UNK         0.0600 
    202 H202        1.5936  -25.5134  -47.2106 H         1 UNK         0.0600 
    203 H203        1.1726  -24.4390  -48.5425 H         1 UNK         0.0600 
    204 H204        1.9060  -26.0043  -48.8689 H         1 UNK         0.0600 
    205 H205       -1.4564  -24.2951  -49.5251 H         1 UNK         0.3000 
    206 H206       -1.5232  -25.3568  -52.2144 H         1 UNK         0.0600 
    207 H207       -3.1634  -23.0593  -51.0198 H         1 UNK         0.0600 
    208 H208       -1.4837  -22.8819  -51.5267 H         1 UNK         0.0600 
    209 H209       -2.6947  -23.3019  -52.7035 H         1 UNK         0.0600 
    210 H210       -4.1515  -24.8538  -53.0520 H         1 UNK         0.3000 
    211 H211       -5.3866  -27.3946  -52.2649 H         1 UNK         0.0600 
    212 H212       -6.1483  -25.4066  -54.4583 H         1 UNK         0.0600 
    213 H213       -6.7676  -27.0383  -54.2597 H         1 UNK         0.0600 
    214 H214       -5.0778  -26.7915  -54.6657 H         1 UNK         0.0600 
    215 H215       -5.5076  -25.9105  -50.0935 H         1 UNK         0.3000 
    216 H216       -6.7563  -25.1292  -48.4302 H         1 UNK         0.0600 
    217 H217       -9.1292  -25.8288  -48.2750 H         1 UNK         0.0600 
    218 H218       -8.1310  -27.1525  -48.8556 H         1 UNK         0.0600 
    219 H219       -9.1508  -26.2564  -49.9794 H         1 UNK         0.0600 
    220 H220       -5.9168  -23.1102  -49.3980 H         1 UNK         0.3000 
    221 H221       -6.0147  -20.9502  -49.8365 H         1 UNK         0.0600 
    222 H222       -8.9667  -20.9666  -49.0344 H         1 UNK         0.0600 
    223 H223       -7.6247  -20.8976  -47.8960 H         1 UNK         0.0600 
    224 H224       -7.8769  -19.5886  -49.0397 H         1 UNK         0.0600 
    225 H225       -6.1815  -22.6026  -52.0320 H         1 UNK         0.3000 
    226 H226       -7.0499  -20.7593  -54.0634 H         1 UNK         0.0600 
    227 H227       -9.1560  -22.1306  -53.7419 H         1 UNK         0.0600 
    228 H228       -8.4152  -22.4523  -55.3008 H         1 UNK         0.0600 
    229 H229       -8.2255  -23.6057  -53.9873 H         1 UNK         0.0600 
    230 H230       -6.2462  -21.6633  -56.2018 H         1 UNK         0.3000 
    231 H231       -4.6488  -22.3530  -57.5560 H         1 UNK         0.0600 
    232 H232       -5.0853  -24.6770  -56.7640 H         1 UNK         0.0600 
    233 H233       -3.8457  -24.4978  -55.5237 H         1 UNK         0.0600 
    234 H234       -3.4068  -24.4285  -57.2188 H         1 UNK         0.0600 
    235 H235       -3.5569  -20.4896  -57.5917 H         1 UNK         0.3000 
    236 H236       -1.9006  -19.0621  -57.5319 H         1 UNK         0.0600 
    237 H237       -0.2211  -20.9627  -55.8250 H         1 UNK         0.0600 
    238 H238       -0.3286  -21.0259  -57.5851 H         1 UNK         0.0600 
    239 H239        0.3483  -19.6142  -56.7912 H         1 UNK         0.0600 
    240 H240       -3.8586  -19.5478  -55.1145 H         1 UNK         0.3000 
    241 H241       -2.7660  -17.7759  -53.0834 H         1 UNK         0.0600 
    242 H242       -4.5235  -17.2208  -56.1488 H         1 UNK         0.3800 
    243 H243       -4.6915  -15.5062  -55.8946 H         1 UNK         0.3800 
    244 H244       -5.6204  -18.7807  -53.5010 H         1 UNK         0.0800 
    245 H245       -4.4109  -19.5921  -52.5500 H         1 UNK         0.0800 
    246 H246       -4.3796  -19.4169  -50.0470 H         1 UNK         0.0800 
    247 H247       -4.5753  -17.9364  -49.1423 H         1 UNK         0.0800 
@<TRIPOS>BOND
     1    1    2 1    
     2    1  127 1    
     3    1  128 1    
     4    1  129 1    
     5    2    3 2    
     6    2    4 am   BACKBONE|DICT|INTERRES
     7    4    5 1    
     8    4  130 1    
     9    5    6 1    
    10    5   65 1    
    11    5  131 1    
    12    6    7 1    
    13    6  132 1    
    14    6  133 1    
    15    7    8 1    
    16    8    9 1    
    17    8  134 1    
    18    8  135 1    
    19    9   10 ar   
    20    9   14 ar   
    21   10   11 ar   
    22   10  136 1    
    23   11   12 ar   
    24   11  126 1    
    25   12   13 ar   
    26   12  137 1    
    27   13   14 ar   
    28   13   15 1    
    29   14  138 1    
    30   15   16 1    
    31   15  139 1    
    32   15  140 1    
    33   16   17 1    
    34   17   18 1    
    35   17  141 1    
    36   17  142 1    
    37   18   19 1    
    38   18   67 1    
    39   18  143 1    
    40   19   20 am   BACKBONE|DICT|INTERRES
    41   19  144 1    
    42   20   21 2    
    43   20   22 1    
    44   22   23 1    
    45   22   24 1    
    46   22  145 1    
    47   23  146 1    
    48   23  147 1    
    49   23  148 1    
    50   24   25 am   BACKBONE|DICT|INTERRES
    51   24  149 1    
    52   25   26 2    
    53   25   27 1    
    54   27   28 1    
    55   27   29 1    
    56   27  150 1    
    57   28  151 1    
    58   28  152 1    
    59   28  153 1    
    60   29   30 am   BACKBONE|DICT|INTERRES
    61   29  154 1    
    62   30   31 2    
    63   30   32 1    
    64   32   33 1    
    65   32   34 1    
    66   32  155 1    
    67   33  156 1    
    68   33  157 1    
    69   33  158 1    
    70   34   35 am   BACKBONE|DICT|INTERRES
    71   34  159 1    
    72   35   36 2    
    73   35   37 1    
    74   37   38 1    
    75   37   39 1    
    76   37  160 1    
    77   38  161 1    
    78   38  162 1    
    79   38  163 1    
    80   39   40 am   BACKBONE|DICT|INTERRES
    81   39  164 1    
    82   40   41 2    
    83   40   42 1    
    84   42   43 1    
    85   42   44 1    
    86   42  165 1    
    87   43  166 1    
    88   43  167 1    
    89   43  168 1    
    90   44   45 am   BACKBONE|DICT|INTERRES
    91   44  169 1    
    92   45   46 2    
    93   45   47 1    
    94   47   48 1    
    95   47   49 1    
    96   47  170 1    
    97   48  171 1    
    98   48  172 1    
    99   48  173 1    
   100   49   50 am   BACKBONE|DICT|INTERRES
   101   49  174 1    
   102   50   51 2    
   103   50   52 1    
   104   52   53 1    
   105   52   54 1    
   106   52  175 1    
   107   53  176 1    
   108   53  177 1    
   109   53  178 1    
   110   54   55 am   BACKBONE|DICT|INTERRES
   111   54  179 1    
   112   55   56 2    
   113   55   57 1    
   114   57   58 1    
   115   57   59 1    
   116   57  180 1    
   117   58  181 1    
   118   58  182 1    
   119   58  183 1    
   120   59   60 am   BACKBONE|DICT|INTERRES
   121   59  184 1    
   122   60   61 2    
   123   60   62 1    
   124   62   63 1    
   125   62   64 1    
   126   62  185 1    
   127   63  186 1    
   128   63  187 1    
   129   63  188 1    
   130   64   65 am   BACKBONE|DICT|INTERRES
   131   64  189 1    
   132   65   66 2    
   133   67   68 2    
   134   67   69 am   BACKBONE|DICT|INTERRES
   135   69   70 1    
   136   69  190 1    
   137   70   71 1    
   138   70   72 1    
   139   70  191 1    
   140   71  192 1    
   141   71  193 1    
   142   71  194 1    
   143   72   73 2    
   144   72   74 am   BACKBONE|DICT|INTERRES
   145   74   75 1    
   146   74  195 1    
   147   75   76 1    
   148   75   77 1    
   149   75  196 1    
   150   76  197 1    
   151   76  198 1    
   152   76  199 1    
   153   77   78 2    
   154   77   79 am   BACKBONE|DICT|INTERRES
   155   79   80 1    
   156   79  200 1    
   157   80   81 1    
   158   80   82 1    
   159   80  201 1    
   160   81  202 1    
   161   81  203 1    
   162   81  204 1    
   163   82   83 2    
   164   82   84 am   BACKBONE|DICT|INTERRES
   165   84   85 1    
   166   84  205 1    
   167   85   86 1    
   168   85   87 1    
   169   85  206 1    
   170   86  207 1    
   171   86  208 1    
   172   86  209 1    
   173   87   88 2    
   174   87   89 am   BACKBONE|DICT|INTERRES
   175   89   90 1    
   176   89  210 1    
   177   90   91 1    
   178   90   92 1    
   179   90  211 1    
   180   91  212 1    
   181   91  213 1    
   182   91  214 1    
   183   92   93 2    
   184   92   94 am   BACKBONE|DICT|INTERRES
   185   94   95 1    
   186   94  215 1    
   187   95   96 1    
   188   95   97 1    
   189   95  216 1    
   190   96  217 1    
   191   96  218 1    
   192   96  219 1    
   193   97   98 2    
   194   97   99 am   BACKBONE|DICT|INTERRES
   195   99  100 1    
   196   99  220 1    
   197  100  101 1    
   198  100  102 1    
   199  100  221 1    
   200  101  222 1    
   201  101  223 1    
   202  101  224 1    
   203  102  103 2    
   204  102  104 am   BACKBONE|DICT|INTERRES
   205  104  105 1    
   206  104  225 1    
   207  105  106 1    
   208  105  107 1    
   209  105  226 1    
   210  106  227 1    
   211  106  228 1    
   212  106  229 1    
   213  107  108 2    
   214  107  109 am   BACKBONE|DICT|INTERRES
   215  109  110 1    
   216  109  230 1    
   217  110  111 1    
   218  110  112 1    
   219  110  231 1    
   220  111  232 1    
   221  111  233 1    
   222  111  234 1    
   223  112  113 2    
   224  112  114 am   BACKBONE|DICT|INTERRES
   225  114  115 1    
   226  114  235 1    
   227  115  116 1    
   228  115  117 1    
   229  115  236 1    
   230  116  237 1    
   231  116  238 1    
   232  116  239 1    
   233  117  118 2    
   234  117  119 am   BACKBONE|DICT|INTERRES
   235  119  120 1    
   236  119  240 1    
   237  120  121 1    
   238  120  124 1    
   239  120  241 1    
   240  121  122 am   BACKBONE|DICT|INTERRES
   241  121  123 2    
   242  122  242 1    
   243  122  243 1    
   244  124  125 1    
   245  124  244 1    
   246  124  245 1    
   247  125  126 1    
   248  126  246 1    
   249  126  247 1    
@<TRIPOS>SUBSTRUCTURE
     1 UNK         1 GROUP             0       ****    0 ROOT    
