@<TRIPOS>MOLECULE
3R540
247   249    1
SMALL
USER_CHARGES


@<TRIPOS>ATOM
      1 CA          1.6590   -8.9770  -49.7347 C.3       0 UNK        -0.1800 
      2 C           2.1286   -9.9600  -48.6721 C.2       0 UNK         0.5000 
      3 O           3.2225   -9.8028  -48.1289 O.2       0 UNK        -0.5000 
      4 N           1.3034  -10.9661  -48.3603 N.am      1 UNK        -0.5000 
      5 CA          1.5483  -12.0234  -47.3703 C.3       1 UNK         0.1400 
      6 C6          0.7852  -13.3259  -47.7355 C.3       23 UNK        -0.0398 
      7 S7         -1.0126  -13.1174  -48.0142 S.3       23 UNK        -0.2404 
      8 C8         -1.6129  -14.8354  -47.9049 C.3       23 UNK        -0.0205 
      9 C9         -1.2519  -15.6563  -49.1349 C.ar      23 UNK        -0.0193 
     10 C10        -2.1717  -15.8135  -50.1770 C.ar      23 UNK        -0.1150 
     11 C11        -1.8378  -16.5622  -51.3101 C.ar      23 UNK        -0.0193 
     12 C12        -0.5731  -17.1512  -51.3980 C.ar      23 UNK        -0.1150 
     13 C13         0.3508  -17.0078  -50.3605 C.ar      23 UNK        -0.0193 
     14 C14         0.0015  -16.2674  -49.2282 C.ar      23 UNK        -0.1150 
     15 C15         1.7364  -17.6254  -50.4784 C.3       23 UNK        -0.0205 
     16 S16         1.7219  -19.4278  -50.2296 S.3       23 UNK        -0.2404 
     17 C17         1.2695  -19.5542  -48.4660 C.3       23 UNK        -0.0398 
     18 CA          0.2142  -20.6475  -48.1852 C.3       11 UNK         0.1400 
     19 N           0.1466  -20.9556  -46.7563 N.am      11 UNK        -0.5000 
     20 C          -0.4672  -22.0233  -46.2322 C.2       10 UNK         0.5000 
     21 O          -1.0361  -22.8816  -46.9053 O.2       10 UNK        -0.5000 
     22 CA         -0.4840  -22.1262  -44.6964 C.3       10 UNK         0.1400 
     23 CB          0.8664  -22.6274  -44.1631 C.3       10 UNK        -0.1800 
     24 N          -0.8280  -20.8568  -44.0547 N.am      10 UNK        -0.5000 
     25 C          -2.0098  -20.2393  -44.1969 C.2       9 UNK         0.5000 
     26 O          -2.9459  -20.6961  -44.8530 O.2       9 UNK        -0.5000 
     27 CA         -2.1602  -18.8625  -43.5276 C.3       9 UNK         0.1400 
     28 CB         -2.4600  -19.0184  -42.0295 C.3       9 UNK        -0.1800 
     29 N          -0.9865  -18.0078  -43.7116 N.am      9 UNK        -0.5000 
     30 C          -0.5380  -17.5800  -44.9008 C.2       8 UNK         0.5000 
     31 O          -1.0724  -17.8504  -45.9733 O.2       8 UNK        -0.5000 
     32 CA          0.7592  -16.7579  -44.9044 C.3       8 UNK         0.1400 
     33 CB          0.5111  -15.3372  -44.3805 C.3       8 UNK        -0.1800 
     34 N           1.8162  -17.3871  -44.1196 N.am      8 UNK        -0.5000 
     35 C           2.3296  -18.6043  -44.3412 C.2       7 UNK         0.5000 
     36 O           2.0004  -19.3312  -45.2778 O.2       7 UNK        -0.5000 
     37 CA          3.3490  -19.1105  -43.3091 C.3       7 UNK         0.1400 
     38 CB          4.7452  -18.5369  -43.5927 C.3       7 UNK        -0.1800 
     39 N           2.9472  -18.7750  -41.9432 N.am      7 UNK        -0.5000 
     40 C           1.9028  -19.3228  -41.3065 C.2       6 UNK         0.5000 
     41 O           1.1804  -20.1932  -41.7944 O.2       6 UNK        -0.5000 
     42 CA          1.5967  -18.7732  -39.9015 C.3       6 UNK         0.1400 
     43 CB          2.5584  -19.3660  -38.8606 C.3       6 UNK        -0.1800 
     44 N           1.6549  -17.3105  -39.8443 N.am      6 UNK        -0.5000 
     45 C           0.7852  -16.5036  -40.4670 C.2       5 UNK         0.5000 
     46 O          -0.1509  -16.9107  -41.1537 O.2       5 UNK        -0.5000 
     47 CA          1.0075  -14.9868  -40.3252 C.3       5 UNK         0.1400 
     48 CB          0.3962  -14.4739  -39.0129 C.3       5 UNK        -0.1800 
     49 N           2.4029  -14.5472  -40.4084 N.am      5 UNK        -0.5000 
     50 C           3.2699  -14.8235  -41.3915 C.2       4 UNK         0.5000 
     51 O           3.0457  -15.6279  -42.2956 O.2       4 UNK        -0.5000 
     52 CA          4.5918  -14.0311  -41.3721 C.3       4 UNK         0.1400 
     53 CB          5.5620  -14.4690  -42.4837 C.3       4 UNK        -0.1800 
     54 N           4.3444  -12.5949  -41.5078 N.am      4 UNK        -0.5000 
     55 C           3.9625  -11.7693  -40.5282 C.2       3 UNK         0.5000 
     56 O           3.7591  -12.1435  -39.3719 O.2       3 UNK        -0.5000 
     57 CA          3.7569  -10.2863  -40.8905 C.3       3 UNK         0.1400 
     58 CB          5.1061   -9.5688  -41.0900 C.3       3 UNK        -0.1800 
     59 N           2.8448  -10.0378  -42.0169 N.am      3 UNK        -0.5000 
     60 C           2.9989  -10.3294  -43.3164 C.2       2 UNK         0.5000 
     61 O           3.9585  -10.9529  -43.7788 O.2       2 UNK        -0.5000 
     62 CA          1.9052   -9.7779  -44.2508 C.3       2 UNK         0.1400 
     63 CB          2.0783   -8.2619  -44.4423 C.3       2 UNK        -0.1800 
     64 N           1.9502  -10.4074  -45.5677 N.am      2 UNK        -0.5000 
     65 C           1.3202  -11.5338  -45.9169 C.2       1 UNK         0.5000 
     66 O           0.5822  -12.1539  -45.1511 O.2       1 UNK        -0.5000 
     67 C          -1.1755  -20.3140  -48.7735 C.2       11 UNK         0.5000 
     68 O          -1.5026  -20.8065  -49.8519 O.2       11 UNK        -0.5000 
     69 N          -1.9877  -19.5426  -48.0358 N.am      12 UNK        -0.5000 
     70 CA         -3.3605  -19.1947  -48.4058 C.3       12 UNK         0.1400 
     71 CB         -3.8940  -18.1127  -47.4558 C.3       12 UNK        -0.1800 
     72 C          -4.3141  -20.4036  -48.4257 C.2       12 UNK         0.5000 
     73 O          -5.2310  -20.4266  -49.2443 O.2       12 UNK        -0.5000 
     74 N          -4.0940  -21.3808  -47.5344 N.am      13 UNK        -0.5000 
     75 CA         -4.8113  -22.6567  -47.5232 C.3       13 UNK         0.1400 
     76 CB         -4.6579  -23.3204  -46.1470 C.3       13 UNK        -0.1800 
     77 C          -4.3233  -23.6036  -48.6339 C.2       13 UNK         0.5000 
     78 O          -5.1360  -24.3117  -49.2339 O.2       13 UNK        -0.5000 
     79 N          -3.0087  -23.5942  -48.8924 N.am      14 UNK        -0.5000 
     80 CA         -2.2899  -24.4230  -49.8598 C.3       14 UNK         0.1400 
     81 CB         -2.7027  -24.0440  -51.2996 C.3       14 UNK        -0.1800 
     82 C          -2.4552  -25.9199  -49.5228 C.2       14 UNK         0.5000 
     83 O          -2.2990  -26.2997  -48.3609 O.2       14 UNK        -0.5000 
     84 N          -2.8255  -26.7411  -50.5126 N.am      15 UNK        -0.5000 
     85 CA         -3.1718  -28.1576  -50.3623 C.3       15 UNK         0.1400 
     86 CB         -2.8962  -28.8674  -51.7009 C.3       15 UNK        -0.1800 
     87 C          -4.6290  -28.3539  -49.8780 C.2       15 UNK         0.5000 
     88 O          -5.3225  -29.2448  -50.3710 O.2       15 UNK        -0.5000 
     89 N          -5.0739  -27.4961  -48.9454 N.am      16 UNK        -0.5000 
     90 CA         -6.4388  -27.3611  -48.4206 C.3       16 UNK         0.1400 
     91 CB         -6.8220  -28.5895  -47.5696 C.3       16 UNK        -0.1800 
     92 C          -7.4605  -27.0464  -49.5352 C.2       16 UNK         0.5000 
     93 O          -8.5355  -27.6479  -49.5871 O.2       16 UNK        -0.5000 
     94 N          -7.0784  -26.1265  -50.4293 N.am      17 UNK        -0.5000 
     95 CA         -7.8104  -25.7975  -51.6539 C.3       17 UNK         0.1400 
     96 CB         -7.4243  -26.8025  -52.7560 C.3       17 UNK        -0.1800 
     97 C          -7.5831  -24.3556  -52.1420 C.2       17 UNK         0.5000 
     98 O          -8.2986  -23.9244  -53.0474 O.2       17 UNK        -0.5000 
     99 N          -6.5965  -23.6429  -51.5749 N.am      18 UNK        -0.5000 
    100 CA        -6.1211  -22.2937  -51.9126 C.3       18 UNK         0.1400 
    101 CB        -7.2157  -21.2325  -51.6922 C.3       18 UNK        -0.1800 
    102 C         -5.4990  -22.1710  -53.3152 C.2       18 UNK         0.5000 
    103 O         -4.3324  -21.7964  -53.4350 O.2       18 UNK        -0.5000 
    104 N         -6.2713  -22.5176  -54.3520 N.am      19 UNK        -0.5000 
    105 CA        -5.9379  -22.4072  -55.7754 C.3       19 UNK         0.1400 
    106 CB        -7.1448  -22.8721  -56.6031 C.3       19 UNK        -0.1800 
    107 C         -4.6683  -23.1689  -56.2020 C.2       19 UNK         0.5000 
    108 O         -4.0385  -22.7855  -57.1878 O.2       19 UNK        -0.5000 
    109 N         -4.2874  -24.1965  -55.4309 N.am      20 UNK        -0.5000 
    110 CA        -3.0440  -24.9528  -55.5859 C.3       20 UNK         0.1400 
    111 CB        -3.0676  -26.1514  -54.6238 C.3       20 UNK        -0.1800 
    112 C         -1.7653  -24.1066  -55.3925 C.2       20 UNK         0.5000 
    113 O         -0.7224  -24.4805  -55.9307 O.2       20 UNK        -0.5000 
    114 N         -1.8660  -22.9868  -54.6607 N.am      21 UNK        -0.5000 
    115 CA        -0.8053  -21.9870  -54.5216 C.3       21 UNK         0.1400 
    116 CB        -0.4412  -21.8180  -53.0385 C.3       21 UNK        -0.1800 
    117 C         -1.2385  -20.6371  -55.1164 C.2       21 UNK         0.5000 
    118 O         -0.4352  -19.9890  -55.7883 O.2       21 UNK        -0.5000 
    119 N         -2.4875  -20.2312  -54.8554 N.am      22 UNK        -0.5000 
    120 CA        -3.0371  -18.9175  -55.2260 C.3       22 UNK         0.1400 
    121 C         -3.5310  -18.7997  -56.6968 C.2       22 UNK         0.5000 
    122 N         -3.5937  -19.8685  -57.4806 N.am      22 UNK        -0.7600 
    123 O         -3.8546  -17.7035  -57.1454 O.2       22 UNK        -0.5000 
    124 C124       -4.1320  -18.4507  -54.2289 C.3       23 UNK        -0.0398 
    125 S125       -3.5360  -18.3901  -52.5035 S.3       23 UNK        -0.2404 
    126 C126       -2.8224  -16.7170  -52.4580 C.3       23 UNK        -0.0205 
    127 H127        1.6018   -7.9720  -49.3166 H         1 UNK         0.0600 
    128 H128        2.3614   -8.9618  -50.5680 H         1 UNK         0.0600 
    129 H129        0.6751   -9.2404  -50.1238 H         1 UNK         0.0600 
    130 H130        0.4030  -11.0230  -48.8161 H         1 UNK         0.3000 
    131 H131        2.6100  -12.2758  -47.4181 H         1 UNK         0.0600 
    132 H132        0.9529  -14.0911  -46.9774 H         1 UNK         0.0800 
    133 H133        1.2101  -13.7282  -48.6559 H         1 UNK         0.0800 
    134 H134       -1.2188  -15.3136  -47.0096 H         1 UNK         0.0800 
    135 H135       -2.6963  -14.8140  -47.7797 H         1 UNK         0.0800 
    136 H136       -3.1446  -15.3478  -50.1080 H         1 UNK         0.1150 
    137 H137       -0.3095  -17.7264  -52.2747 H         1 UNK         0.1150 
    138 H138        0.7112  -16.1562  -48.4217 H         1 UNK         0.1150 
    139 H139        2.1390  -17.4123  -51.4697 H         1 UNK         0.0800 
    140 H140        2.4266  -17.1691  -49.7670 H         1 UNK         0.0800 
    141 H141        0.9355  -18.5942  -48.0730 H         1 UNK         0.0800 
    142 H142        2.1896  -19.7871  -47.9285 H         1 UNK         0.0800 
    143 H143        0.5541  -21.5605  -48.6797 H         1 UNK         0.0600 
    144 H144        0.6224  -20.3079  -46.1329 H         1 UNK         0.3000 
    145 H145       -1.2482  -22.8564  -44.4220 H         1 UNK         0.0600 
    146 H146        0.8318  -22.7771  -43.0839 H         1 UNK         0.0600 
    147 H147        1.1349  -23.5826  -44.6161 H         1 UNK         0.0600 
    148 H148        1.6718  -21.9242  -44.3761 H         1 UNK         0.0600 
    149 H149       -0.1156  -20.4293  -43.4733 H         1 UNK         0.3000 
    150 H150       -3.0109  -18.3606  -43.9930 H         1 UNK         0.0600 
    151 H151       -3.3280  -19.6588  -41.8678 H         1 UNK         0.0600 
    152 H152       -2.6778  -18.0543  -41.5700 H         1 UNK         0.0600 
    153 H153       -1.6186  -19.4610  -41.4947 H         1 UNK         0.0600 
    154 H154       -0.5059  -17.7131  -42.8658 H         1 UNK         0.3000 
    155 H155        1.1089  -16.6874  -45.9361 H         1 UNK         0.0600 
    156 H156        0.1974  -15.3415  -43.3383 H         1 UNK         0.0600 
    157 H157       -0.2712  -14.8335  -44.9474 H         1 UNK         0.0600 
    158 H158        1.4120  -14.7279  -44.4533 H         1 UNK         0.0600 
    159 H159        2.1884  -16.8396  -43.3459 H         1 UNK         0.3000 
    160 H160        3.4024  -20.1979  -43.3937 H         1 UNK         0.0600 
    161 H161        5.0815  -18.8111  -44.5934 H         1 UNK         0.0600 
    162 H162        5.4810  -18.9202  -42.8857 H         1 UNK         0.0600 
    163 H163        4.7547  -17.4485  -43.5315 H         1 UNK         0.0600 
    164 H164        3.4428  -18.0169  -41.4975 H         1 UNK         0.3000 
    165 H165        0.5823  -19.0825  -39.6397 H         1 UNK         0.0600 
    166 H166        2.2919  -19.0480  -37.8524 H         1 UNK         0.0600 
    167 H167        2.5251  -20.4563  -38.8757 H         1 UNK         0.0600 
    168 H168        3.5906  -19.0663  -39.0454 H         1 UNK         0.0600 
    169 H169        2.4026  -16.8960  -39.3077 H         1 UNK         0.3000 
    170 H170        0.4769  -14.5049  -41.1479 H         1 UNK         0.0600 
    171 H171       -0.6524  -14.7631  -38.9296 H         1 UNK         0.0600 
    172 H172        0.9181  -14.8738  -38.1427 H         1 UNK         0.0600 
    173 H173        0.4371  -13.3858  -38.9575 H         1 UNK         0.0600 
    174 H174        2.6923  -13.8484  -39.7324 H         1 UNK         0.3000 
    175 H175        5.0761  -14.2225  -40.4123 H         1 UNK         0.0600 
    176 H176        5.1358  -14.3132  -43.4757 H         1 UNK         0.0600 
    177 H177        6.4979  -13.9126  -42.4309 H         1 UNK         0.0600 
    178 H178        5.8097  -15.5270  -42.3917 H         1 UNK         0.0600 
    179 H179        4.4159  -12.2010  -42.4427 H         1 UNK         0.3000 
    180 H180        3.2773   -9.8249  -40.0256 H         1 UNK         0.0600 
    181 H181        5.6624   -9.9679  -41.9385 H         1 UNK         0.0600 
    182 H182        5.7381   -9.6781  -40.2078 H         1 UNK         0.0600 
    183 H183        4.9630   -8.5011  -41.2562 H         1 UNK         0.0600 
    184 H184        2.0009   -9.5460  -41.7569 H         1 UNK         0.3000 
    185 H185        0.9312   -9.9631  -43.7926 H         1 UNK         0.0600 
    186 H186        2.0111   -7.7310  -43.4920 H         1 UNK         0.0600 
    187 H187        3.0457   -8.0208  -44.8852 H         1 UNK         0.0600 
    188 H188        1.3030   -7.8566  -45.0929 H         1 UNK         0.0600 
    189 H189        2.5720   -9.9890  -46.2518 H         1 UNK         0.3000 
    190 H190       -1.6334  -19.1219  -47.1796 H         1 UNK         0.3000 
    191 H191       -3.3341  -18.7773  -49.4144 H         1 UNK         0.0600 
    192 H192       -3.9159  -18.4611  -46.4229 H         1 UNK         0.0600 
    193 H193       -4.9083  -17.8185  -47.7278 H         1 UNK         0.0600 
    194 H194       -3.2758  -17.2174  -47.4939 H         1 UNK         0.0600 
    195 H195       -3.3736  -21.2505  -46.8328 H         1 UNK         0.3000 
    196 H196       -5.8733  -22.4652  -47.6907 H         1 UNK         0.0600 
    197 H197       -3.6124  -23.5224  -45.9109 H         1 UNK         0.0600 
    198 H198       -5.1937  -24.2698  -46.1086 H         1 UNK         0.0600 
    199 H199       -5.0608  -22.6858  -45.3575 H         1 UNK         0.0600 
    200 H200       -2.4112  -23.0481  -48.2793 H         1 UNK         0.3000 
    201 H201       -1.2322  -24.1857  -49.7381 H         1 UNK         0.0600 
    202 H202       -2.6772  -22.9632  -51.4334 H         1 UNK         0.0600 
    203 H203       -3.7119  -24.3726  -51.5471 H         1 UNK         0.0600 
    204 H204       -2.0148  -24.4729  -52.0281 H         1 UNK         0.0600 
    205 H205       -2.9612  -26.3482  -51.4311 H         1 UNK         0.3000 
    206 H206       -2.5216  -28.6058  -49.6083 H         1 UNK         0.0600 
    207 H207       -1.8636  -28.7229  -52.0193 H         1 UNK         0.0600 
    208 H208       -3.0588  -29.9426  -51.6168 H         1 UNK         0.0600 
    209 H209       -3.5469  -28.4968  -52.4940 H         1 UNK         0.0600 
    210 H210       -4.4101  -26.8103  -48.6070 H         1 UNK         0.3000 
    211 H211       -6.4303  -26.4923  -47.7607 H         1 UNK         0.0600 
    212 H212       -6.8959  -29.4949  -48.1726 H         1 UNK         0.0600 
    213 H213       -7.7866  -28.4413  -47.0830 H         1 UNK         0.0600 
    214 H214       -6.0876  -28.7687  -46.7844 H         1 UNK         0.0600 
    215 H215       -6.2033  -25.6452  -50.2576 H         1 UNK         0.3000 
    216 H216       -8.8818  -25.8848  -51.4620 H         1 UNK         0.0600 
    217 H217       -7.9537  -26.5931  -53.6865 H         1 UNK         0.0600 
    218 H218       -7.6744  -27.8233  -52.4664 H         1 UNK         0.0600 
    219 H219       -6.3552  -26.7699  -52.9697 H         1 UNK         0.0600 
    220 H220       -6.0949  -24.0527  -50.7934 H         1 UNK         0.3000 
    221 H221       -5.3150  -22.0875  -51.2087 H         1 UNK         0.0600 
    222 H222       -8.0587  -21.3565  -52.3719 H         1 UNK         0.0600 
    223 H223       -7.5980  -21.2726  -50.6723 H         1 UNK         0.0600 
    224 H224       -6.8153  -20.2296  -51.8473 H         1 UNK         0.0600 
    225 H225       -7.1925  -22.8862  -54.1271 H         1 UNK         0.3000 
    226 H226       -5.7646  -21.3501  -55.9854 H         1 UNK         0.0600 
    227 H227       -8.0276  -22.2708  -56.3848 H         1 UNK         0.0600 
    228 H228       -6.9468  -22.7806  -57.6719 H         1 UNK         0.0600 
    229 H229       -7.3912  -23.9153  -56.4009 H         1 UNK         0.0600 
    230 H230       -4.8701  -24.4342  -54.6428 H         1 UNK         0.3000 
    231 H231       -3.0182  -25.3395  -56.6068 H         1 UNK         0.0600 
    232 H232       -3.8851  -26.8314  -54.8643 H         1 UNK         0.0600 
    233 H233       -3.1920  -25.8361  -53.5895 H         1 UNK         0.0600 
    234 H234       -2.1418  -26.7251  -54.6856 H         1 UNK         0.0600 
    235 H235       -2.7661  -22.7452  -54.2605 H         1 UNK         0.3000 
    236 H236        0.0949  -22.3030  -55.0526 H         1 UNK         0.0600 
    237 H237        0.3878  -21.1198  -52.9168 H         1 UNK         0.0600 
    238 H238       -1.2797  -21.4244  -52.4634 H         1 UNK         0.0600 
    239 H239       -0.1381  -22.7647  -52.5916 H         1 UNK         0.0600 
    240 H240       -3.0918  -20.8041  -54.2711 H         1 UNK         0.3000 
    241 H241       -2.2206  -18.1972  -55.1514 H         1 UNK         0.0600 
    242 H242       -3.9064  -19.7578  -58.4319 H         1 UNK         0.3800 
    243 H243       -3.3613  -20.7937  -57.1439 H         1 UNK         0.3800 
    244 H244       -4.5126  -17.4639  -54.4988 H         1 UNK         0.0800 
    245 H245       -4.9883  -19.1256  -54.2681 H         1 UNK         0.0800 
    246 H246       -2.3036  -16.5088  -53.3946 H         1 UNK         0.0800 
    247 H247       -3.6278  -15.9849  -52.3819 H         1 UNK         0.0800 
@<TRIPOS>BOND
     1    1    2 1    
     2    1  127 1    
     3    1  128 1    
     4    1  129 1    
     5    2    3 2    
     6    2    4 am   BACKBONE|DICT|INTERRES
     7    4    5 1    
     8    4  130 1    
     9    5    6 1    
    10    5   65 1    
    11    5  131 1    
    12    6    7 1    
    13    6  132 1    
    14    6  133 1    
    15    7    8 1    
    16    8    9 1    
    17    8  134 1    
    18    8  135 1    
    19    9   10 ar   
    20    9   14 ar   
    21   10   11 ar   
    22   10  136 1    
    23   11   12 ar   
    24   11  126 1    
    25   12   13 ar   
    26   12  137 1    
    27   13   14 ar   
    28   13   15 1    
    29   14  138 1    
    30   15   16 1    
    31   15  139 1    
    32   15  140 1    
    33   16   17 1    
    34   17   18 1    
    35   17  141 1    
    36   17  142 1    
    37   18   19 1    
    38   18   67 1    
    39   18  143 1    
    40   19   20 am   BACKBONE|DICT|INTERRES
    41   19  144 1    
    42   20   21 2    
    43   20   22 1    
    44   22   23 1    
    45   22   24 1    
    46   22  145 1    
    47   23  146 1    
    48   23  147 1    
    49   23  148 1    
    50   24   25 am   BACKBONE|DICT|INTERRES
    51   24  149 1    
    52   25   26 2    
    53   25   27 1    
    54   27   28 1    
    55   27   29 1    
    56   27  150 1    
    57   28  151 1    
    58   28  152 1    
    59   28  153 1    
    60   29   30 am   BACKBONE|DICT|INTERRES
    61   29  154 1    
    62   30   31 2    
    63   30   32 1    
    64   32   33 1    
    65   32   34 1    
    66   32  155 1    
    67   33  156 1    
    68   33  157 1    
    69   33  158 1    
    70   34   35 am   BACKBONE|DICT|INTERRES
    71   34  159 1    
    72   35   36 2    
    73   35   37 1    
    74   37   38 1    
    75   37   39 1    
    76   37  160 1    
    77   38  161 1    
    78   38  162 1    
    79   38  163 1    
    80   39   40 am   BACKBONE|DICT|INTERRES
    81   39  164 1    
    82   40   41 2    
    83   40   42 1    
    84   42   43 1    
    85   42   44 1    
    86   42  165 1    
    87   43  166 1    
    88   43  167 1    
    89   43  168 1    
    90   44   45 am   BACKBONE|DICT|INTERRES
    91   44  169 1    
    92   45   46 2    
    93   45   47 1    
    94   47   48 1    
    95   47   49 1    
    96   47  170 1    
    97   48  171 1    
    98   48  172 1    
    99   48  173 1    
   100   49   50 am   BACKBONE|DICT|INTERRES
   101   49  174 1    
   102   50   51 2    
   103   50   52 1    
   104   52   53 1    
   105   52   54 1    
   106   52  175 1    
   107   53  176 1    
   108   53  177 1    
   109   53  178 1    
   110   54   55 am   BACKBONE|DICT|INTERRES
   111   54  179 1    
   112   55   56 2    
   113   55   57 1    
   114   57   58 1    
   115   57   59 1    
   116   57  180 1    
   117   58  181 1    
   118   58  182 1    
   119   58  183 1    
   120   59   60 am   BACKBONE|DICT|INTERRES
   121   59  184 1    
   122   60   61 2    
   123   60   62 1    
   124   62   63 1    
   125   62   64 1    
   126   62  185 1    
   127   63  186 1    
   128   63  187 1    
   129   63  188 1    
   130   64   65 am   BACKBONE|DICT|INTERRES
   131   64  189 1    
   132   65   66 2    
   133   67   68 2    
   134   67   69 am   BACKBONE|DICT|INTERRES
   135   69   70 1    
   136   69  190 1    
   137   70   71 1    
   138   70   72 1    
   139   70  191 1    
   140   71  192 1    
   141   71  193 1    
   142   71  194 1    
   143   72   73 2    
   144   72   74 am   BACKBONE|DICT|INTERRES
   145   74   75 1    
   146   74  195 1    
   147   75   76 1    
   148   75   77 1    
   149   75  196 1    
   150   76  197 1    
   151   76  198 1    
   152   76  199 1    
   153   77   78 2    
   154   77   79 am   BACKBONE|DICT|INTERRES
   155   79   80 1    
   156   79  200 1    
   157   80   81 1    
   158   80   82 1    
   159   80  201 1    
   160   81  202 1    
   161   81  203 1    
   162   81  204 1    
   163   82   83 2    
   164   82   84 am   BACKBONE|DICT|INTERRES
   165   84   85 1    
   166   84  205 1    
   167   85   86 1    
   168   85   87 1    
   169   85  206 1    
   170   86  207 1    
   171   86  208 1    
   172   86  209 1    
   173   87   88 2    
   174   87   89 am   BACKBONE|DICT|INTERRES
   175   89   90 1    
   176   89  210 1    
   177   90   91 1    
   178   90   92 1    
   179   90  211 1    
   180   91  212 1    
   181   91  213 1    
   182   91  214 1    
   183   92   93 2    
   184   92   94 am   BACKBONE|DICT|INTERRES
   185   94   95 1    
   186   94  215 1    
   187   95   96 1    
   188   95   97 1    
   189   95  216 1    
   190   96  217 1    
   191   96  218 1    
   192   96  219 1    
   193   97   98 2    
   194   97   99 am   BACKBONE|DICT|INTERRES
   195   99  100 1    
   196   99  220 1    
   197  100  101 1    
   198  100  102 1    
   199  100  221 1    
   200  101  222 1    
   201  101  223 1    
   202  101  224 1    
   203  102  103 2    
   204  102  104 am   BACKBONE|DICT|INTERRES
   205  104  105 1    
   206  104  225 1    
   207  105  106 1    
   208  105  107 1    
   209  105  226 1    
   210  106  227 1    
   211  106  228 1    
   212  106  229 1    
   213  107  108 2    
   214  107  109 am   BACKBONE|DICT|INTERRES
   215  109  110 1    
   216  109  230 1    
   217  110  111 1    
   218  110  112 1    
   219  110  231 1    
   220  111  232 1    
   221  111  233 1    
   222  111  234 1    
   223  112  113 2    
   224  112  114 am   BACKBONE|DICT|INTERRES
   225  114  115 1    
   226  114  235 1    
   227  115  116 1    
   228  115  117 1    
   229  115  236 1    
   230  116  237 1    
   231  116  238 1    
   232  116  239 1    
   233  117  118 2    
   234  117  119 am   BACKBONE|DICT|INTERRES
   235  119  120 1    
   236  119  240 1    
   237  120  121 1    
   238  120  124 1    
   239  120  241 1    
   240  121  122 am   BACKBONE|DICT|INTERRES
   241  121  123 2    
   242  122  242 1    
   243  122  243 1    
   244  124  125 1    
   245  124  244 1    
   246  124  245 1    
   247  125  126 1    
   248  126  246 1    
   249  126  247 1    
@<TRIPOS>SUBSTRUCTURE
     1 UNK         1 GROUP             0       ****    0 ROOT    
