@<TRIPOS>MOLECULE
3R540
247   249    1
SMALL
USER_CHARGES


@<TRIPOS>ATOM
      1 CA          0.0601  -11.1646  -49.4027 C.3       0 UNK        -0.1800 
      2 C           0.5455  -12.1792  -48.3783 C.2       0 UNK         0.5000 
      3 O           0.3590  -11.9739  -47.1795 O.2       0 UNK        -0.5000 
      4 N           1.1484  -13.2830  -48.8443 N.am      1 UNK        -0.5000 
      5 CA          1.7179  -14.3651  -48.0248 C.3       1 UNK         0.1400 
      6 C6          2.4365  -15.4181  -48.9069 C.3       23 UNK        -0.0398 
      7 S7          3.7915  -16.2687  -48.0302 S.3       23 UNK        -0.2404 
      8 C8          4.7031  -17.0322  -49.4094 C.3       23 UNK        -0.0205 
      9 C9          4.1360  -18.3941  -49.7826 C.ar      23 UNK        -0.0193 
     10 C10         3.0523  -18.4946  -50.6581 C.ar      23 UNK        -0.1150 
     11 C11         2.5303  -19.7445  -51.0008 C.ar      23 UNK        -0.0193 
     12 C12         3.1212  -20.9038  -50.4881 C.ar      23 UNK        -0.1150 
     13 C13         4.2104  -20.8187  -49.6128 C.ar      23 UNK        -0.0193 
     14 C14         4.7058  -19.5590  -49.2606 C.ar      23 UNK        -0.1150 
     15 C15         4.8940  -22.0732  -49.0750 C.3       23 UNK        -0.0205 
     16 S16         3.7532  -23.3201  -48.3888 S.3       23 UNK        -0.2404 
     17 C17         3.0700  -22.4681  -46.9250 C.3       23 UNK        -0.0398 
     18 CA          1.5673  -22.7845  -46.7202 C.3       11 UNK         0.1400 
     19 N           1.1172  -22.4369  -45.3724 N.am      11 UNK        -0.5000 
     20 C           0.2193  -23.1379  -44.6656 C.2       10 UNK         0.5000 
     21 O          -0.2367  -24.2242  -45.0239 O.2       10 UNK        -0.5000 
     22 CA         -0.2723  -22.5197  -43.3401 C.3       10 UNK         0.1400 
     23 CB          0.5647  -23.0336  -42.1592 C.3       10 UNK        -0.1800 
     24 N          -0.2554  -21.0564  -43.3438 N.am      10 UNK        -0.5000 
     25 C          -1.0064  -20.2863  -44.1436 C.2       9 UNK         0.5000 
     26 O          -1.8707  -20.7303  -44.8984 O.2       9 UNK        -0.5000 
     27 CA         -0.7266  -18.7721  -44.1229 C.3       9 UNK         0.1400 
     28 CB         -1.6856  -18.0660  -43.1548 C.3       9 UNK        -0.1800 
     29 N           0.6519  -18.4195  -43.7718 N.am      9 UNK        -0.5000 
     30 C           1.7546  -18.7835  -44.4430 C.2       8 UNK         0.5000 
     31 O           1.7436  -19.5031  -45.4404 O.2       8 UNK        -0.5000 
     32 CA          3.1009  -18.3422  -43.8469 C.3       8 UNK         0.1400 
     33 CB          3.3676  -16.8495  -44.0878 C.3       8 UNK        -0.1800 
     34 N           3.1523  -18.6293  -42.4152 N.am      8 UNK        -0.5000 
     35 C           3.3187  -19.8546  -41.8983 C.2       7 UNK         0.5000 
     36 O           3.5321  -20.8592  -42.5766 O.2       7 UNK        -0.5000 
     37 CA          3.2070  -19.9831  -40.3671 C.3       7 UNK         0.1400 
     38 CB          4.5866  -19.8212  -39.7116 C.3       7 UNK        -0.1800 
     39 N           2.2807  -19.0122  -39.7808 N.am      7 UNK        -0.5000 
     40 C           0.9502  -19.0342  -39.9454 C.2       6 UNK         0.5000 
     41 O           0.3547  -19.9003  -40.5852 O.2       6 UNK        -0.5000 
     42 CA          0.1651  -17.8563  -39.3350 C.3       6 UNK         0.1400 
     43 CB         -0.1501  -18.1231  -37.8557 C.3       6 UNK        -0.1800 
     44 N           0.8719  -16.5767  -39.4623 N.am      6 UNK        -0.5000 
     45 C           1.1575  -15.9947  -40.6337 C.2       5 UNK         0.5000 
     46 O           0.8302  -16.4665  -41.7249 O.2       5 UNK        -0.5000 
     47 CA          2.0022  -14.7166  -40.5904 C.3       5 UNK         0.1400 
     48 CB          3.4839  -15.0762  -40.3546 C.3       5 UNK        -0.1800 
     49 N           1.8360  -14.0264  -41.8660 N.am      5 UNK        -0.5000 
     50 C           2.2863  -12.8079  -42.1800 C.2       4 UNK         0.5000 
     51 O           2.9032  -12.0797  -41.4013 O.2       4 UNK        -0.5000 
     52 CA          1.9877  -12.3122  -43.6061 C.3       4 UNK         0.1400 
     53 CB          3.0506  -12.8183  -44.5929 C.3       4 UNK        -0.1800 
     54 N           0.6570  -12.6908  -44.0875 N.am      4 UNK        -0.5000 
     55 C          -0.4864  -12.1439  -43.6472 C.2       3 UNK         0.5000 
     56 O          -0.5301  -11.3281  -42.7249 O.2       3 UNK        -0.5000 
     57 CA         -1.7995  -12.5380  -44.3529 C.3       3 UNK         0.1400 
     58 CB         -2.5123  -11.2960  -44.9155 C.3       3 UNK        -0.1800 
     59 N          -1.5800  -13.4752  -45.4546 N.am      3 UNK        -0.5000 
     60 C          -2.0966  -14.7089  -45.5330 C.2       2 UNK         0.5000 
     61 O          -2.8462  -15.1863  -44.6815 O.2       2 UNK        -0.5000 
     62 CA         -1.7342  -15.5622  -46.7680 C.3       2 UNK         0.1400 
     63 CB         -2.9345  -15.6737  -47.7207 C.3       2 UNK        -0.1800 
     64 N          -0.5810  -15.0751  -47.5282 N.am      2 UNK        -0.5000 
     65 C           0.6816  -15.0187  -47.0803 C.2       1 UNK         0.5000 
     66 O           1.0184  -15.3843  -45.9550 O.2       1 UNK        -0.5000 
     67 C           0.6866  -22.0713  -47.7634 C.2       11 UNK         0.5000 
     68 O           0.2076  -22.7089  -48.7005 O.2       11 UNK        -0.5000 
     69 N           0.4890  -20.7604  -47.5828 N.am      12 UNK        -0.5000 
     70 CA         -0.2082  -19.8732  -48.5041 C.3       12 UNK         0.1400 
     71 CB          0.2600  -18.4336  -48.2489 C.3       12 UNK        -0.1800 
     72 C          -1.7370  -20.0265  -48.4483 C.2       12 UNK         0.5000 
     73 O          -2.4303  -19.1528  -47.9257 O.2       12 UNK        -0.5000 
     74 N          -2.2293  -21.1358  -49.0140 N.am      13 UNK        -0.5000 
     75 CA         -3.6510  -21.4201  -49.2101 C.3       13 UNK         0.1400 
     76 CB         -3.8095  -22.8737  -49.6763 C.3       13 UNK        -0.1800 
     77 C          -4.3144  -20.4294  -50.1900 C.2       13 UNK         0.5000 
     78 O          -5.4378  -19.9862  -49.9393 O.2       13 UNK        -0.5000 
     79 N          -3.5758  -20.0738  -51.2533 N.am      14 UNK        -0.5000 
     80 CA         -3.7292  -18.9074  -52.1288 C.3       14 UNK         0.1400 
     81 CB         -3.3164  -17.6377  -51.3559 C.3       14 UNK        -0.1800 
     82 C          -5.0994  -18.7590  -52.8194 C.2       14 UNK         0.5000 
     83 O          -5.5220  -17.6346  -53.0929 O.2       14 UNK        -0.5000 
     84 N          -5.7820  -19.8870  -53.0647 N.am      15 UNK        -0.5000 
     85 CA         -7.1464  -20.0003  -53.5995 C.3       15 UNK         0.1400 
     86 CB         -7.2547  -19.3925  -55.0131 C.3       15 UNK        -0.1800 
     87 C          -8.2432  -19.4832  -52.6417 C.2       15 UNK         0.5000 
     88 O          -9.4117  -19.4470  -53.0300 O.2       15 UNK        -0.5000 
     89 N          -7.8673  -19.1263  -51.4065 N.am      16 UNK        -0.5000 
     90 CA         -8.7718  -18.7248  -50.3353 C.3       16 UNK         0.1400 
     91 CB         -8.0917  -17.6572  -49.4622 C.3       16 UNK        -0.1800 
     92 C          -9.1647  -19.9568  -49.5093 C.2       16 UNK         0.5000 
     93 O         -10.3554  -20.2183  -49.3348 O.2       16 UNK        -0.5000 
     94 N          -8.1553  -20.7082  -49.0478 N.am      17 UNK        -0.5000 
     95 CA         -8.3389  -21.9798  -48.3480 C.3       17 UNK         0.1400 
     96 CB         -7.1922  -22.1854  -47.3472 C.3       17 UNK        -0.1800 
     97 C          -8.4142  -23.1536  -49.3390 C.2       17 UNK         0.5000 
     98 O          -9.2384  -24.0505  -49.1583 O.2       17 UNK        -0.5000 
     99 N          -7.5650  -23.1151  -50.3726 N.am      18 UNK        -0.5000 
    100 CA        -7.4477  -24.1031  -51.4393 C.3       18 UNK         0.1400 
    101 CB        -6.8481  -25.4196  -50.9067 C.3       18 UNK        -0.1800 
    102 C         -6.5448  -23.5162  -52.5301 C.2       18 UNK         0.5000 
    103 O         -5.6969  -22.6714  -52.2337 O.2       18 UNK        -0.5000 
    104 N         -6.7240  -23.9763  -53.7723 N.am      19 UNK        -0.5000 
    105 CA        -5.9128  -23.5684  -54.9253 C.3       19 UNK         0.1400 
    106 CB        -6.7575  -23.7179  -56.1998 C.3       19 UNK        -0.1800 
    107 C         -4.5928  -24.3580  -55.0480 C.2       19 UNK         0.5000 
    108 O         -3.7583  -24.0101  -55.8840 O.2       19 UNK        -0.5000 
    109 N         -4.4250  -25.4015  -54.2222 N.am      20 UNK        -0.5000 
    110 CA        -3.3014  -26.3429  -54.2256 C.3       20 UNK         0.1400 
    111 CB        -3.5793  -27.4377  -53.1833 C.3       20 UNK        -0.1800 
    112 C         -1.9156  -25.7121  -53.9804 C.2       20 UNK         0.5000 
    113 O         -0.9125  -26.2924  -54.3985 O.2       20 UNK        -0.5000 
    114 N         -1.8803  -24.5481  -53.3226 N.am      21 UNK        -0.5000 
    115 CA        -0.6789  -23.7609  -53.0849 C.3       21 UNK         0.1400 
    116 CB        -0.2409  -23.9227  -51.6219 C.3       21 UNK        -0.1800 
    117 C         -0.9977  -22.3041  -53.4342 C.2       21 UNK         0.5000 
    118 O         -1.6884  -21.6331  -52.6658 O.2       21 UNK        -0.5000 
    119 N         -0.4981  -21.8563  -54.5915 N.am      22 UNK        -0.5000 
    120 CA        -0.6525  -20.4994  -55.1496 C.3       22 UNK         0.1400 
    121 C         -2.0915  -20.1552  -55.6478 C.2       22 UNK         0.5000 
    122 N         -2.9747  -21.1190  -55.8726 N.am      22 UNK        -0.7600 
    123 O         -2.4153  -18.9898  -55.8589 O.2       22 UNK        -0.5000 
    124 C124       -0.0719  -19.3715  -54.2468 C.3       23 UNK        -0.0398 
    125 S125        1.6299  -19.6596  -53.6406 S.3       23 UNK        -0.2404 
    126 C126        1.2840  -19.8285  -51.8653 C.3       23 UNK        -0.0205 
    127 H127       -1.0171  -11.0259  -49.3105 H         1 UNK         0.0600 
    128 H128        0.2772  -11.4814  -50.4230 H         1 UNK         0.0600 
    129 H129        0.5441  -10.2026  -49.2342 H         1 UNK         0.0600 
    130 H130        1.2590  -13.3862  -49.8431 H         1 UNK         0.3000 
    131 H131        2.4669  -13.8887  -47.3898 H         1 UNK         0.0600 
    132 H132        1.7357  -16.1483  -49.3119 H         1 UNK         0.0800 
    133 H133        2.8833  -14.9255  -49.7716 H         1 UNK         0.0800 
    134 H134        5.7482  -17.1372  -49.1145 H         1 UNK         0.0800 
    135 H135        4.7043  -16.3720  -50.2778 H         1 UNK         0.0800 
    136 H136        2.6013  -17.5988  -51.0602 H         1 UNK         0.1150 
    137 H137        2.7240  -21.8725  -50.7568 H         1 UNK         0.1150 
    138 H138        5.5487  -19.4825  -48.5880 H         1 UNK         0.1150 
    139 H139        5.4555  -22.5311  -49.8901 H         1 UNK         0.0800 
    140 H140        5.6259  -21.8168  -48.3074 H         1 UNK         0.0800 
    141 H141        3.2431  -21.3923  -46.9912 H         1 UNK         0.0800 
    142 H142        3.6402  -22.8092  -46.0599 H         1 UNK         0.0800 
    143 H143        1.4373  -23.8594  -46.8655 H         1 UNK         0.0600 
    144 H144        1.4082  -21.5309  -45.0248 H         1 UNK         0.3000 
    145 H145       -1.3053  -22.8400  -43.1902 H         1 UNK         0.0600 
    146 H146        0.1861  -22.6524  -41.2106 H         1 UNK         0.0600 
    147 H147        0.5368  -24.1226  -42.1059 H         1 UNK         0.0600 
    148 H148        1.6098  -22.7365  -42.2473 H         1 UNK         0.0600 
    149 H149        0.3673  -20.6036  -42.6863 H         1 UNK         0.3000 
    150 H150       -0.9156  -18.3957  -45.1278 H         1 UNK         0.0600 
    151 H151       -2.7243  -18.2312  -43.4433 H         1 UNK         0.0600 
    152 H152       -1.5176  -16.9892  -43.1472 H         1 UNK         0.0600 
    153 H153       -1.5637  -18.4296  -42.1344 H         1 UNK         0.0600 
    154 H154        0.7575  -17.8007  -42.9709 H         1 UNK         0.3000 
    155 H155        3.8916  -18.9068  -44.3460 H         1 UNK         0.0600 
    156 H156        2.5977  -16.2184  -43.6468 H         1 UNK         0.0600 
    157 H157        3.3880  -16.6310  -45.1546 H         1 UNK         0.0600 
    158 H158        4.3297  -16.5456  -43.6759 H         1 UNK         0.0600 
    159 H159        2.9371  -17.8674  -41.7910 H         1 UNK         0.3000 
    160 H160        2.8368  -20.9864  -40.1452 H         1 UNK         0.0600 
    161 H161        5.0008  -18.8269  -39.8835 H         1 UNK         0.0600 
    162 H162        5.2963  -20.5464  -40.1120 H         1 UNK         0.0600 
    163 H163        4.5328  -19.9818  -38.6346 H         1 UNK         0.0600 
    164 H164        2.6863  -18.2673  -39.2340 H         1 UNK         0.3000 
    165 H165       -0.7807  -17.7738  -39.8743 H         1 UNK         0.0600 
    166 H166       -0.7748  -17.3337  -37.4373 H         1 UNK         0.0600 
    167 H167       -0.6919  -19.0623  -37.7359 H         1 UNK         0.0600 
    168 H168        0.7573  -18.1884  -37.2541 H         1 UNK         0.0600 
    169 H169        1.1735  -16.1376  -38.6042 H         1 UNK         0.3000 
    170 H170        1.6356  -14.0760  -39.7862 H         1 UNK         0.0600 
    171 H171        3.6116  -15.6475  -39.4345 H         1 UNK         0.0600 
    172 H172        3.8871  -15.6748  -41.1721 H         1 UNK         0.0600 
    173 H173        4.1039  -14.1851  -40.2597 H         1 UNK         0.0600 
    174 H174        1.3116  -14.5569  -42.5514 H         1 UNK         0.3000 
    175 H175        2.0428  -11.2215  -43.5908 H         1 UNK         0.0600 
    176 H176        3.0144  -13.9019  -44.7072 H         1 UNK         0.0600 
    177 H177        2.9135  -12.3697  -45.5767 H         1 UNK         0.0600 
    178 H178        4.0544  -12.5572  -44.2555 H         1 UNK         0.0600 
    179 H179        0.6180  -13.3787  -44.8273 H         1 UNK         0.3000 
    180 H180       -2.4402  -12.9814  -43.5884 H         1 UNK         0.0600 
    181 H181       -1.9012  -10.7886  -45.6633 H         1 UNK         0.0600 
    182 H182       -2.7345  -10.5760  -44.1270 H         1 UNK         0.0600 
    183 H183       -3.4596  -11.5647  -45.3834 H         1 UNK         0.0600 
    184 H184       -0.9718  -13.1418  -46.1960 H         1 UNK         0.3000 
    185 H185       -1.4993  -16.5620  -46.4039 H         1 UNK         0.0600 
    186 H186       -2.7150  -16.3438  -48.5521 H         1 UNK         0.0600 
    187 H187       -3.8067  -16.0785  -47.2059 H         1 UNK         0.0600 
    188 H188       -3.2146  -14.7033  -48.1323 H         1 UNK         0.0600 
    189 H189       -0.7743  -14.7131  -48.4503 H         1 UNK         0.3000 
    190 H190        0.9172  -20.3081  -46.7770 H         1 UNK         0.3000 
    191 H191        0.0926  -20.1409  -49.5136 H         1 UNK         0.0600 
    192 H192        0.0284  -18.1101  -47.2360 H         1 UNK         0.0600 
    193 H193       -0.2144  -17.7368  -48.9405 H         1 UNK         0.0600 
    194 H194        1.3384  -18.3474  -48.3762 H         1 UNK         0.0600 
    195 H195       -1.5678  -21.8314  -49.3406 H         1 UNK         0.3000 
    196 H196       -4.1397  -21.3107  -48.2406 H         1 UNK         0.0600 
    197 H197       -3.4025  -23.0242  -50.6768 H         1 UNK         0.0600 
    198 H198       -3.3053  -23.5649  -49.0007 H         1 UNK         0.0600 
    199 H199       -4.8593  -23.1593  -49.7015 H         1 UNK         0.0600 
    200 H200       -2.7483  -20.6298  -51.4542 H         1 UNK         0.3000 
    201 H201       -3.0146  -19.0468  -52.9386 H         1 UNK         0.0600 
    202 H202       -4.0172  -17.4162  -50.5499 H         1 UNK         0.0600 
    203 H203       -3.2802  -16.7669  -52.0113 H         1 UNK         0.0600 
    204 H204       -2.3256  -17.7492  -50.9150 H         1 UNK         0.0600 
    205 H205       -5.3742  -20.7640  -52.7524 H         1 UNK         0.3000 
    206 H206       -7.3420  -21.0651  -53.7069 H         1 UNK         0.0600 
    207 H207       -7.1809  -18.3051  -54.9984 H         1 UNK         0.0600 
    208 H208       -6.4716  -19.7751  -55.6676 H         1 UNK         0.0600 
    209 H209       -8.2110  -19.6444  -55.4727 H         1 UNK         0.0600 
    210 H210       -6.8916  -19.2325  -51.1508 H         1 UNK         0.3000 
    211 H211       -9.6800  -18.2878  -50.7559 H         1 UNK         0.0600 
    212 H212       -7.8533  -16.7687  -50.0470 H         1 UNK         0.0600 
    213 H213       -7.1640  -18.0197  -49.0178 H         1 UNK         0.0600 
    214 H214       -8.7466  -17.3452  -48.6478 H         1 UNK         0.0600 
    215 H215       -7.2016  -20.4186  -49.2442 H         1 UNK         0.3000 
    216 H216       -9.2725  -21.9547  -47.7817 H         1 UNK         0.0600 
    217 H217       -7.3360  -23.1027  -46.7750 H         1 UNK         0.0600 
    218 H218       -7.1375  -21.3621  -46.6348 H         1 UNK         0.0600 
    219 H219       -6.2284  -22.2611  -47.8472 H         1 UNK         0.0600 
    220 H220       -6.9308  -22.3332  -50.4721 H         1 UNK         0.3000 
    221 H221       -8.4384  -24.2877  -51.8593 H         1 UNK         0.0600 
    222 H222       -7.4826  -25.8714  -50.1447 H         1 UNK         0.0600 
    223 H223       -5.8612  -25.2654  -50.4690 H         1 UNK         0.0600 
    224 H224       -6.7408  -26.1541  -51.7056 H         1 UNK         0.0600 
    225 H225       -7.4419  -24.6653  -53.9486 H         1 UNK         0.3000 
    226 H226       -5.6442  -22.5149  -54.8241 H         1 UNK         0.0600 
    227 H227       -7.6617  -23.1112  -56.1454 H         1 UNK         0.0600 
    228 H228       -6.2022  -23.3901  -57.0797 H         1 UNK         0.0600 
    229 H229       -7.0559  -24.7536  -56.3665 H         1 UNK         0.0600 
    230 H230       -5.1661  -25.5998  -53.5682 H         1 UNK         0.3000 
    231 H231       -3.2708  -26.8094  -55.2122 H         1 UNK         0.0600 
    232 H232       -3.6586  -27.0231  -52.1774 H         1 UNK         0.0600 
    233 H233       -2.7794  -28.1794  -53.1706 H         1 UNK         0.0600 
    234 H234       -4.5064  -27.9675  -53.4031 H         1 UNK         0.0600 
    235 H235       -2.7512  -24.1178  -53.0436 H         1 UNK         0.3000 
    236 H236        0.1411  -24.0969  -53.7234 H         1 UNK         0.0600 
    237 H237       -1.0303  -23.6320  -50.9290 H         1 UNK         0.0600 
    238 H238        0.0271  -24.9564  -51.4036 H         1 UNK         0.0600 
    239 H239        0.6330  -23.3077  -51.4049 H         1 UNK         0.0600 
    240 H240        0.0369  -22.4937  -55.1635 H         1 UNK         0.3000 
    241 H241       -0.0510  -20.5058  -56.0589 H         1 UNK         0.0600 
    242 H242       -2.7484  -22.0966  -55.7492 H         1 UNK         0.3800 
    243 H243       -3.8839  -20.8641  -56.2201 H         1 UNK         0.3800 
    244 H244       -0.7371  -19.1948  -53.4023 H         1 UNK         0.0800 
    245 H245       -0.0509  -18.4308  -54.7994 H         1 UNK         0.0800 
    246 H246        0.5962  -19.0399  -51.5564 H         1 UNK         0.0800 
    247 H247        0.7691  -20.7731  -51.6909 H         1 UNK         0.0800 
@<TRIPOS>BOND
     1    1    2 1    
     2    1  127 1    
     3    1  128 1    
     4    1  129 1    
     5    2    3 2    
     6    2    4 am   BACKBONE|DICT|INTERRES
     7    4    5 1    
     8    4  130 1    
     9    5    6 1    
    10    5   65 1    
    11    5  131 1    
    12    6    7 1    
    13    6  132 1    
    14    6  133 1    
    15    7    8 1    
    16    8    9 1    
    17    8  134 1    
    18    8  135 1    
    19    9   10 ar   
    20    9   14 ar   
    21   10   11 ar   
    22   10  136 1    
    23   11   12 ar   
    24   11  126 1    
    25   12   13 ar   
    26   12  137 1    
    27   13   14 ar   
    28   13   15 1    
    29   14  138 1    
    30   15   16 1    
    31   15  139 1    
    32   15  140 1    
    33   16   17 1    
    34   17   18 1    
    35   17  141 1    
    36   17  142 1    
    37   18   19 1    
    38   18   67 1    
    39   18  143 1    
    40   19   20 am   BACKBONE|DICT|INTERRES
    41   19  144 1    
    42   20   21 2    
    43   20   22 1    
    44   22   23 1    
    45   22   24 1    
    46   22  145 1    
    47   23  146 1    
    48   23  147 1    
    49   23  148 1    
    50   24   25 am   BACKBONE|DICT|INTERRES
    51   24  149 1    
    52   25   26 2    
    53   25   27 1    
    54   27   28 1    
    55   27   29 1    
    56   27  150 1    
    57   28  151 1    
    58   28  152 1    
    59   28  153 1    
    60   29   30 am   BACKBONE|DICT|INTERRES
    61   29  154 1    
    62   30   31 2    
    63   30   32 1    
    64   32   33 1    
    65   32   34 1    
    66   32  155 1    
    67   33  156 1    
    68   33  157 1    
    69   33  158 1    
    70   34   35 am   BACKBONE|DICT|INTERRES
    71   34  159 1    
    72   35   36 2    
    73   35   37 1    
    74   37   38 1    
    75   37   39 1    
    76   37  160 1    
    77   38  161 1    
    78   38  162 1    
    79   38  163 1    
    80   39   40 am   BACKBONE|DICT|INTERRES
    81   39  164 1    
    82   40   41 2    
    83   40   42 1    
    84   42   43 1    
    85   42   44 1    
    86   42  165 1    
    87   43  166 1    
    88   43  167 1    
    89   43  168 1    
    90   44   45 am   BACKBONE|DICT|INTERRES
    91   44  169 1    
    92   45   46 2    
    93   45   47 1    
    94   47   48 1    
    95   47   49 1    
    96   47  170 1    
    97   48  171 1    
    98   48  172 1    
    99   48  173 1    
   100   49   50 am   BACKBONE|DICT|INTERRES
   101   49  174 1    
   102   50   51 2    
   103   50   52 1    
   104   52   53 1    
   105   52   54 1    
   106   52  175 1    
   107   53  176 1    
   108   53  177 1    
   109   53  178 1    
   110   54   55 am   BACKBONE|DICT|INTERRES
   111   54  179 1    
   112   55   56 2    
   113   55   57 1    
   114   57   58 1    
   115   57   59 1    
   116   57  180 1    
   117   58  181 1    
   118   58  182 1    
   119   58  183 1    
   120   59   60 am   BACKBONE|DICT|INTERRES
   121   59  184 1    
   122   60   61 2    
   123   60   62 1    
   124   62   63 1    
   125   62   64 1    
   126   62  185 1    
   127   63  186 1    
   128   63  187 1    
   129   63  188 1    
   130   64   65 am   BACKBONE|DICT|INTERRES
   131   64  189 1    
   132   65   66 2    
   133   67   68 2    
   134   67   69 am   BACKBONE|DICT|INTERRES
   135   69   70 1    
   136   69  190 1    
   137   70   71 1    
   138   70   72 1    
   139   70  191 1    
   140   71  192 1    
   141   71  193 1    
   142   71  194 1    
   143   72   73 2    
   144   72   74 am   BACKBONE|DICT|INTERRES
   145   74   75 1    
   146   74  195 1    
   147   75   76 1    
   148   75   77 1    
   149   75  196 1    
   150   76  197 1    
   151   76  198 1    
   152   76  199 1    
   153   77   78 2    
   154   77   79 am   BACKBONE|DICT|INTERRES
   155   79   80 1    
   156   79  200 1    
   157   80   81 1    
   158   80   82 1    
   159   80  201 1    
   160   81  202 1    
   161   81  203 1    
   162   81  204 1    
   163   82   83 2    
   164   82   84 am   BACKBONE|DICT|INTERRES
   165   84   85 1    
   166   84  205 1    
   167   85   86 1    
   168   85   87 1    
   169   85  206 1    
   170   86  207 1    
   171   86  208 1    
   172   86  209 1    
   173   87   88 2    
   174   87   89 am   BACKBONE|DICT|INTERRES
   175   89   90 1    
   176   89  210 1    
   177   90   91 1    
   178   90   92 1    
   179   90  211 1    
   180   91  212 1    
   181   91  213 1    
   182   91  214 1    
   183   92   93 2    
   184   92   94 am   BACKBONE|DICT|INTERRES
   185   94   95 1    
   186   94  215 1    
   187   95   96 1    
   188   95   97 1    
   189   95  216 1    
   190   96  217 1    
   191   96  218 1    
   192   96  219 1    
   193   97   98 2    
   194   97   99 am   BACKBONE|DICT|INTERRES
   195   99  100 1    
   196   99  220 1    
   197  100  101 1    
   198  100  102 1    
   199  100  221 1    
   200  101  222 1    
   201  101  223 1    
   202  101  224 1    
   203  102  103 2    
   204  102  104 am   BACKBONE|DICT|INTERRES
   205  104  105 1    
   206  104  225 1    
   207  105  106 1    
   208  105  107 1    
   209  105  226 1    
   210  106  227 1    
   211  106  228 1    
   212  106  229 1    
   213  107  108 2    
   214  107  109 am   BACKBONE|DICT|INTERRES
   215  109  110 1    
   216  109  230 1    
   217  110  111 1    
   218  110  112 1    
   219  110  231 1    
   220  111  232 1    
   221  111  233 1    
   222  111  234 1    
   223  112  113 2    
   224  112  114 am   BACKBONE|DICT|INTERRES
   225  114  115 1    
   226  114  235 1    
   227  115  116 1    
   228  115  117 1    
   229  115  236 1    
   230  116  237 1    
   231  116  238 1    
   232  116  239 1    
   233  117  118 2    
   234  117  119 am   BACKBONE|DICT|INTERRES
   235  119  120 1    
   236  119  240 1    
   237  120  121 1    
   238  120  124 1    
   239  120  241 1    
   240  121  122 am   BACKBONE|DICT|INTERRES
   241  121  123 2    
   242  122  242 1    
   243  122  243 1    
   244  124  125 1    
   245  124  244 1    
   246  124  245 1    
   247  125  126 1    
   248  126  246 1    
   249  126  247 1    
@<TRIPOS>SUBSTRUCTURE
     1 UNK         1 GROUP             0       ****    0 ROOT    
