@<TRIPOS>MOLECULE
3R540
247   249    1
SMALL
USER_CHARGES


@<TRIPOS>ATOM
      1 CA         -4.2474  -13.8776  -50.3353 C.3       0 UNK        -0.1800 
      2 C          -2.7761  -13.9401  -50.7191 C.2       0 UNK         0.5000 
      3 O          -2.2867  -13.0264  -51.3841 O.2       0 UNK        -0.5000 
      4 N          -2.0649  -15.0007  -50.3120 N.am      1 UNK        -0.5000 
      5 CA         -0.6260  -15.1922  -50.5339 C.3       1 UNK         0.1400 
      6 C6         -0.2036  -16.6848  -50.4589 C.3       23 UNK        -0.0398 
      7 S7         -0.5134  -17.5478  -48.8777 S.3       23 UNK        -0.2404 
      8 C8         -0.5259  -19.2936  -49.3906 C.3       23 UNK        -0.0205 
      9 C9          0.8164  -19.7640  -49.9379 C.ar      23 UNK        -0.0193 
     10 C10         1.0986  -19.6248  -51.2994 C.ar      23 UNK        -0.1150 
     11 C11         2.3206  -20.0561  -51.8258 C.ar      23 UNK        -0.0193 
     12 C12         3.2588  -20.6329  -50.9681 C.ar      23 UNK        -0.1150 
     13 C13         3.0033  -20.7809  -49.6023 C.ar      23 UNK        -0.0193 
     14 C14         1.7687  -20.3481  -49.0938 C.ar      23 UNK        -0.1150 
     15 C15         4.1066  -21.4063  -48.7444 C.3       23 UNK        -0.0205 
     16 S16         3.9663  -21.1504  -46.9442 S.3       23 UNK        -0.2404 
     17 C17         2.9994  -22.6085  -46.4209 C.3       23 UNK        -0.0398 
     18 CA          3.5707  -23.2344  -45.1241 C.3       11 UNK         0.1400 
     19 N           3.4079  -22.3335  -43.9788 N.am      11 UNK        -0.5000 
     20 C           4.0015  -22.4663  -42.7860 C.2       10 UNK         0.5000 
     21 O           4.7935  -23.3678  -42.5092 O.2       10 UNK        -0.5000 
     22 CA          3.6306  -21.4219  -41.7177 C.3       10 UNK         0.1400 
     23 CB          4.4290  -20.1237  -41.9155 C.3       10 UNK        -0.1800 
     24 N           2.1984  -21.1198  -41.7237 N.am      10 UNK        -0.5000 
     25 C           1.2570  -21.9167  -41.1994 C.2       9 UNK         0.5000 
     26 O           1.5037  -22.9728  -40.6163 O.2       9 UNK        -0.5000 
     27 CA         -0.2094  -21.4700  -41.3596 C.3       9 UNK         0.1400 
     28 CB         -0.6071  -20.5200  -40.2200 C.3       9 UNK        -0.1800 
     29 N          -0.4855  -20.8266  -42.6448 N.am      9 UNK        -0.5000 
     30 C          -0.4034  -21.4370  -43.8355 C.2       8 UNK         0.5000 
     31 O          -0.1277  -22.6279  -43.9760 O.2       8 UNK        -0.5000 
     32 CA         -0.6137  -20.5603  -45.0833 C.3       8 UNK         0.1400 
     33 CB         -2.1099  -20.3972  -45.3783 C.3       8 UNK        -0.1800 
     34 N           0.0078  -19.2382  -44.9829 N.am      8 UNK        -0.5000 
     35 C           1.3048  -19.0087  -44.7373 C.2       7 UNK         0.5000 
     36 O           2.1292  -19.8977  -44.5428 O.2       7 UNK        -0.5000 
     37 CA          1.7412  -17.5426  -44.6116 C.3       7 UNK         0.1400 
     38 CB          1.8342  -16.8640  -45.9876 C.3       7 UNK        -0.1800 
     39 N           0.8375  -16.8060  -43.7281 N.am      7 UNK        -0.5000 
     40 C           0.8349  -16.9339  -42.3927 C.2       6 UNK         0.5000 
     41 O           1.6597  -17.6045  -41.7710 O.2       6 UNK        -0.5000 
     42 CA         -0.2928  -16.2253  -41.6179 C.3       6 UNK         0.1400 
     43 CB          0.1296  -14.8102  -41.2008 C.3       6 UNK        -0.1800 
     44 N          -1.5452  -16.1536  -42.3704 N.am      6 UNK        -0.5000 
     45 C          -2.3315  -17.2106  -42.6175 C.2       5 UNK         0.5000 
     46 O          -2.0898  -18.3492  -42.2179 O.2       5 UNK        -0.5000 
     47 CA         -3.5690  -16.9654  -43.5031 C.3       5 UNK         0.1400 
     48 CB         -4.7659  -16.5219  -42.6499 C.3       5 UNK        -0.1800 
     49 N          -3.3491  -15.9878  -44.5722 N.am      5 UNK        -0.5000 
     50 C          -2.3958  -16.0773  -45.5093 C.2       4 UNK         0.5000 
     51 O          -1.5744  -16.9909  -45.5504 O.2       4 UNK        -0.5000 
     52 CA         -2.3214  -14.9690  -46.5709 C.3       4 UNK         0.1400 
     53 CB         -3.5816  -14.0804  -46.6526 C.3       4 UNK        -0.1800 
     54 N          -1.1213  -14.1477  -46.4066 N.am      4 UNK        -0.5000 
     55 C          -0.7783  -13.3946  -45.3492 C.2       3 UNK         0.5000 
     56 O          -1.4005  -13.3821  -44.2860 O.2       3 UNK        -0.5000 
     57 CA          0.4618  -12.4862  -45.5057 C.3       3 UNK         0.1400 
     58 CB          1.6247  -12.9742  -44.6291 C.3       3 UNK        -0.1800 
     59 N           0.9204  -12.3848  -46.8933 N.am      3 UNK        -0.5000 
     60 C           0.3269  -11.6518  -47.8449 C.2       2 UNK         0.5000 
     61 O          -0.6201  -10.8936  -47.6334 O.2       2 UNK        -0.5000 
     62 CA          0.8488  -11.8256  -49.2841 C.3       2 UNK         0.1400 
     63 CB          2.3868  -11.9359  -49.3667 C.3       2 UNK        -0.1800 
     64 N           0.1942  -12.9458  -49.9695 N.am      2 UNK        -0.5000 
     65 C           0.2245  -14.2473  -49.6484 C.2       1 UNK         0.5000 
     66 O           0.8529  -14.6869  -48.6854 O.2       1 UNK        -0.5000 
     67 C           2.9469  -24.6237  -44.8726 C.2       11 UNK         0.5000 
     68 O           3.4367  -25.6096  -45.4244 O.2       11 UNK        -0.5000 
     69 N           1.8791  -24.6697  -44.0607 N.am      12 UNK        -0.5000 
     70 CA          1.0562  -25.8353  -43.7133 C.3       12 UNK         0.1400 
     71 CB          1.8852  -26.9065  -42.9750 C.3       12 UNK        -0.1800 
     72 C           0.2632  -26.4057  -44.9107 C.2       12 UNK         0.5000 
     73 O          -0.1883  -27.5512  -44.8632 O.2       12 UNK        -0.5000 
     74 N           0.0908  -25.5869  -45.9524 N.am      13 UNK        -0.5000 
     75 CA         -0.6156  -25.8623  -47.1949 C.3       13 UNK         0.1400 
     76 CB          0.1824  -26.8490  -48.0675 C.3       13 UNK        -0.1800 
     77 C          -0.7952  -24.5212  -47.9164 C.2       13 UNK         0.5000 
     78 O           0.0521  -23.6358  -47.7684 O.2       13 UNK        -0.5000 
     79 N          -1.8838  -24.3962  -48.6792 N.am      14 UNK        -0.5000 
     80 CA         -2.2732  -23.2059  -49.4286 C.3       14 UNK         0.1400 
     81 CB         -2.6415  -22.0614  -48.4637 C.3       14 UNK        -0.1800 
     82 C          -3.4768  -23.5502  -50.3174 C.2       14 UNK         0.5000 
     83 O          -4.0401  -24.6432  -50.2004 O.2       14 UNK        -0.5000 
     84 N          -3.8716  -22.5889  -51.1589 N.am      15 UNK        -0.5000 
     85 CA         -5.1416  -22.5951  -51.8820 C.3       15 UNK         0.1400 
     86 CB         -5.0402  -21.5978  -53.0456 C.3       15 UNK        -0.1800 
     87 C          -6.3124  -22.2193  -50.9517 C.2       15 UNK         0.5000 
     88 O          -6.0920  -21.7841  -49.8169 O.2       15 UNK        -0.5000 
     89 N          -7.5431  -22.3562  -51.4640 N.am      16 UNK        -0.5000 
     90 CA         -8.7805  -21.9397  -50.7986 C.3       16 UNK         0.1400 
     91 CB         -9.9745  -22.2372  -51.7180 C.3       16 UNK        -0.1800 
     92 C          -8.7501  -20.4480  -50.4122 C.2       16 UNK         0.5000 
     93 O          -8.3508  -19.6170  -51.2305 O.2       16 UNK        -0.5000 
     94 N          -9.1219  -20.1548  -49.1584 N.am      17 UNK        -0.5000 
     95 CA         -9.0649  -18.8382  -48.5065 C.3       17 UNK         0.1400 
     96 CB        -10.0442  -17.8514  -49.1772 C.3       17 UNK        -0.1800 
     97 C          -7.6346  -18.2603  -48.3785 C.2       17 UNK         0.5000 
     98 O          -7.4828  -17.0476  -48.2240 O.2       17 UNK        -0.5000 
     99 N          -6.6171  -19.1361  -48.4379 N.am      18 UNK        -0.5000 
    100 CA        -5.1806  -18.8403  -48.4022 C.3       18 UNK         0.1400 
    101 CB        -4.7654  -18.2810  -47.0281 C.3       18 UNK        -0.1800 
    102 C         -4.7114  -17.9608  -49.5805 C.2       18 UNK         0.5000 
    103 O         -3.8298  -17.1173  -49.4099 O.2       18 UNK        -0.5000 
    104 N         -5.3347  -18.1565  -50.7505 N.am      19 UNK        -0.5000 
    105 CA        -5.0988  -17.3829  -51.9664 C.3       19 UNK         0.1400 
    106 CB        -6.1941  -17.7228  -52.9900 C.3       19 UNK        -0.1800 
    107 C         -3.7003  -17.5888  -52.5800 C.2       19 UNK         0.5000 
    108 O         -3.0503  -18.6144  -52.3587 O.2       19 UNK        -0.5000 
    109 N         -3.3031  -16.6208  -53.4160 N.am      20 UNK        -0.5000 
    110 CA        -2.0420  -16.5773  -54.1641 C.3       20 UNK         0.1400 
    111 CB        -1.8344  -15.1450  -54.6827 C.3       20 UNK        -0.1800 
    112 C         -1.9287  -17.6099  -55.3087 C.2       20 UNK         0.5000 
    113 O         -0.9153  -17.6238  -56.0072 O.2       20 UNK        -0.5000 
    114 N         -2.9502  -18.4604  -55.4826 N.am      21 UNK        -0.5000 
    115 CA        -2.9260  -19.6327  -56.3595 C.3       21 UNK         0.1400 
    116 CB        -4.3644  -20.1314  -56.5664 C.3       21 UNK        -0.1800 
    117 C         -2.0151  -20.7628  -55.8293 C.2       21 UNK         0.5000 
    118 O         -1.5615  -21.5832  -56.6284 O.2       21 UNK        -0.5000 
    119 N         -1.7393  -20.7548  -54.5149 N.am      22 UNK        -0.5000 
    120 CA        -0.8024  -21.6389  -53.7967 C.3       22 UNK         0.1400 
    121 C         -1.2779  -23.1162  -53.6566 C.2       22 UNK         0.5000 
    122 N         -0.6040  -23.9093  -52.8330 N.am      22 UNK        -0.7600 
    123 O         -2.2483  -23.5610  -54.2636 O.2       22 UNK        -0.5000 
    124 C124        0.6552  -21.5589  -54.3418 C.3       23 UNK        -0.0398 
    125 S125        1.2895  -19.8492  -54.4609 S.3       23 UNK        -0.2404 
    126 C126        2.6918  -19.8718  -53.2964 C.3       23 UNK        -0.0205 
    127 H127       -4.8722  -13.9728  -51.2227 H         1 UNK         0.0600 
    128 H128       -4.4687  -12.9184  -49.8676 H         1 UNK         0.0600 
    129 H129       -4.5235  -14.6613  -49.6316 H         1 UNK         0.0600 
    130 H130       -2.5358  -15.7530  -49.8125 H         1 UNK         0.3000 
    131 H131       -0.4228  -14.8889  -51.5635 H         1 UNK         0.0600 
    132 H132        0.8566  -16.7832  -50.6972 H         1 UNK         0.0800 
    133 H133       -0.7375  -17.2311  -51.2354 H         1 UNK         0.0800 
    134 H134       -0.7897  -19.8901  -48.5187 H         1 UNK         0.0800 
    135 H135       -1.3158  -19.4499  -50.1272 H         1 UNK         0.0800 
    136 H136        0.3640  -19.1674  -51.9453 H         1 UNK         0.1150 
    137 H137        4.2102  -20.9579  -51.3665 H         1 UNK         0.1150 
    138 H138        1.5407  -20.4545  -48.0433 H         1 UNK         0.1150 
    139 H139        4.1781  -22.4708  -48.9699 H         1 UNK         0.0800 
    140 H140        5.0614  -20.9736  -49.0471 H         1 UNK         0.0800 
    141 H141        1.9616  -22.3044  -46.2776 H         1 UNK         0.0800 
    142 H142        2.9896  -23.3410  -47.2298 H         1 UNK         0.0800 
    143 H143        4.6414  -23.3955  -45.2668 H         1 UNK         0.0600 
    144 H144        2.8348  -21.5068  -44.1423 H         1 UNK         0.3000 
    145 H145        3.8962  -21.8321  -40.7410 H         1 UNK         0.0600 
    146 H146        4.1966  -19.3965  -41.1373 H         1 UNK         0.0600 
    147 H147        4.2180  -19.6587  -42.8788 H         1 UNK         0.0600 
    148 H148        5.5016  -20.3163  -41.8728 H         1 UNK         0.0600 
    149 H149        1.9135  -20.2852  -42.2190 H         1 UNK         0.3000 
    150 H150       -0.8348  -22.3626  -41.2927 H         1 UNK         0.0600 
    151 H151       -0.4069  -20.9690  -39.2463 H         1 UNK         0.0600 
    152 H152       -1.6711  -20.2860  -40.2561 H         1 UNK         0.0600 
    153 H153       -0.0557  -19.5800  -40.2700 H         1 UNK         0.0600 
    154 H154       -0.7829  -19.8567  -42.6125 H         1 UNK         0.3000 
    155 H155       -0.1533  -21.0739  -45.9294 H         1 UNK         0.0600 
    156 H156       -2.6017  -21.3667  -45.4656 H         1 UNK         0.0600 
    157 H157       -2.2632  -19.8657  -46.3163 H         1 UNK         0.0600 
    158 H158       -2.6169  -19.8432  -44.5893 H         1 UNK         0.0600 
    159 H159       -0.5987  -18.4361  -45.1490 H         1 UNK         0.3000 
    160 H160        2.7427  -17.5370  -44.1755 H         1 UNK         0.0600 
    161 H161        0.8532  -16.6408  -46.4038 H         1 UNK         0.0600 
    162 H162        2.3534  -17.5006  -46.7058 H         1 UNK         0.0600 
    163 H163        2.3914  -15.9307  -45.9319 H         1 UNK         0.0600 
    164 H164        0.0696  -16.3213  -44.1721 H         1 UNK         0.3000 
    165 H165       -0.4737  -16.8024  -40.7082 H         1 UNK         0.0600 
    166 H166       -0.6106  -14.3583  -40.5404 H         1 UNK         0.0600 
    167 H167        1.0792  -14.8244  -40.6643 H         1 UNK         0.0600 
    168 H168        0.2465  -14.1579  -42.0646 H         1 UNK         0.0600 
    169 H169       -1.7927  -15.2570  -42.7693 H         1 UNK         0.3000 
    170 H170       -3.8264  -17.9134  -43.9779 H         1 UNK         0.0600 
    171 H171       -4.9674  -17.2421  -41.8557 H         1 UNK         0.0600 
    172 H172       -4.5880  -15.5542  -42.1791 H         1 UNK         0.0600 
    173 H173       -5.6714  -16.4424  -43.2518 H         1 UNK         0.0600 
    174 H174       -3.9650  -15.1884  -44.5889 H         1 UNK         0.3000 
    175 H175       -2.2197  -15.4786  -47.5285 H         1 UNK         0.0600 
    176 H176       -3.4905  -13.3574  -47.4629 H         1 UNK         0.0600 
    177 H177       -4.4705  -14.6794  -46.8553 H         1 UNK         0.0600 
    178 H178       -3.7564  -13.5185  -45.7347 H         1 UNK         0.0600 
    179 H179       -0.4748  -14.1689  -47.1875 H         1 UNK         0.3000 
    180 H180        0.1799  -11.4882  -45.1640 H         1 UNK         0.0600 
    181 H181        2.5253  -12.3840  -44.7995 H         1 UNK         0.0600 
    182 H182        1.8660  -14.0190  -44.8178 H         1 UNK         0.0600 
    183 H183        1.3781  -12.8787  -43.5725 H         1 UNK         0.0600 
    184 H184        1.6407  -13.0338  -47.1812 H         1 UNK         0.3000 
    185 H185        0.5604  -10.9250  -49.8285 H         1 UNK         0.0600 
    186 H186        2.7208  -11.9217  -50.4042 H         1 UNK         0.0600 
    187 H187        2.8641  -11.0945  -48.8629 H         1 UNK         0.0600 
    188 H188        2.7698  -12.8494  -48.9119 H         1 UNK         0.0600 
    189 H189       -0.4540  -12.6824  -50.7063 H         1 UNK         0.3000 
    190 H190        1.5065  -23.7849  -43.7314 H         1 UNK         0.3000 
    191 H191        0.3068  -25.4643  -43.0127 H         1 UNK         0.0600 
    192 H192        1.2408  -27.6849  -42.5652 H         1 UNK         0.0600 
    193 H193        2.4368  -26.4714  -42.1414 H         1 UNK         0.0600 
    194 H194        2.6023  -27.3935  -43.6359 H         1 UNK         0.0600 
    195 H195        0.4590  -24.6450  -45.8977 H         1 UNK         0.3000 
    196 H196       -1.5968  -26.2799  -46.9607 H         1 UNK         0.0600 
    197 H197       -0.3186  -27.0212  -49.0207 H         1 UNK         0.0600 
    198 H198        0.2897  -27.8180  -47.5804 H         1 UNK         0.0600 
    199 H199        1.1826  -26.4712  -48.2842 H         1 UNK         0.0600 
    200 H200       -2.5294  -25.1696  -48.7887 H         1 UNK         0.3000 
    201 H201       -1.4408  -22.9019  -50.0666 H         1 UNK         0.0600 
    202 H202       -3.5080  -22.3144  -47.8513 H         1 UNK         0.0600 
    203 H203       -2.8788  -21.1497  -49.0100 H         1 UNK         0.0600 
    204 H204       -1.8184  -21.8245  -47.7935 H         1 UNK         0.0600 
    205 H205       -3.3751  -21.7112  -51.1602 H         1 UNK         0.3000 
    206 H206       -5.3247  -23.5934  -52.2849 H         1 UNK         0.0600 
    207 H207       -4.2608  -21.8932  -53.7455 H         1 UNK         0.0600 
    208 H208       -5.9711  -21.5411  -53.6105 H         1 UNK         0.0600 
    209 H209       -4.8084  -20.5952  -52.6896 H         1 UNK         0.0600 
    210 H210       -7.6412  -22.6936  -52.4101 H         1 UNK         0.3000 
    211 H211       -8.8839  -22.5400  -49.8924 H         1 UNK         0.0600 
    212 H212       -9.9060  -21.6855  -52.6566 H         1 UNK         0.0600 
    213 H213      -10.9142  -21.9564  -51.2404 H         1 UNK         0.0600 
    214 H214      -10.0364  -23.2993  -51.9555 H         1 UNK         0.0600 
    215 H215       -9.4204  -20.9139  -48.5610 H         1 UNK         0.3000 
    216 H216       -9.4114  -18.9953  -47.4841 H         1 UNK         0.0600 
    217 H217      -10.1331  -16.9323  -48.5970 H         1 UNK         0.0600 
    218 H218      -11.0434  -18.2795  -49.2571 H         1 UNK         0.0600 
    219 H219       -9.7170  -17.5723  -50.1792 H         1 UNK         0.0600 
    220 H220       -6.8390  -20.1088  -48.6157 H         1 UNK         0.3000 
    221 H221       -4.6765  -19.7974  -48.5266 H         1 UNK         0.0600 
    222 H222       -3.6831  -18.1748  -46.9750 H         1 UNK         0.0600 
    223 H223       -5.1982  -17.2989  -46.8374 H         1 UNK         0.0600 
    224 H224       -5.0661  -18.9471  -46.2197 H         1 UNK         0.0600 
    225 H225       -6.0662  -18.8529  -50.7955 H         1 UNK         0.3000 
    226 H226       -5.1959  -16.3287  -51.7036 H         1 UNK         0.0600 
    227 H227       -7.1826  -17.4842  -52.5967 H         1 UNK         0.0600 
    228 H228       -6.0721  -17.1527  -53.9117 H         1 UNK         0.0600 
    229 H229       -6.1913  -18.7799  -53.2552 H         1 UNK         0.0600 
    230 H230       -3.9210  -15.8373  -53.5708 H         1 UNK         0.3000 
    231 H231       -1.2317  -16.8021  -53.4695 H         1 UNK         0.0600 
    232 H232       -0.8747  -15.0441  -55.1911 H         1 UNK         0.0600 
    233 H233       -1.8404  -14.4239  -53.8651 H         1 UNK         0.0600 
    234 H234       -2.6128  -14.8579  -55.3905 H         1 UNK         0.0600 
    235 H235       -3.7482  -18.3679  -54.8735 H         1 UNK         0.3000 
    236 H236       -2.5314  -19.3265  -57.3306 H         1 UNK         0.0600 
    237 H237       -4.8425  -20.3905  -55.6226 H         1 UNK         0.0600 
    238 H238       -4.9768  -19.3722  -57.0531 H         1 UNK         0.0600 
    239 H239       -4.3841  -21.0190  -57.2001 H         1 UNK         0.0600 
    240 H240       -2.1778  -20.0428  -53.9457 H         1 UNK         0.3000 
    241 H241       -0.7952  -21.2491  -52.7786 H         1 UNK         0.0600 
    242 H242       -0.8976  -24.8694  -52.7442 H         1 UNK         0.3800 
    243 H243        0.2026  -23.5909  -52.3199 H         1 UNK         0.3800 
    244 H244        0.7184  -22.0105  -55.3326 H         1 UNK         0.0800 
    245 H245        1.3313  -22.1381  -53.7117 H         1 UNK         0.0800 
    246 H246        3.3853  -20.6534  -53.6110 H         1 UNK         0.0800 
    247 H247        3.2298  -18.9281  -53.3930 H         1 UNK         0.0800 
@<TRIPOS>BOND
     1    1    2 1    
     2    1  127 1    
     3    1  128 1    
     4    1  129 1    
     5    2    3 2    
     6    2    4 am   BACKBONE|DICT|INTERRES
     7    4    5 1    
     8    4  130 1    
     9    5    6 1    
    10    5   65 1    
    11    5  131 1    
    12    6    7 1    
    13    6  132 1    
    14    6  133 1    
    15    7    8 1    
    16    8    9 1    
    17    8  134 1    
    18    8  135 1    
    19    9   10 ar   
    20    9   14 ar   
    21   10   11 ar   
    22   10  136 1    
    23   11   12 ar   
    24   11  126 1    
    25   12   13 ar   
    26   12  137 1    
    27   13   14 ar   
    28   13   15 1    
    29   14  138 1    
    30   15   16 1    
    31   15  139 1    
    32   15  140 1    
    33   16   17 1    
    34   17   18 1    
    35   17  141 1    
    36   17  142 1    
    37   18   19 1    
    38   18   67 1    
    39   18  143 1    
    40   19   20 am   BACKBONE|DICT|INTERRES
    41   19  144 1    
    42   20   21 2    
    43   20   22 1    
    44   22   23 1    
    45   22   24 1    
    46   22  145 1    
    47   23  146 1    
    48   23  147 1    
    49   23  148 1    
    50   24   25 am   BACKBONE|DICT|INTERRES
    51   24  149 1    
    52   25   26 2    
    53   25   27 1    
    54   27   28 1    
    55   27   29 1    
    56   27  150 1    
    57   28  151 1    
    58   28  152 1    
    59   28  153 1    
    60   29   30 am   BACKBONE|DICT|INTERRES
    61   29  154 1    
    62   30   31 2    
    63   30   32 1    
    64   32   33 1    
    65   32   34 1    
    66   32  155 1    
    67   33  156 1    
    68   33  157 1    
    69   33  158 1    
    70   34   35 am   BACKBONE|DICT|INTERRES
    71   34  159 1    
    72   35   36 2    
    73   35   37 1    
    74   37   38 1    
    75   37   39 1    
    76   37  160 1    
    77   38  161 1    
    78   38  162 1    
    79   38  163 1    
    80   39   40 am   BACKBONE|DICT|INTERRES
    81   39  164 1    
    82   40   41 2    
    83   40   42 1    
    84   42   43 1    
    85   42   44 1    
    86   42  165 1    
    87   43  166 1    
    88   43  167 1    
    89   43  168 1    
    90   44   45 am   BACKBONE|DICT|INTERRES
    91   44  169 1    
    92   45   46 2    
    93   45   47 1    
    94   47   48 1    
    95   47   49 1    
    96   47  170 1    
    97   48  171 1    
    98   48  172 1    
    99   48  173 1    
   100   49   50 am   BACKBONE|DICT|INTERRES
   101   49  174 1    
   102   50   51 2    
   103   50   52 1    
   104   52   53 1    
   105   52   54 1    
   106   52  175 1    
   107   53  176 1    
   108   53  177 1    
   109   53  178 1    
   110   54   55 am   BACKBONE|DICT|INTERRES
   111   54  179 1    
   112   55   56 2    
   113   55   57 1    
   114   57   58 1    
   115   57   59 1    
   116   57  180 1    
   117   58  181 1    
   118   58  182 1    
   119   58  183 1    
   120   59   60 am   BACKBONE|DICT|INTERRES
   121   59  184 1    
   122   60   61 2    
   123   60   62 1    
   124   62   63 1    
   125   62   64 1    
   126   62  185 1    
   127   63  186 1    
   128   63  187 1    
   129   63  188 1    
   130   64   65 am   BACKBONE|DICT|INTERRES
   131   64  189 1    
   132   65   66 2    
   133   67   68 2    
   134   67   69 am   BACKBONE|DICT|INTERRES
   135   69   70 1    
   136   69  190 1    
   137   70   71 1    
   138   70   72 1    
   139   70  191 1    
   140   71  192 1    
   141   71  193 1    
   142   71  194 1    
   143   72   73 2    
   144   72   74 am   BACKBONE|DICT|INTERRES
   145   74   75 1    
   146   74  195 1    
   147   75   76 1    
   148   75   77 1    
   149   75  196 1    
   150   76  197 1    
   151   76  198 1    
   152   76  199 1    
   153   77   78 2    
   154   77   79 am   BACKBONE|DICT|INTERRES
   155   79   80 1    
   156   79  200 1    
   157   80   81 1    
   158   80   82 1    
   159   80  201 1    
   160   81  202 1    
   161   81  203 1    
   162   81  204 1    
   163   82   83 2    
   164   82   84 am   BACKBONE|DICT|INTERRES
   165   84   85 1    
   166   84  205 1    
   167   85   86 1    
   168   85   87 1    
   169   85  206 1    
   170   86  207 1    
   171   86  208 1    
   172   86  209 1    
   173   87   88 2    
   174   87   89 am   BACKBONE|DICT|INTERRES
   175   89   90 1    
   176   89  210 1    
   177   90   91 1    
   178   90   92 1    
   179   90  211 1    
   180   91  212 1    
   181   91  213 1    
   182   91  214 1    
   183   92   93 2    
   184   92   94 am   BACKBONE|DICT|INTERRES
   185   94   95 1    
   186   94  215 1    
   187   95   96 1    
   188   95   97 1    
   189   95  216 1    
   190   96  217 1    
   191   96  218 1    
   192   96  219 1    
   193   97   98 2    
   194   97   99 am   BACKBONE|DICT|INTERRES
   195   99  100 1    
   196   99  220 1    
   197  100  101 1    
   198  100  102 1    
   199  100  221 1    
   200  101  222 1    
   201  101  223 1    
   202  101  224 1    
   203  102  103 2    
   204  102  104 am   BACKBONE|DICT|INTERRES
   205  104  105 1    
   206  104  225 1    
   207  105  106 1    
   208  105  107 1    
   209  105  226 1    
   210  106  227 1    
   211  106  228 1    
   212  106  229 1    
   213  107  108 2    
   214  107  109 am   BACKBONE|DICT|INTERRES
   215  109  110 1    
   216  109  230 1    
   217  110  111 1    
   218  110  112 1    
   219  110  231 1    
   220  111  232 1    
   221  111  233 1    
   222  111  234 1    
   223  112  113 2    
   224  112  114 am   BACKBONE|DICT|INTERRES
   225  114  115 1    
   226  114  235 1    
   227  115  116 1    
   228  115  117 1    
   229  115  236 1    
   230  116  237 1    
   231  116  238 1    
   232  116  239 1    
   233  117  118 2    
   234  117  119 am   BACKBONE|DICT|INTERRES
   235  119  120 1    
   236  119  240 1    
   237  120  121 1    
   238  120  124 1    
   239  120  241 1    
   240  121  122 am   BACKBONE|DICT|INTERRES
   241  121  123 2    
   242  122  242 1    
   243  122  243 1    
   244  124  125 1    
   245  124  244 1    
   246  124  245 1    
   247  125  126 1    
   248  126  246 1    
   249  126  247 1    
@<TRIPOS>SUBSTRUCTURE
     1 UNK         1 GROUP             0       ****    0 ROOT    
