@<TRIPOS>MOLECULE
3R540
247   249    1
SMALL
USER_CHARGES


@<TRIPOS>ATOM
      1 CA          6.9105  -11.3740  -45.9366 C.3       0 UNK        -0.1800 
      2 C           5.8194  -12.0904  -46.7189 C.2       0 UNK         0.5000 
      3 O           4.8258  -12.5185  -46.1338 O.2       0 UNK        -0.5000 
      4 N           5.9898  -12.2081  -48.0408 N.am      1 UNK        -0.5000 
      5 CA          5.0904  -12.8824  -48.9889 C.3       1 UNK         0.1400 
      6 C6          5.8683  -13.3279  -50.2551 C.3       23 UNK        -0.0398 
      7 S7          7.1137  -14.6123  -49.8784 S.3       23 UNK        -0.2404 
      8 C8          6.4549  -16.0668  -50.7578 C.3       23 UNK        -0.0205 
      9 C9          5.2184  -16.6454  -50.0837 C.ar      23 UNK        -0.0193 
     10 C10         3.9482  -16.1922  -50.4426 C.ar      23 UNK        -0.1150 
     11 C11         2.8092  -16.7257  -49.8408 C.ar      23 UNK        -0.0193 
     12 C12         2.9426  -17.7223  -48.8716 C.ar      23 UNK        -0.1150 
     13 C13         4.2052  -18.2202  -48.5234 C.ar      23 UNK        -0.0193 
     14 C14         5.3374  -17.6612  -49.1294 C.ar      23 UNK        -0.1150 
     15 C15         4.4135  -19.3665  -47.5268 C.3       23 UNK        -0.0205 
     16 S16         2.9331  -20.0172  -46.6676 S.3       23 UNK        -0.2404 
     17 C17         2.0494  -20.9157  -47.9879 C.3       23 UNK        -0.0398 
     18 CA          2.5314  -22.3707  -48.2008 C.3       11 UNK         0.1400 
     19 N           2.4820  -23.1835  -46.9803 N.am      11 UNK        -0.5000 
     20 C           2.9836  -24.4230  -46.8759 C.2       10 UNK         0.5000 
     21 O           3.5924  -24.9843  -47.7877 O.2       10 UNK        -0.5000 
     22 CA          2.7746  -25.1855  -45.5519 C.3       10 UNK         0.1400 
     23 CB          4.1084  -25.3303  -44.8019 C.3       10 UNK        -0.1800 
     24 N           1.7856  -24.6228  -44.6294 N.am      10 UNK        -0.5000 
     25 C           0.4847  -24.4108  -44.8652 C.2       9 UNK         0.5000 
     26 O          -0.0444  -24.5444  -45.9711 O.2       9 UNK        -0.5000 
     27 CA         -0.3772  -23.9761  -43.6616 C.3       9 UNK         0.1400 
     28 CB          0.3181  -24.1347  -42.2909 C.3       9 UNK        -0.1800 
     29 N          -0.8959  -22.6160  -43.8046 N.am      9 UNK        -0.5000 
     30 C          -0.1984  -21.4915  -43.9974 C.2       8 UNK         0.5000 
     31 O           1.0242  -21.4458  -44.1448 O.2       8 UNK        -0.5000 
     32 CA         -1.0125  -20.1935  -44.0083 C.3       8 UNK         0.1400 
     33 CB         -0.7659  -19.3694  -42.7338 C.3       8 UNK        -0.1800 
     34 N          -0.6332  -19.4179  -45.1790 N.am      8 UNK        -0.5000 
     35 C          -1.4584  -18.6291  -45.8723 C.2       7 UNK         0.5000 
     36 O          -2.6320  -18.4207  -45.5608 O.2       7 UNK        -0.5000 
     37 CA         -0.8656  -17.9585  -47.1249 C.3       7 UNK         0.1400 
     38 CB         -1.9009  -17.8724  -48.2586 C.3       7 UNK        -0.1800 
     39 N          -0.3578  -16.6179  -46.8408 N.am      7 UNK        -0.5000 
     40 C           0.6544  -16.3218  -46.0133 C.2       6 UNK         0.5000 
     41 O           1.3284  -17.1626  -45.4208 O.2       6 UNK        -0.5000 
     42 CA          0.9794  -14.8349  -45.8120 C.3       6 UNK         0.1400 
     43 CB          2.0718  -14.3904  -46.7898 C.3       6 UNK        -0.1800 
     44 N          -0.1943  -13.9784  -45.9811 N.am      6 UNK        -0.5000 
     45 C          -1.0382  -13.6468  -44.9942 C.2       5 UNK         0.5000 
     46 O          -0.8956  -14.0069  -43.8252 O.2       5 UNK        -0.5000 
     47 CA         -2.2450  -12.7625  -45.3642 C.3       5 UNK         0.1400 
     48 CB         -1.9445  -11.2853  -45.0665 C.3       5 UNK        -0.1800 
     49 N          -2.6364  -12.9078  -46.7674 N.am      5 UNK        -0.5000 
     50 C          -3.3582  -13.9370  -47.2357 C.2       4 UNK         0.5000 
     51 O          -3.8309  -14.8161  -46.5161 O.2       4 UNK        -0.5000 
     52 CA         -3.5815  -14.0243  -48.7597 C.3       4 UNK         0.1400 
     53 CB         -4.9824  -13.5161  -49.1309 C.3       4 UNK        -0.1800 
     54 N          -2.5892  -13.3124  -49.5681 N.am      4 UNK        -0.5000 
     55 C          -1.2759  -13.5709  -49.5859 C.2       3 UNK         0.5000 
     56 O          -0.7514  -14.4226  -48.8671 O.2       3 UNK        -0.5000 
     57 CA         -0.3917  -12.7357  -50.5406 C.3       3 UNK         0.1400 
     58 CB         -1.1737  -11.6884  -51.3636 C.3       3 UNK        -0.1800 
     59 N           0.7320  -12.0850  -49.8567 N.am      3 UNK        -0.5000 
     60 C           0.6787  -11.3118  -48.7634 C.2       2 UNK         0.5000 
     61 O          -0.3594  -11.1099  -48.1297 O.2       2 UNK        -0.5000 
     62 CA          1.9984  -10.6401  -48.3139 C.3       2 UNK         0.1400 
     63 CB          1.8730   -9.9821  -46.9272 C.3       2 UNK        -0.1800 
     64 N           3.1563  -11.5377  -48.2856 N.am      2 UNK        -0.5000 
     65 C           3.8532  -12.0110  -49.3249 C.2       1 UNK         0.5000 
     66 O           3.5499  -11.7761  -50.4958 O.2       1 UNK        -0.5000 
     67 C           1.7465  -22.9979  -49.3755 C.2       11 UNK         0.5000 
     68 O           2.1345  -22.7846  -50.5251 O.2       11 UNK        -0.5000 
     69 N           0.6673  -23.7418  -49.0825 N.am      12 UNK        -0.5000 
     70 CA         -0.1804  -24.3649  -50.1053 C.3       12 UNK         0.1400 
     71 CB         -1.1009  -23.3116  -50.7498 C.3       12 UNK        -0.1800 
     72 C          -1.0025  -25.5680  -49.6109 C.2       12 UNK         0.5000 
     73 O          -1.5093  -26.3086  -50.4532 O.2       12 UNK        -0.5000 
     74 N          -1.1557  -25.7503  -48.2894 N.am      13 UNK        -0.5000 
     75 CA         -1.8435  -26.8500  -47.5915 C.3       13 UNK         0.1400 
     76 CB         -1.1725  -28.2032  -47.8916 C.3       13 UNK        -0.1800 
     77 C          -3.3738  -26.9384  -47.7836 C.2       13 UNK         0.5000 
     78 O          -4.0530  -27.4023  -46.8673 O.2       13 UNK        -0.5000 
     79 N          -3.8971  -26.4805  -48.9286 N.am      14 UNK        -0.5000 
     80 CA         -5.3097  -26.4722  -49.3227 C.3       14 UNK         0.1400 
     81 CB         -5.4170  -25.8979  -50.7447 C.3       14 UNK        -0.1800 
     82 C          -6.1854  -25.6768  -48.3365 C.2       14 UNK         0.5000 
     83 O          -6.1889  -24.4444  -48.3843 O.2       14 UNK        -0.5000 
     84 N          -6.8491  -26.3962  -47.4198 N.am      15 UNK        -0.5000 
     85 CA         -7.5856  -25.8802  -46.2575 C.3       15 UNK         0.1400 
     86 CB         -8.8493  -25.1153  -46.7009 C.3       15 UNK        -0.1800 
     87 C          -6.6785  -25.0493  -45.3240 C.2       15 UNK         0.5000 
     88 O          -7.0711  -23.9744  -44.8716 O.2       15 UNK        -0.5000 
     89 N          -5.4471  -25.5399  -45.1127 N.am      16 UNK        -0.5000 
     90 CA         -4.3319  -24.8588  -44.4452 C.3       16 UNK         0.1400 
     91 CB         -4.6227  -24.6286  -42.9477 C.3       16 UNK        -0.1800 
     92 C          -3.9132  -23.5740  -45.1911 C.2       16 UNK         0.5000 
     93 O          -3.6143  -22.5605  -44.5607 O.2       16 UNK        -0.5000 
     94 N          -3.9200  -23.6589  -46.5290 N.am      17 UNK        -0.5000 
     95 CA         -3.6286  -22.6282  -47.5321 C.3       17 UNK         0.1400 
     96 CB         -2.2336  -22.0080  -47.3284 C.3       17 UNK        -0.1800 
     97 C          -4.7187  -21.5492  -47.6880 C.2       17 UNK         0.5000 
     98 O          -4.5889  -20.7021  -48.5734 O.2       17 UNK        -0.5000 
     99 N          -5.7902  -21.6076  -46.8852 N.am      18 UNK        -0.5000 
    100 CA        -6.8959  -20.6499  -46.9132 C.3       18 UNK         0.1400 
    101 CB        -7.7654  -20.8333  -45.6613 C.3       18 UNK        -0.1800 
    102 C         -7.7598  -20.7440  -48.1841 C.2       18 UNK         0.5000 
    103 O         -8.3218  -19.7292  -48.5971 O.2       18 UNK        -0.5000 
    104 N         -7.8477  -21.9386  -48.7899 N.am      19 UNK        -0.5000 
    105 CA        -8.5642  -22.1477  -50.0509 C.3       19 UNK         0.1400 
    106 CB        -8.9739  -23.6218  -50.1866 C.3       19 UNK        -0.1800 
    107 C         -7.7320  -21.7024  -51.2658 C.2       19 UNK         0.5000 
    108 O         -8.3075  -21.3038  -52.2790 O.2       19 UNK        -0.5000 
    109 N         -6.3993  -21.7728  -51.1430 N.am      20 UNK        -0.5000 
    110 CA        -5.4564  -21.3084  -52.1570 C.3       20 UNK         0.1400 
    111 CB        -4.0920  -21.9773  -51.9372 C.3       20 UNK        -0.1800 
    112 C         -5.3173  -19.7782  -52.1435 C.2       20 UNK         0.5000 
    113 O         -5.3414  -19.1597  -53.2081 O.2       20 UNK        -0.5000 
    114 N         -5.1464  -19.2025  -50.9416 N.am      21 UNK        -0.5000 
    115 CA        -4.9829  -17.7688  -50.6593 C.3       21 UNK         0.1400 
    116 CB        -6.3163  -17.0271  -50.8795 C.3       21 UNK        -0.1800 
    117 C         -3.8036  -17.1186  -51.4206 C.2       21 UNK         0.5000 
    118 O         -3.8562  -15.9348  -51.7560 O.2       21 UNK        -0.5000 
    119 N         -2.7650  -17.9217  -51.6875 N.am      22 UNK        -0.5000 
    120 CA        -1.6003  -17.6021  -52.5288 C.3       22 UNK         0.1400 
    121 C         -1.8990  -17.5139  -54.0593 C.2       22 UNK         0.5000 
    122 N         -3.0652  -17.9267  -54.5426 N.am      22 UNK        -0.7600 
    123 O         -1.0478  -17.0902  -54.8362 O.2       22 UNK        -0.5000 
    124 C124       -0.7770  -16.3886  -51.9998 C.3       23 UNK        -0.0398 
    125 S125        1.0108  -16.7484  -51.9392 S.3       23 UNK        -0.2404 
    126 C126        1.4355  -16.2280  -50.2481 C.3       23 UNK        -0.0205 
    127 H127        6.4993  -10.4963  -45.4380 H         1 UNK         0.0600 
    128 H128        7.7259  -11.0481  -46.5829 H         1 UNK         0.0600 
    129 H129        7.3232  -12.0375  -45.1767 H         1 UNK         0.0600 
    130 H130        6.8237  -11.8161  -48.4543 H         1 UNK         0.3000 
    131 H131        4.7001  -13.7833  -48.5096 H         1 UNK         0.0600 
    132 H132        6.3798  -12.4751  -50.7044 H         1 UNK         0.0800 
    133 H133        5.1962  -13.6986  -51.0277 H         1 UNK         0.0800 
    134 H134        7.2357  -16.8275  -50.8036 H         1 UNK         0.0800 
    135 H135        6.2350  -15.8024  -51.7934 H         1 UNK         0.0800 
    136 H136        3.8344  -15.4351  -51.2043 H         1 UNK         0.1150 
    137 H137        2.0517  -18.1131  -48.4075 H         1 UNK         0.1150 
    138 H138        6.3196  -18.0286  -48.8659 H         1 UNK         0.1150 
    139 H139        4.9086  -20.1924  -48.0389 H         1 UNK         0.0800 
    140 H140        5.1091  -19.0244  -46.7593 H         1 UNK         0.0800 
    141 H141        0.9882  -20.9070  -47.7329 H         1 UNK         0.0800 
    142 H142        2.1404  -20.3559  -48.9195 H         1 UNK         0.0800 
    143 H143        3.5778  -22.3286  -48.5103 H         1 UNK         0.0600 
    144 H144        2.0249  -22.7745  -46.1761 H         1 UNK         0.3000 
    145 H145        2.4265  -26.1846  -45.8213 H         1 UNK         0.0600 
    146 H146        4.0008  -25.9637  -43.9212 H         1 UNK         0.0600 
    147 H147        4.8698  -25.7878  -45.4353 H         1 UNK         0.0600 
    148 H148        4.4910  -24.3621  -44.4762 H         1 UNK         0.0600 
    149 H149        2.1219  -24.4291  -43.6975 H         1 UNK         0.3000 
    150 H150       -1.2434  -24.6381  -43.6636 H         1 UNK         0.0600 
    151 H151        0.6648  -25.1577  -42.1380 H         1 UNK         0.0600 
    152 H152       -0.3742  -23.9103  -41.4792 H         1 UNK         0.0600 
    153 H153        1.1750  -23.4689  -42.1814 H         1 UNK         0.0600 
    154 H154       -1.9104  -22.5397  -43.8150 H         1 UNK         0.3000 
    155 H155       -2.0739  -20.4439  -44.0611 H         1 UNK         0.0600 
    156 H156       -1.3718  -18.4632  -42.7274 H         1 UNK         0.0600 
    157 H157        0.2800  -19.0726  -42.6448 H         1 UNK         0.0600 
    158 H158       -1.0249  -19.9422  -41.8425 H         1 UNK         0.0600 
    159 H159        0.3395  -19.4990  -45.4511 H         1 UNK         0.3000 
    160 H160       -0.0352  -18.5706  -47.4793 H         1 UNK         0.0600 
    161 H161       -2.7263  -17.2086  -47.9996 H         1 UNK         0.0600 
    162 H162       -2.3259  -18.8523  -48.4790 H         1 UNK         0.0600 
    163 H163       -1.4484  -17.5024  -49.1754 H         1 UNK         0.0600 
    164 H164       -0.8150  -15.8510  -47.3184 H         1 UNK         0.3000 
    165 H165        1.3741  -14.7188  -44.8003 H         1 UNK         0.0600 
    166 H166        1.7332  -14.4143  -47.8251 H         1 UNK         0.0600 
    167 H167        2.3803  -13.3750  -46.5557 H         1 UNK         0.0600 
    168 H168        2.9556  -15.0257  -46.7151 H         1 UNK         0.0600 
    169 H169       -0.4074  -13.6876  -46.9278 H         1 UNK         0.3000 
    170 H170       -3.0831  -13.0647  -44.7324 H         1 UNK         0.0600 
    171 H171       -1.7343  -11.1388  -44.0063 H         1 UNK         0.0600 
    172 H172       -1.0773  -10.9272  -45.6210 H         1 UNK         0.0600 
    173 H173       -2.7927  -10.6495  -45.3204 H         1 UNK         0.0600 
    174 H174       -2.2473  -12.2375  -47.4195 H         1 UNK         0.3000 
    175 H175       -3.5219  -15.0798  -49.0303 H         1 UNK         0.0600 
    176 H176       -5.0972  -12.4549  -48.9069 H         1 UNK         0.0600 
    177 H177       -5.1851  -13.6609  -50.1924 H         1 UNK         0.0600 
    178 H178       -5.7535  -14.0548  -48.5785 H         1 UNK         0.0600 
    179 H179       -2.9428  -12.5846  -50.1715 H         1 UNK         0.3000 
    180 H180        0.0451  -13.4445  -51.2447 H         1 UNK         0.0600 
    181 H181       -1.9525  -12.1563  -51.9674 H         1 UNK         0.0600 
    182 H182       -1.6431  -10.9359  -50.7284 H         1 UNK         0.0600 
    183 H183       -0.5114  -11.1660  -52.0540 H         1 UNK         0.0600 
    184 H184        1.6407  -12.1813  -50.2991 H         1 UNK         0.3000 
    185 H185        2.2049   -9.8492  -49.0374 H         1 UNK         0.0600 
    186 H186        1.0749   -9.2387  -46.9128 H         1 UNK         0.0600 
    187 H187        1.6516  -10.7190  -46.1539 H         1 UNK         0.0600 
    188 H188        2.7940   -9.4699  -46.6481 H         1 UNK         0.0600 
    189 H189        3.4903  -11.8035  -47.3638 H         1 UNK         0.3000 
    190 H190        0.4434  -23.9111  -48.1111 H         1 UNK         0.3000 
    191 H191        0.4712  -24.7653  -50.8851 H         1 UNK         0.0600 
    192 H192       -1.7383  -23.7616  -51.5118 H         1 UNK         0.0600 
    193 H193       -0.5302  -22.5227  -51.2394 H         1 UNK         0.0600 
    194 H194       -1.7491  -22.8443  -50.0120 H         1 UNK         0.0600 
    195 H195       -0.7281  -25.0943  -47.6441 H         1 UNK         0.3000 
    196 H196       -1.6930  -26.6495  -46.5297 H         1 UNK         0.0600 
    197 H197       -1.6048  -28.9961  -47.2800 H         1 UNK         0.0600 
    198 H198       -0.1053  -28.1700  -47.6720 H         1 UNK         0.0600 
    199 H199       -1.2925  -28.4968  -48.9346 H         1 UNK         0.0600 
    200 H200       -3.2318  -26.1883  -49.6374 H         1 UNK         0.3000 
    201 H201       -5.6584  -27.5064  -49.3474 H         1 UNK         0.0600 
    202 H202       -4.8342  -26.4866  -51.4534 H         1 UNK         0.0600 
    203 H203       -5.0585  -24.8695  -50.7910 H         1 UNK         0.0600 
    204 H204       -6.4505  -25.9023  -51.0923 H         1 UNK         0.0600 
    205 H205       -6.7412  -27.4010  -47.4454 H         1 UNK         0.3000 
    206 H206       -7.9080  -26.7489  -45.6820 H         1 UNK         0.0600 
    207 H207       -9.4487  -25.7066  -47.3929 H         1 UNK         0.0600 
    208 H208       -9.4804  -24.8784  -45.8437 H         1 UNK         0.0600 
    209 H209       -8.6011  -24.1734  -47.1881 H         1 UNK         0.0600 
    210 H210       -5.2013  -26.4120  -45.5731 H         1 UNK         0.3000 
    211 H211       -3.4806  -25.5375  -44.5120 H         1 UNK         0.0600 
    212 H212       -5.4185  -23.8995  -42.7935 H         1 UNK         0.0600 
    213 H213       -3.7371  -24.2563  -42.4314 H         1 UNK         0.0600 
    214 H214       -4.9175  -25.5560  -42.4568 H         1 UNK         0.0600 
    215 H215       -4.2820  -24.5156  -46.9216 H         1 UNK         0.3000 
    216 H216       -3.6117  -23.1577  -48.4855 H         1 UNK         0.0600 
    217 H217       -2.1865  -21.4310  -46.4085 H         1 UNK         0.0600 
    218 H218       -1.9768  -21.3326  -48.1447 H         1 UNK         0.0600 
    219 H219       -1.4618  -22.7732  -47.2853 H         1 UNK         0.0600 
    220 H220       -5.8510  -22.3520  -46.2037 H         1 UNK         0.3000 
    221 H221       -6.4649  -19.6468  -46.8807 H         1 UNK         0.0600 
    222 H222       -8.2916  -21.7881  -45.6740 H         1 UNK         0.0600 
    223 H223       -7.1670  -20.7897  -44.7510 H         1 UNK         0.0600 
    224 H224       -8.5194  -20.0481  -45.5943 H         1 UNK         0.0600 
    225 H225       -7.3341  -22.7299  -48.4147 H         1 UNK         0.3000 
    226 H226       -9.4793  -21.5515  -50.0413 H         1 UNK         0.0600 
    227 H227       -9.6159  -23.9316  -49.3629 H         1 UNK         0.0600 
    228 H228       -9.5333  -23.7853  -51.1085 H         1 UNK         0.0600 
    229 H229       -8.1089  -24.2825  -50.2117 H         1 UNK         0.0600 
    230 H230       -6.0150  -22.0908  -50.2658 H         1 UNK         0.3000 
    231 H231       -5.8214  -21.6049  -53.1429 H         1 UNK         0.0600 
    232 H232       -4.1627  -23.0587  -52.0476 H         1 UNK         0.0600 
    233 H233       -3.3615  -21.6265  -52.6675 H         1 UNK         0.0600 
    234 H234       -3.6933  -21.7646  -50.9456 H         1 UNK         0.0600 
    235 H235       -5.0835  -19.8071  -50.1246 H         1 UNK         0.3000 
    236 H236       -4.7364  -17.6950  -49.5993 H         1 UNK         0.0600 
    237 H237       -7.1240  -17.4974  -50.3180 H         1 UNK         0.0600 
    238 H238       -6.2507  -15.9915  -50.5452 H         1 UNK         0.0600 
    239 H239       -6.6020  -17.0152  -51.9317 H         1 UNK         0.0600 
    240 H240       -2.8248  -18.8796  -51.3757 H         1 UNK         0.3000 
    241 H241       -0.9815  -18.4954  -52.4384 H         1 UNK         0.0600 
    242 H242       -3.7995  -18.2876  -53.9406 H         1 UNK         0.3800 
    243 H243       -3.2292  -17.8685  -55.5348 H         1 UNK         0.3800 
    244 H244       -1.1047  -16.1194  -50.9978 H         1 UNK         0.0800 
    245 H245       -0.9438  -15.4930  -52.6006 H         1 UNK         0.0800 
    246 H246        0.6839  -16.5917  -49.5486 H         1 UNK         0.0800 
    247 H247        1.4223  -15.1403  -50.1910 H         1 UNK         0.0800 
@<TRIPOS>BOND
     1    1    2 1    
     2    1  127 1    
     3    1  128 1    
     4    1  129 1    
     5    2    3 2    
     6    2    4 am   BACKBONE|DICT|INTERRES
     7    4    5 1    
     8    4  130 1    
     9    5    6 1    
    10    5   65 1    
    11    5  131 1    
    12    6    7 1    
    13    6  132 1    
    14    6  133 1    
    15    7    8 1    
    16    8    9 1    
    17    8  134 1    
    18    8  135 1    
    19    9   10 ar   
    20    9   14 ar   
    21   10   11 ar   
    22   10  136 1    
    23   11   12 ar   
    24   11  126 1    
    25   12   13 ar   
    26   12  137 1    
    27   13   14 ar   
    28   13   15 1    
    29   14  138 1    
    30   15   16 1    
    31   15  139 1    
    32   15  140 1    
    33   16   17 1    
    34   17   18 1    
    35   17  141 1    
    36   17  142 1    
    37   18   19 1    
    38   18   67 1    
    39   18  143 1    
    40   19   20 am   BACKBONE|DICT|INTERRES
    41   19  144 1    
    42   20   21 2    
    43   20   22 1    
    44   22   23 1    
    45   22   24 1    
    46   22  145 1    
    47   23  146 1    
    48   23  147 1    
    49   23  148 1    
    50   24   25 am   BACKBONE|DICT|INTERRES
    51   24  149 1    
    52   25   26 2    
    53   25   27 1    
    54   27   28 1    
    55   27   29 1    
    56   27  150 1    
    57   28  151 1    
    58   28  152 1    
    59   28  153 1    
    60   29   30 am   BACKBONE|DICT|INTERRES
    61   29  154 1    
    62   30   31 2    
    63   30   32 1    
    64   32   33 1    
    65   32   34 1    
    66   32  155 1    
    67   33  156 1    
    68   33  157 1    
    69   33  158 1    
    70   34   35 am   BACKBONE|DICT|INTERRES
    71   34  159 1    
    72   35   36 2    
    73   35   37 1    
    74   37   38 1    
    75   37   39 1    
    76   37  160 1    
    77   38  161 1    
    78   38  162 1    
    79   38  163 1    
    80   39   40 am   BACKBONE|DICT|INTERRES
    81   39  164 1    
    82   40   41 2    
    83   40   42 1    
    84   42   43 1    
    85   42   44 1    
    86   42  165 1    
    87   43  166 1    
    88   43  167 1    
    89   43  168 1    
    90   44   45 am   BACKBONE|DICT|INTERRES
    91   44  169 1    
    92   45   46 2    
    93   45   47 1    
    94   47   48 1    
    95   47   49 1    
    96   47  170 1    
    97   48  171 1    
    98   48  172 1    
    99   48  173 1    
   100   49   50 am   BACKBONE|DICT|INTERRES
   101   49  174 1    
   102   50   51 2    
   103   50   52 1    
   104   52   53 1    
   105   52   54 1    
   106   52  175 1    
   107   53  176 1    
   108   53  177 1    
   109   53  178 1    
   110   54   55 am   BACKBONE|DICT|INTERRES
   111   54  179 1    
   112   55   56 2    
   113   55   57 1    
   114   57   58 1    
   115   57   59 1    
   116   57  180 1    
   117   58  181 1    
   118   58  182 1    
   119   58  183 1    
   120   59   60 am   BACKBONE|DICT|INTERRES
   121   59  184 1    
   122   60   61 2    
   123   60   62 1    
   124   62   63 1    
   125   62   64 1    
   126   62  185 1    
   127   63  186 1    
   128   63  187 1    
   129   63  188 1    
   130   64   65 am   BACKBONE|DICT|INTERRES
   131   64  189 1    
   132   65   66 2    
   133   67   68 2    
   134   67   69 am   BACKBONE|DICT|INTERRES
   135   69   70 1    
   136   69  190 1    
   137   70   71 1    
   138   70   72 1    
   139   70  191 1    
   140   71  192 1    
   141   71  193 1    
   142   71  194 1    
   143   72   73 2    
   144   72   74 am   BACKBONE|DICT|INTERRES
   145   74   75 1    
   146   74  195 1    
   147   75   76 1    
   148   75   77 1    
   149   75  196 1    
   150   76  197 1    
   151   76  198 1    
   152   76  199 1    
   153   77   78 2    
   154   77   79 am   BACKBONE|DICT|INTERRES
   155   79   80 1    
   156   79  200 1    
   157   80   81 1    
   158   80   82 1    
   159   80  201 1    
   160   81  202 1    
   161   81  203 1    
   162   81  204 1    
   163   82   83 2    
   164   82   84 am   BACKBONE|DICT|INTERRES
   165   84   85 1    
   166   84  205 1    
   167   85   86 1    
   168   85   87 1    
   169   85  206 1    
   170   86  207 1    
   171   86  208 1    
   172   86  209 1    
   173   87   88 2    
   174   87   89 am   BACKBONE|DICT|INTERRES
   175   89   90 1    
   176   89  210 1    
   177   90   91 1    
   178   90   92 1    
   179   90  211 1    
   180   91  212 1    
   181   91  213 1    
   182   91  214 1    
   183   92   93 2    
   184   92   94 am   BACKBONE|DICT|INTERRES
   185   94   95 1    
   186   94  215 1    
   187   95   96 1    
   188   95   97 1    
   189   95  216 1    
   190   96  217 1    
   191   96  218 1    
   192   96  219 1    
   193   97   98 2    
   194   97   99 am   BACKBONE|DICT|INTERRES
   195   99  100 1    
   196   99  220 1    
   197  100  101 1    
   198  100  102 1    
   199  100  221 1    
   200  101  222 1    
   201  101  223 1    
   202  101  224 1    
   203  102  103 2    
   204  102  104 am   BACKBONE|DICT|INTERRES
   205  104  105 1    
   206  104  225 1    
   207  105  106 1    
   208  105  107 1    
   209  105  226 1    
   210  106  227 1    
   211  106  228 1    
   212  106  229 1    
   213  107  108 2    
   214  107  109 am   BACKBONE|DICT|INTERRES
   215  109  110 1    
   216  109  230 1    
   217  110  111 1    
   218  110  112 1    
   219  110  231 1    
   220  111  232 1    
   221  111  233 1    
   222  111  234 1    
   223  112  113 2    
   224  112  114 am   BACKBONE|DICT|INTERRES
   225  114  115 1    
   226  114  235 1    
   227  115  116 1    
   228  115  117 1    
   229  115  236 1    
   230  116  237 1    
   231  116  238 1    
   232  116  239 1    
   233  117  118 2    
   234  117  119 am   BACKBONE|DICT|INTERRES
   235  119  120 1    
   236  119  240 1    
   237  120  121 1    
   238  120  124 1    
   239  120  241 1    
   240  121  122 am   BACKBONE|DICT|INTERRES
   241  121  123 2    
   242  122  242 1    
   243  122  243 1    
   244  124  125 1    
   245  124  244 1    
   246  124  245 1    
   247  125  126 1    
   248  126  246 1    
   249  126  247 1    
@<TRIPOS>SUBSTRUCTURE
     1 UNK         1 GROUP             0       ****    0 ROOT    
