@<TRIPOS>MOLECULE
3R540
247   249    1
SMALL
USER_CHARGES


@<TRIPOS>ATOM
      1 CA         -1.5883  -18.2657  -50.5682 C.3       0 UNK        -0.1800 
      2 C          -1.5028  -16.8873  -49.9377 C.2       0 UNK         0.5000 
      3 O          -2.5391  -16.2764  -49.6739 O.2       0 UNK        -0.5000 
      4 N          -0.2783  -16.4029  -49.7016 N.am      1 UNK        -0.5000 
      5 CA          0.0309  -15.0993  -49.1061 C.3       1 UNK         0.1400 
      6 C6          1.4613  -14.6156  -49.4627 C.3       23 UNK        -0.0398 
      7 S7          1.6765  -14.2661  -51.2398 S.3       23 UNK        -0.2404 
      8 C8          2.9351  -15.4933  -51.7140 C.3       23 UNK        -0.0205 
      9 C9          2.3471  -16.8917  -51.7960 C.ar      23 UNK        -0.0193 
     10 C10         1.5322  -17.2367  -52.8753 C.ar      23 UNK        -0.1150 
     11 C11         0.9710  -18.5114  -52.9612 C.ar      23 UNK        -0.0193 
     12 C12         1.2366  -19.4521  -51.9598 C.ar      23 UNK        -0.1150 
     13 C13         2.0426  -19.1156  -50.8664 C.ar      23 UNK        -0.0193 
     14 C14         2.6045  -17.8359  -50.7983 C.ar      23 UNK        -0.1150 
     15 C15         2.3305  -20.1343  -49.7703 C.3       23 UNK        -0.0205 
     16 S16         1.8054  -19.5554  -48.1207 S.3       23 UNK        -0.2404 
     17 C17         0.2229  -20.4290  -47.8542 C.3       23 UNK        -0.0398 
     18 CA          0.4071  -21.8040  -47.1668 C.3       11 UNK         0.1400 
     19 N           1.1120  -21.7166  -45.8826 N.am      11 UNK        -0.5000 
     20 C           1.7950  -22.7298  -45.3321 C.2       10 UNK         0.5000 
     21 O           1.8341  -23.8640  -45.8117 O.2       10 UNK        -0.5000 
     22 CA          2.5382  -22.4335  -44.0176 C.3       10 UNK         0.1400 
     23 CB          3.7790  -21.5618  -44.2673 C.3       10 UNK        -0.1800 
     24 N           1.6734  -21.7935  -43.0279 N.am      10 UNK        -0.5000 
     25 C           0.6640  -22.4116  -42.3994 C.2       9 UNK         0.5000 
     26 O           0.3958  -23.6038  -42.5489 O.2       9 UNK        -0.5000 
     27 CA         -0.2072  -21.5572  -41.4591 C.3       9 UNK         0.1400 
     28 CB          0.4014  -21.5158  -40.0495 C.3       9 UNK        -0.1800 
     29 N          -0.4204  -20.1914  -41.9417 N.am      9 UNK        -0.5000 
     30 C          -1.0609  -19.8803  -43.0779 C.2       8 UNK         0.5000 
     31 O          -1.5498  -20.7139  -43.8345 O.2       8 UNK        -0.5000 
     32 CA         -1.1124  -18.3948  -43.4709 C.3       8 UNK         0.1400 
     33 CB         -2.1524  -17.6392  -42.6302 C.3       8 UNK        -0.1800 
     34 N           0.1903  -17.7455  -43.3458 N.am      8 UNK        -0.5000 
     35 C           1.2960  -18.1139  -44.0082 C.2       7 UNK         0.5000 
     36 O           1.3255  -19.0201  -44.8393 O.2       7 UNK        -0.5000 
     37 CA          2.5995  -17.3974  -43.6195 C.3       7 UNK         0.1400 
     38 CB          2.7054  -16.0232  -44.2957 C.3       7 UNK        -0.1800 
     39 N           2.7147  -17.2434  -42.1697 N.am      7 UNK        -0.5000 
     40 C           2.9296  -18.2567  -41.3188 C.2       6 UNK         0.5000 
     41 O           3.0882  -19.4253  -41.6714 O.2       6 UNK        -0.5000 
     42 CA          2.9329  -17.9063  -39.8198 C.3       6 UNK         0.1400 
     43 CB          4.3072  -17.3714  -39.3902 C.3       6 UNK        -0.1800 
     44 N           1.8999  -16.9297  -39.4691 N.am      6 UNK        -0.5000 
     45 C           0.5838  -17.1793  -39.5102 C.2       5 UNK         0.5000 
     46 O           0.1040  -18.2664  -39.8285 O.2       5 UNK        -0.5000 
     47 CA         -0.3556  -16.0031  -39.1861 C.3       5 UNK         0.1400 
     48 CB         -0.5599  -15.8771  -37.6691 C.3       5 UNK        -0.1800 
     49 N           0.0992  -14.7176  -39.7259 N.am      5 UNK        -0.5000 
     50 C           0.2870  -14.4639  -41.0268 C.2       4 UNK         0.5000 
     51 O           0.1639  -15.3105  -41.9164 O.2       4 UNK        -0.5000 
     52 CA          0.7109  -13.0394  -41.3999 C.3       4 UNK         0.1400 
     53 CB          2.2270  -12.8537  -41.2239 C.3       4 UNK        -0.1800 
     54 N           0.3557  -12.8276  -42.7960 N.am      4 UNK        -0.5000 
     55 C          -0.0806  -11.6896  -43.3422 C.2       3 UNK         0.5000 
     56 O          -0.1707  -10.6261  -42.7275 O.2       3 UNK        -0.5000 
     57 CA         -0.4838  -11.7456  -44.8284 C.3       3 UNK         0.1400 
     58 CB          0.6096  -11.1148  -45.7048 C.3       3 UNK        -0.1800 
     59 N          -0.7314  -13.1078  -45.3067 N.am      3 UNK        -0.5000 
     60 C          -1.8529  -13.8138  -45.1187 C.2       2 UNK         0.5000 
     61 O          -2.8227  -13.3817  -44.4942 O.2       2 UNK        -0.5000 
     62 CA         -1.8949  -15.2258  -45.7536 C.3       2 UNK         0.1400 
     63 CB         -3.2921  -15.8665  -45.6878 C.3       2 UNK        -0.1800 
     64 N          -1.4498  -15.2429  -47.1506 N.am      2 UNK        -0.5000 
     65 C          -0.1878  -15.1276  -47.5786 C.2       1 UNK         0.5000 
     66 O           0.7700  -15.0215  -46.8114 O.2       1 UNK        -0.5000 
     67 C          -0.9326  -22.5671  -47.0758 C.2       11 UNK         0.5000 
     68 O          -1.4972  -22.8951  -48.1209 O.2       11 UNK        -0.5000 
     69 N          -1.4185  -22.8721  -45.8619 N.am      12 UNK        -0.5000 
     70 CA         -2.6350  -23.6555  -45.6024 C.3       12 UNK         0.1400 
     71 CB         -2.9493  -23.6573  -44.0986 C.3       12 UNK        -0.1800 
     72 C          -2.5731  -25.0991  -46.1323 C.2       12 UNK         0.5000 
     73 O          -3.6206  -25.6933  -46.3877 O.2       12 UNK        -0.5000 
     74 N          -1.3537  -25.6205  -46.3296 N.am      13 UNK        -0.5000 
     75 CA         -1.0873  -26.8840  -47.0172 C.3       13 UNK         0.1400 
     76 CB          0.4034  -27.2240  -46.8705 C.3       13 UNK        -0.1800 
     77 C          -1.4927  -26.8544  -48.5062 C.2       13 UNK         0.5000 
     78 O          -1.8062  -27.9065  -49.0645 O.2       13 UNK        -0.5000 
     79 N          -1.4918  -25.6580  -49.1112 N.am      14 UNK        -0.5000 
     80 CA         -1.9757  -25.4050  -50.4625 C.3       14 UNK         0.1400 
     81 CB         -1.0508  -24.3946  -51.1577 C.3       14 UNK        -0.1800 
     82 C          -3.4383  -24.9275  -50.4205 C.2       14 UNK         0.5000 
     83 O          -4.2907  -25.5943  -51.0069 O.2       14 UNK        -0.5000 
     84 N          -3.7106  -23.8234  -49.7030 N.am      15 UNK        -0.5000 
     85 CA         -5.0600  -23.2856  -49.4653 C.3       15 UNK         0.1400 
     86 CB         -5.7589  -22.8556  -50.7743 C.3       15 UNK        -0.1800 
     87 C          -5.0722  -22.0830  -48.5060 C.2       15 UNK         0.5000 
     88 O          -6.0614  -21.9065  -47.7957 O.2       15 UNK        -0.5000 
     89 N          -4.0107  -21.2587  -48.5316 N.am      16 UNK        -0.5000 
     90 CA         -3.8883  -19.9648  -47.8366 C.3       16 UNK         0.1400 
     91 CB         -3.8916  -20.1354  -46.3027 C.3       16 UNK        -0.1800 
     92 C          -4.9172  -18.9156  -48.3189 C.2       16 UNK         0.5000 
     93 O          -5.4215  -18.1296  -47.5155 O.2       16 UNK        -0.5000 
     94 N          -5.2119  -18.9217  -49.6258 N.am      17 UNK        -0.5000 
     95 CA         -6.1826  -18.0322  -50.2608 C.3       17 UNK         0.1400 
     96 CB         -7.5907  -18.6536  -50.1783 C.3       17 UNK        -0.1800 
     97 C          -5.7361  -17.6861  -51.6912 C.2       17 UNK         0.5000 
     98 O          -6.4819  -17.9112  -52.6463 O.2       17 UNK        -0.5000 
     99 N          -4.5123  -17.1470  -51.8032 N.am      18 UNK        -0.5000 
    100 CA        -3.8760  -16.6093  -53.0123 C.3       18 UNK         0.1400 
    101 CB        -4.4493  -15.2071  -53.3123 C.3       18 UNK        -0.1800 
    102 C         -3.9305  -17.5743  -54.2169 C.2       18 UNK         0.5000 
    103 O         -3.2505  -18.6027  -54.2073 O.2       18 UNK        -0.5000 
    104 N         -4.7551  -17.2439  -55.2195 N.am      19 UNK        -0.5000 
    105 CA        -4.9638  -18.0106  -56.4479 C.3       19 UNK         0.1400 
    106 CB        -5.9046  -17.2242  -57.3727 C.3       19 UNK        -0.1800 
    107 C         -5.4976  -19.4385  -56.2259 C.2       19 UNK         0.5000 
    108 O         -5.2492  -20.3015  -57.0667 O.2       19 UNK        -0.5000 
    109 N         -6.1808  -19.6890  -55.0992 N.am      20 UNK        -0.5000 
    110 CA        -6.6370  -21.0270  -54.7143 C.3       20 UNK         0.1400 
    111 CB        -7.6251  -20.9151  -53.5454 C.3       20 UNK        -0.1800 
    112 C         -5.4751  -21.9676  -54.3394 C.2       20 UNK         0.5000 
    113 O         -5.6020  -23.1798  -54.5124 O.2       20 UNK        -0.5000 
    114 N         -4.3721  -21.3954  -53.8360 N.am      21 UNK        -0.5000 
    115 CA        -3.1594  -22.1234  -53.4764 C.3       21 UNK         0.1400 
    116 CB        -2.4392  -21.3893  -52.3301 C.3       21 UNK        -0.1800 
    117 C         -2.2345  -22.3108  -54.6898 C.2       21 UNK         0.5000 
    118 O         -1.7410  -23.4178  -54.9072 O.2       21 UNK        -0.5000 
    119 N         -2.0090  -21.2288  -55.4459 N.am      22 UNK        -0.5000 
    120 CA        -1.0784  -21.2062  -56.5890 C.3       22 UNK         0.1400 
    121 C         -1.6934  -21.6655  -57.9419 C.2       22 UNK         0.5000 
    122 N         -3.0069  -21.7491  -58.1006 N.am      22 UNK        -0.7600 
    123 O         -0.9540  -21.9742  -58.8726 O.2       22 UNK        -0.5000 
    124 C124       -0.3765  -19.8298  -56.7210 C.3       23 UNK        -0.0398 
    125 S125        0.9542  -19.6189  -55.4892 S.3       23 UNK        -0.2404 
    126 C126        0.0488  -18.8503  -54.1184 C.3       23 UNK        -0.0205 
    127 H127       -1.5443  -18.1835  -51.6527 H         1 UNK         0.0600 
    128 H128       -0.7687  -18.8945  -50.2338 H         1 UNK         0.0600 
    129 H129       -2.5189  -18.7618  -50.3059 H         1 UNK         0.0600 
    130 H130        0.5259  -16.9608  -49.9554 H         1 UNK         0.3000 
    131 H131       -0.6703  -14.3647  -49.5083 H         1 UNK         0.0600 
    132 H132        2.2065  -15.3386  -49.1273 H         1 UNK         0.0800 
    133 H133        1.6894  -13.6867  -48.9364 H         1 UNK         0.0800 
    134 H134        3.3430  -15.2196  -52.6881 H         1 UNK         0.0800 
    135 H135        3.7715  -15.4580  -51.0142 H         1 UNK         0.0800 
    136 H136        1.3252  -16.5051  -53.6439 H         1 UNK         0.1150 
    137 H137        0.8022  -20.4395  -52.0267 H         1 UNK         0.1150 
    138 H138        3.2367  -17.5753  -49.9607 H         1 UNK         0.1150 
    139 H139        1.8676  -21.0967  -49.9934 H         1 UNK         0.0800 
    140 H140        3.4058  -20.3151  -49.7448 H         1 UNK         0.0800 
    141 H141       -0.2763  -20.5510  -48.8154 H         1 UNK         0.0800 
    142 H142       -0.4180  -19.7859  -47.2483 H         1 UNK         0.0800 
    143 H143        1.0307  -22.4009  -47.8360 H         1 UNK         0.0600 
    144 H144        1.1432  -20.7971  -45.4457 H         1 UNK         0.3000 
    145 H145        2.8783  -23.3859  -43.6056 H         1 UNK         0.0600 
    146 H146        4.3450  -21.4114  -43.3479 H         1 UNK         0.0600 
    147 H147        4.4478  -22.0334  -44.9882 H         1 UNK         0.0600 
    148 H148        3.5148  -20.5798  -44.6597 H         1 UNK         0.0600 
    149 H149        1.8581  -20.8195  -42.8190 H         1 UNK         0.3000 
    150 H150       -1.1849  -22.0390  -41.3923 H         1 UNK         0.0600 
    151 H151        0.5648  -22.5226  -39.6631 H         1 UNK         0.0600 
    152 H152       -0.2595  -21.0034  -39.3503 H         1 UNK         0.0600 
    153 H153        1.3619  -20.9997  -40.0419 H         1 UNK         0.0600 
    154 H154       -0.0796  -19.4419  -41.3458 H         1 UNK         0.3000 
    155 H155       -1.4101  -18.3356  -44.5198 H         1 UNK         0.0600 
    156 H156       -1.9442  -17.7180  -41.5634 H         1 UNK         0.0600 
    157 H157       -3.1527  -18.0393  -42.7997 H         1 UNK         0.0600 
    158 H158       -2.1757  -16.5795  -42.8824 H         1 UNK         0.0600 
    159 H159        0.2484  -16.9643  -42.6964 H         1 UNK         0.3000 
    160 H160        3.4354  -18.0094  -43.9651 H         1 UNK         0.0600 
    161 H161        3.6224  -15.5090  -44.0083 H         1 UNK         0.0600 
    162 H162        1.8642  -15.3768  -44.0449 H         1 UNK         0.0600 
    163 H163        2.7229  -16.1324  -45.3805 H         1 UNK         0.0600 
    164 H164        2.5391  -16.3241  -41.7938 H         1 UNK         0.3000 
    165 H165        2.7358  -18.8252  -39.2635 H         1 UNK         0.0600 
    166 H166        4.3425  -17.1944  -38.3151 H         1 UNK         0.0600 
    167 H167        5.0953  -18.0876  -39.6267 H         1 UNK         0.0600 
    168 H168        4.5523  -16.4351  -39.8933 H         1 UNK         0.0600 
    169 H169        2.2093  -16.0078  -39.1994 H         1 UNK         0.3000 
    170 H170       -1.3236  -16.2250  -39.6400 H         1 UNK         0.0600 
    171 H171       -0.9160  -16.8164  -37.2438 H         1 UNK         0.0600 
    172 H172        0.3670  -15.6154  -37.1572 H         1 UNK         0.0600 
    173 H173       -1.3016  -15.1139  -37.4328 H         1 UNK         0.0600 
    174 H174        0.2340  -13.9730  -39.0570 H         1 UNK         0.3000 
    175 H175        0.1710  -12.3361  -40.7624 H         1 UNK         0.0600 
    176 H176        2.7924  -13.5534  -41.8410 H         1 UNK         0.0600 
    177 H177        2.5331  -11.8443  -41.4994 H         1 UNK         0.0600 
    178 H178        2.5256  -13.0112  -40.1869 H         1 UNK         0.0600 
    179 H179        0.3285  -13.6747  -43.3478 H         1 UNK         0.3000 
    180 H180       -1.3979  -11.1597  -44.9451 H         1 UNK         0.0600 
    181 H181        1.5481  -11.6667  -45.6355 H         1 UNK         0.0600 
    182 H182        0.8096  -10.0861  -45.4021 H         1 UNK         0.0600 
    183 H183        0.3105  -11.0919  -46.7529 H         1 UNK         0.0600 
    184 H184        0.0208  -13.5595  -45.8190 H         1 UNK         0.3000 
    185 H185       -1.2141  -15.8493  -45.1712 H         1 UNK         0.0600 
    186 H186       -3.6608  -15.9210  -44.6633 H         1 UNK         0.0600 
    187 H187       -4.0209  -15.3003  -46.2689 H         1 UNK         0.0600 
    188 H188       -3.2736  -16.8827  -46.0793 H         1 UNK         0.0600 
    189 H189       -2.1714  -15.3540  -47.8550 H         1 UNK         0.3000 
    190 H190       -0.9507  -22.4894  -45.0496 H         1 UNK         0.3000 
    191 H191       -3.4630  -23.1681  -46.1194 H         1 UNK         0.0600 
    192 H192       -2.1064  -24.0216  -43.5115 H         1 UNK         0.0600 
    193 H193       -3.8046  -24.2966  -43.8757 H         1 UNK         0.0600 
    194 H194       -3.2042  -22.6592  -43.7459 H         1 UNK         0.0600 
    195 H195       -0.5485  -25.0662  -46.0713 H         1 UNK         0.3000 
    196 H196       -1.6709  -27.6670  -46.5288 H         1 UNK         0.0600 
    197 H197        1.0365  -26.4586  -47.3216 H         1 UNK         0.0600 
    198 H198        0.6380  -28.1730  -47.3545 H         1 UNK         0.0600 
    199 H199        0.6858  -27.3159  -45.8215 H         1 UNK         0.0600 
    200 H200       -1.2642  -24.8366  -48.5640 H         1 UNK         0.3000 
    201 H201       -1.9424  -26.3272  -51.0468 H         1 UNK         0.0600 
    202 H202       -1.0255  -23.4350  -50.6432 H         1 UNK         0.0600 
    203 H203       -1.3731  -24.2188  -52.1836 H         1 UNK         0.0600 
    204 H204       -0.0286  -24.7701  -51.2038 H         1 UNK         0.0600 
    205 H205       -2.9541  -23.4030  -49.1688 H         1 UNK         0.3000 
    206 H206       -5.6489  -24.0781  -48.9991 H         1 UNK         0.0600 
    207 H207       -6.7632  -22.4805  -50.5721 H         1 UNK         0.0600 
    208 H208       -5.2160  -22.0546  -51.2717 H         1 UNK         0.0600 
    209 H209       -5.8724  -23.6746  -51.4827 H         1 UNK         0.0600 
    210 H210       -3.2326  -21.5071  -49.1243 H         1 UNK         0.3000 
    211 H211       -2.9098  -19.5657  -48.1042 H         1 UNK         0.0600 
    212 H212       -4.8401  -20.5226  -45.9316 H         1 UNK         0.0600 
    213 H213       -3.7102  -19.1875  -45.7966 H         1 UNK         0.0600 
    214 H214       -3.1052  -20.8105  -45.9813 H         1 UNK         0.0600 
    215 H215       -4.7622  -19.5922  -50.2309 H         1 UNK         0.3000 
    216 H216       -6.2080  -17.0796  -49.7272 H         1 UNK         0.0600 
    217 H217       -8.3259  -18.0438  -50.7049 H         1 UNK         0.0600 
    218 H218       -7.9210  -18.7331  -49.1426 H         1 UNK         0.0600 
    219 H219       -7.6168  -19.6540  -50.6078 H         1 UNK         0.0600 
    220 H220       -3.9843  -16.9996  -50.9494 H         1 UNK         0.3000 
    221 H221       -2.8181  -16.4816  -52.7817 H         1 UNK         0.0600 
    222 H222       -5.5264  -15.2294  -53.4826 H         1 UNK         0.0600 
    223 H223       -4.2652  -14.5299  -52.4780 H         1 UNK         0.0600 
    224 H224       -3.9773  -14.7644  -54.1906 H         1 UNK         0.0600 
    225 H225       -5.3032  -16.4020  -55.1212 H         1 UNK         0.3000 
    226 H226       -3.9953  -18.1033  -56.9436 H         1 UNK         0.0600 
    227 H227       -5.4915  -16.2454  -57.6173 H         1 UNK         0.0600 
    228 H228       -6.0607  -17.7534  -58.3139 H         1 UNK         0.0600 
    229 H229       -6.8829  -17.0725  -56.9149 H         1 UNK         0.0600 
    230 H230       -6.3327  -18.9408  -54.4296 H         1 UNK         0.3000 
    231 H231       -7.1636  -21.4661  -55.5643 H         1 UNK         0.0600 
    232 H232       -8.4478  -20.2398  -53.7805 H         1 UNK         0.0600 
    233 H233       -7.1314  -20.5471  -52.6475 H         1 UNK         0.0600 
    234 H234       -8.0564  -21.8875  -53.3047 H         1 UNK         0.0600 
    235 H235       -4.3240  -20.3848  -53.7914 H         1 UNK         0.3000 
    236 H236       -3.4265  -23.1187  -53.1141 H         1 UNK         0.0600 
    237 H237       -1.3994  -21.7044  -52.2414 H         1 UNK         0.0600 
    238 H238       -2.4368  -20.3118  -52.4740 H         1 UNK         0.0600 
    239 H239       -2.9190  -21.5868  -51.3741 H         1 UNK         0.0600 
    240 H240       -2.4520  -20.3532  -55.1960 H         1 UNK         0.3000 
    241 H241       -0.2930  -21.9397  -56.3942 H         1 UNK         0.0600 
    242 H242       -3.3687  -22.0612  -58.9874 H         1 UNK         0.3800 
    243 H243       -3.6582  -21.4175  -57.3984 H         1 UNK         0.3800 
    244 H244        0.0976  -19.7242  -57.6986 H         1 UNK         0.0800 
    245 H245       -1.0963  -19.0127  -56.6492 H         1 UNK         0.0800 
    246 H246       -0.4613  -17.9524  -54.4708 H         1 UNK         0.0800 
    247 H247       -0.7264  -19.5298  -53.7734 H         1 UNK         0.0800 
@<TRIPOS>BOND
     1    1    2 1    
     2    1  127 1    
     3    1  128 1    
     4    1  129 1    
     5    2    3 2    
     6    2    4 am   BACKBONE|DICT|INTERRES
     7    4    5 1    
     8    4  130 1    
     9    5    6 1    
    10    5   65 1    
    11    5  131 1    
    12    6    7 1    
    13    6  132 1    
    14    6  133 1    
    15    7    8 1    
    16    8    9 1    
    17    8  134 1    
    18    8  135 1    
    19    9   10 ar   
    20    9   14 ar   
    21   10   11 ar   
    22   10  136 1    
    23   11   12 ar   
    24   11  126 1    
    25   12   13 ar   
    26   12  137 1    
    27   13   14 ar   
    28   13   15 1    
    29   14  138 1    
    30   15   16 1    
    31   15  139 1    
    32   15  140 1    
    33   16   17 1    
    34   17   18 1    
    35   17  141 1    
    36   17  142 1    
    37   18   19 1    
    38   18   67 1    
    39   18  143 1    
    40   19   20 am   BACKBONE|DICT|INTERRES
    41   19  144 1    
    42   20   21 2    
    43   20   22 1    
    44   22   23 1    
    45   22   24 1    
    46   22  145 1    
    47   23  146 1    
    48   23  147 1    
    49   23  148 1    
    50   24   25 am   BACKBONE|DICT|INTERRES
    51   24  149 1    
    52   25   26 2    
    53   25   27 1    
    54   27   28 1    
    55   27   29 1    
    56   27  150 1    
    57   28  151 1    
    58   28  152 1    
    59   28  153 1    
    60   29   30 am   BACKBONE|DICT|INTERRES
    61   29  154 1    
    62   30   31 2    
    63   30   32 1    
    64   32   33 1    
    65   32   34 1    
    66   32  155 1    
    67   33  156 1    
    68   33  157 1    
    69   33  158 1    
    70   34   35 am   BACKBONE|DICT|INTERRES
    71   34  159 1    
    72   35   36 2    
    73   35   37 1    
    74   37   38 1    
    75   37   39 1    
    76   37  160 1    
    77   38  161 1    
    78   38  162 1    
    79   38  163 1    
    80   39   40 am   BACKBONE|DICT|INTERRES
    81   39  164 1    
    82   40   41 2    
    83   40   42 1    
    84   42   43 1    
    85   42   44 1    
    86   42  165 1    
    87   43  166 1    
    88   43  167 1    
    89   43  168 1    
    90   44   45 am   BACKBONE|DICT|INTERRES
    91   44  169 1    
    92   45   46 2    
    93   45   47 1    
    94   47   48 1    
    95   47   49 1    
    96   47  170 1    
    97   48  171 1    
    98   48  172 1    
    99   48  173 1    
   100   49   50 am   BACKBONE|DICT|INTERRES
   101   49  174 1    
   102   50   51 2    
   103   50   52 1    
   104   52   53 1    
   105   52   54 1    
   106   52  175 1    
   107   53  176 1    
   108   53  177 1    
   109   53  178 1    
   110   54   55 am   BACKBONE|DICT|INTERRES
   111   54  179 1    
   112   55   56 2    
   113   55   57 1    
   114   57   58 1    
   115   57   59 1    
   116   57  180 1    
   117   58  181 1    
   118   58  182 1    
   119   58  183 1    
   120   59   60 am   BACKBONE|DICT|INTERRES
   121   59  184 1    
   122   60   61 2    
   123   60   62 1    
   124   62   63 1    
   125   62   64 1    
   126   62  185 1    
   127   63  186 1    
   128   63  187 1    
   129   63  188 1    
   130   64   65 am   BACKBONE|DICT|INTERRES
   131   64  189 1    
   132   65   66 2    
   133   67   68 2    
   134   67   69 am   BACKBONE|DICT|INTERRES
   135   69   70 1    
   136   69  190 1    
   137   70   71 1    
   138   70   72 1    
   139   70  191 1    
   140   71  192 1    
   141   71  193 1    
   142   71  194 1    
   143   72   73 2    
   144   72   74 am   BACKBONE|DICT|INTERRES
   145   74   75 1    
   146   74  195 1    
   147   75   76 1    
   148   75   77 1    
   149   75  196 1    
   150   76  197 1    
   151   76  198 1    
   152   76  199 1    
   153   77   78 2    
   154   77   79 am   BACKBONE|DICT|INTERRES
   155   79   80 1    
   156   79  200 1    
   157   80   81 1    
   158   80   82 1    
   159   80  201 1    
   160   81  202 1    
   161   81  203 1    
   162   81  204 1    
   163   82   83 2    
   164   82   84 am   BACKBONE|DICT|INTERRES
   165   84   85 1    
   166   84  205 1    
   167   85   86 1    
   168   85   87 1    
   169   85  206 1    
   170   86  207 1    
   171   86  208 1    
   172   86  209 1    
   173   87   88 2    
   174   87   89 am   BACKBONE|DICT|INTERRES
   175   89   90 1    
   176   89  210 1    
   177   90   91 1    
   178   90   92 1    
   179   90  211 1    
   180   91  212 1    
   181   91  213 1    
   182   91  214 1    
   183   92   93 2    
   184   92   94 am   BACKBONE|DICT|INTERRES
   185   94   95 1    
   186   94  215 1    
   187   95   96 1    
   188   95   97 1    
   189   95  216 1    
   190   96  217 1    
   191   96  218 1    
   192   96  219 1    
   193   97   98 2    
   194   97   99 am   BACKBONE|DICT|INTERRES
   195   99  100 1    
   196   99  220 1    
   197  100  101 1    
   198  100  102 1    
   199  100  221 1    
   200  101  222 1    
   201  101  223 1    
   202  101  224 1    
   203  102  103 2    
   204  102  104 am   BACKBONE|DICT|INTERRES
   205  104  105 1    
   206  104  225 1    
   207  105  106 1    
   208  105  107 1    
   209  105  226 1    
   210  106  227 1    
   211  106  228 1    
   212  106  229 1    
   213  107  108 2    
   214  107  109 am   BACKBONE|DICT|INTERRES
   215  109  110 1    
   216  109  230 1    
   217  110  111 1    
   218  110  112 1    
   219  110  231 1    
   220  111  232 1    
   221  111  233 1    
   222  111  234 1    
   223  112  113 2    
   224  112  114 am   BACKBONE|DICT|INTERRES
   225  114  115 1    
   226  114  235 1    
   227  115  116 1    
   228  115  117 1    
   229  115  236 1    
   230  116  237 1    
   231  116  238 1    
   232  116  239 1    
   233  117  118 2    
   234  117  119 am   BACKBONE|DICT|INTERRES
   235  119  120 1    
   236  119  240 1    
   237  120  121 1    
   238  120  124 1    
   239  120  241 1    
   240  121  122 am   BACKBONE|DICT|INTERRES
   241  121  123 2    
   242  122  242 1    
   243  122  243 1    
   244  124  125 1    
   245  124  244 1    
   246  124  245 1    
   247  125  126 1    
   248  126  246 1    
   249  126  247 1    
@<TRIPOS>SUBSTRUCTURE
     1 UNK         1 GROUP             0       ****    0 ROOT    
