@<TRIPOS>MOLECULE
3R540
247   249    1
SMALL
USER_CHARGES


@<TRIPOS>ATOM
      1 CA         -1.8247  -10.0010  -45.3065 C.3       0 UNK        -0.1800 
      2 C          -2.4275  -10.6592  -46.5398 C.2       0 UNK         0.5000 
      3 O          -3.0231   -9.9743  -47.3714 O.2       0 UNK        -0.5000 
      4 N          -2.2750  -11.9811  -46.6592 N.am      1 UNK        -0.5000 
      5 CA         -2.7248  -12.7921  -47.7898 C.3       1 UNK         0.1400 
      6 C6         -4.2618  -13.0255  -47.7965 C.3       23 UNK        -0.0398 
      7 S7         -4.9177  -13.1190  -49.4938 S.3       23 UNK        -0.2404 
      8 C8         -6.5458  -13.8715  -49.2049 C.3       23 UNK        -0.0205 
      9 C9         -6.4690  -15.3892  -49.2038 C.ar      23 UNK        -0.0193 
     10 C10        -6.4036  -16.0787  -50.4174 C.ar      23 UNK        -0.1150 
     11 C11        -6.3756  -17.4748  -50.4414 C.ar      23 UNK        -0.0193 
     12 C12        -6.4015  -18.1838  -49.2377 C.ar      23 UNK        -0.1150 
     13 C13        -6.4699  -17.5050  -48.0170 C.ar      23 UNK        -0.0193 
     14 C14        -6.5001  -16.1069  -48.0047 C.ar      23 UNK        -0.1150 
     15 C15        -6.5492  -18.2846  -46.7157 C.3       23 UNK        -0.0205 
     16 S16        -4.9585  -18.2953  -45.8370 S.3       23 UNK        -0.2404 
     17 C17        -5.2955  -19.5754  -44.5844 C.3       23 UNK        -0.0398 
     18 CA         -4.5908  -20.9017  -44.9474 C.3       11 UNK         0.1400 
     19 N          -3.1325  -20.8271  -44.7695 N.am      11 UNK        -0.5000 
     20 C          -2.2764  -21.8051  -45.0948 C.2       10 UNK         0.5000 
     21 O          -2.6283  -22.8181  -45.6953 O.2       10 UNK        -0.5000 
     22 CA         -0.8091  -21.6906  -44.6461 C.3       10 UNK         0.1400 
     23 CB          0.0942  -21.4509  -45.8545 C.3       10 UNK        -0.1800 
     24 N          -0.5103  -20.6769  -43.6346 N.am      10 UNK        -0.5000 
     25 C          -1.0298  -20.6094  -42.4006 C.2       9 UNK         0.5000 
     26 O          -1.9746  -21.3005  -42.0133 O.2       9 UNK        -0.5000 
     27 CA         -0.3443  -19.6029  -41.4572 C.3       9 UNK         0.1400 
     28 CB         -0.8450  -19.6836  -40.0002 C.3       9 UNK        -0.1800 
     29 N           1.1168  -19.7097  -41.5402 N.am      9 UNK        -0.5000 
     30 C           1.8831  -20.7556  -41.1876 C.2       8 UNK         0.5000 
     31 O           1.4417  -21.7667  -40.6400 O.2       8 UNK        -0.5000 
     32 CA          3.3925  -20.6859  -41.5218 C.3       8 UNK         0.1400 
     33 CB          3.8937  -22.0115  -42.1218 C.3       8 UNK        -0.1800 
     34 N           3.7360  -19.6099  -42.4529 N.am      8 UNK        -0.5000 
     35 C           3.8801  -18.3169  -42.1471 C.2       7 UNK         0.5000 
     36 O           3.7982  -17.8900  -40.9950 O.2       7 UNK        -0.5000 
     37 CA          4.1410  -17.3248  -43.3028 C.3       7 UNK         0.1400 
     38 CB          5.4522  -16.5571  -43.0646 C.3       7 UNK        -0.1800 
     39 N           4.1762  -17.8679  -44.6682 N.am      7 UNK        -0.5000 
     40 C           3.2194  -18.5348  -45.3294 C.2       6 UNK         0.5000 
     41 O           2.1814  -18.9607  -44.8191 O.2       6 UNK        -0.5000 
     42 CA          3.4589  -18.6672  -46.8406 C.3       6 UNK         0.1400 
     43 CB          2.7695  -19.8853  -47.4726 C.3       6 UNK        -0.1800 
     44 N           2.9249  -17.4507  -47.4334 N.am      6 UNK        -0.5000 
     45 C           3.6584  -16.4446  -47.9213 C.2       5 UNK         0.5000 
     46 O           4.8717  -16.5083  -48.1227 O.2       5 UNK        -0.5000 
     47 CA          2.9130  -15.1184  -48.1560 C.3       5 UNK         0.1400 
     48 CB          2.0607  -15.1849  -49.4323 C.3       5 UNK        -0.1800 
     49 N           2.0647  -14.7561  -47.0175 N.am      5 UNK        -0.5000 
     50 C           2.5097  -14.4810  -45.7807 C.2       4 UNK         0.5000 
     51 O           3.7012  -14.4408  -45.4749 O.2       4 UNK        -0.5000 
     52 CA          1.4507  -14.2227  -44.6967 C.3       4 UNK         0.1400 
     53 CB          1.0172  -12.7482  -44.7032 C.3       4 UNK        -0.1800 
     54 N           0.2806  -15.0767  -44.8972 N.am      4 UNK        -0.5000 
     55 C           0.0375  -16.2095  -44.2250 C.2       3 UNK         0.5000 
     56 O           0.7233  -16.6082  -43.2834 O.2       3 UNK        -0.5000 
     57 CA         -1.1952  -17.0368  -44.6430 C.3       3 UNK         0.1400 
     58 CB         -2.3279  -16.8376  -43.6223 C.3       3 UNK        -0.1800 
     59 N          -1.7092  -16.7434  -45.9836 N.am      3 UNK        -0.5000 
     60 C          -1.0701  -17.0015  -47.1334 C.2       2 UNK         0.5000 
     61 O           0.0348  -17.5376  -47.1966 O.2       2 UNK        -0.5000 
     62 CA         -1.7425  -16.4958  -48.4275 C.3       2 UNK         0.1400 
     63 CB         -2.7268  -17.5379  -48.9750 C.3       2 UNK        -0.1800 
     64 N          -2.4245  -15.2009  -48.2979 N.am      2 UNK        -0.5000 
     65 C          -1.8682  -14.0743  -47.8276 C.2       1 UNK         0.5000 
     66 O          -0.7094  -14.0277  -47.4060 O.2       1 UNK        -0.5000 
     67 C          -5.2253  -22.0907  -44.1886 C.2       11 UNK         0.5000 
     68 O          -6.2223  -22.6374  -44.6609 O.2       11 UNK        -0.5000 
     69 N          -4.5991  -22.5269  -43.0840 N.am      12 UNK        -0.5000 
     70 CA         -4.9496  -23.7487  -42.3530 C.3       12 UNK         0.1400 
     71 CB         -4.1923  -23.7560  -41.0163 C.3       12 UNK        -0.1800 
     72 C          -4.6654  -25.0497  -43.1390 C.2       12 UNK         0.5000 
     73 O          -5.2214  -26.0930  -42.7952 O.2       12 UNK        -0.5000 
     74 N          -3.8199  -24.9667  -44.1746 N.am      13 UNK        -0.5000 
     75 CA         -3.4304  -26.0539  -45.0718 C.3       13 UNK         0.1400 
     76 CB         -1.9017  -26.2192  -44.9955 C.3       13 UNK        -0.1800 
     77 C          -3.9110  -25.7877  -46.5151 C.2       13 UNK         0.5000 
     78 O          -3.3365  -26.3356  -47.4570 O.2       13 UNK        -0.5000 
     79 N          -4.9535  -24.9531  -46.6653 N.am      14 UNK        -0.5000 
     80 CA         -5.5895  -24.5435  -47.9237 C.3       14 UNK         0.1400 
     81 CB         -6.2885  -25.7404  -48.6024 C.3       14 UNK        -0.1800 
     82 C          -4.6286  -23.7855  -48.8649 C.2       14 UNK         0.5000 
     83 O          -4.5500  -24.0879  -50.0560 O.2       14 UNK        -0.5000 
     84 N          -3.8933  -22.8268  -48.2874 N.am      15 UNK        -0.5000 
     85 CA         -2.9000  -21.9225  -48.8812 C.3       15 UNK         0.1400 
     86 CB         -3.4479  -21.1617  -50.1035 C.3       15 UNK        -0.1800 
     87 C          -1.5408  -22.5823  -49.1728 C.2       15 UNK         0.5000 
     88 O          -0.5283  -21.8867  -49.1089 O.2       15 UNK        -0.5000 
     89 N          -1.5243  -23.8961  -49.4408 N.am      16 UNK        -0.5000 
     90 CA         -0.3525  -24.7608  -49.6166 C.3       16 UNK         0.1400 
     91 CB          0.2533  -25.1024  -48.2385 C.3       16 UNK        -0.1800 
     92 C           0.6704  -24.1847  -50.6198 C.2       16 UNK         0.5000 
     93 O           0.3857  -24.1503  -51.8161 O.2       16 UNK        -0.5000 
     94 N           1.8224  -23.7107  -50.1264 N.am      17 UNK        -0.5000 
     95 CA          2.8778  -23.0758  -50.9190 C.3       17 UNK         0.1400 
     96 CB          4.1153  -22.8757  -50.0310 C.3       17 UNK        -0.1800 
     97 C           2.4572  -21.7419  -51.5710 C.2       17 UNK         0.5000 
     98 O           3.0063  -21.3845  -52.6137 O.2       17 UNK        -0.5000 
     99 N           1.4855  -21.0416  -50.9701 N.am      18 UNK        -0.5000 
    100 CA         0.9205  -19.7941  -51.4836 C.3       18 UNK         0.1400 
    101 CB         0.5581  -18.8745  -50.3078 C.3       18 UNK        -0.1800 
    102 C         -0.2916  -20.0213  -52.4069 C.2       18 UNK         0.5000 
    103 O         -0.8153  -19.0471  -52.9475 O.2       18 UNK        -0.5000 
    104 N         -0.7103  -21.2799  -52.6248 N.am      19 UNK        -0.5000 
    105 CA        -1.8302  -21.6316  -53.5082 C.3       19 UNK         0.1400 
    106 CB        -2.1586  -23.1248  -53.3783 C.3       19 UNK        -0.1800 
    107 C         -1.5981  -21.2548  -54.9862 C.2       19 UNK         0.5000 
    108 O         -2.5663  -21.0831  -55.7264 O.2       19 UNK        -0.5000 
    109 N         -0.3288  -21.0746  -55.3772 N.am      20 UNK        -0.5000 
    110 CA         0.0848  -20.5308  -56.6707 C.3       20 UNK         0.1400 
    111 CB         1.6100  -20.6616  -56.7995 C.3       20 UNK        -0.1800 
    112 C         -0.3528  -19.0667  -56.8904 C.2       20 UNK         0.5000 
    113 O         -0.5591  -18.6723  -58.0386 O.2       20 UNK        -0.5000 
    114 N         -0.5013  -18.2933  -55.8031 N.am      21 UNK        -0.5000 
    115 CA        -1.0448  -16.9343  -55.8347 C.3       21 UNK         0.1400 
    116 CB        -0.5279  -16.1396  -54.6245 C.3       21 UNK        -0.1800 
    117 C         -2.5839  -16.9453  -55.8643 C.2       21 UNK         0.5000 
    118 O         -3.1819  -16.0872  -56.5149 O.2       21 UNK        -0.5000 
    119 N         -3.1923  -17.9181  -55.1723 N.am      22 UNK        -0.5000 
    120 CA        -4.6426  -18.1672  -55.1699 C.3       22 UNK         0.1400 
    121 C         -5.1780  -18.6648  -56.5413 C.2       22 UNK         0.5000 
    122 N         -4.5014  -19.5988  -57.1975 N.am      22 UNK        -0.7600 
    123 O         -6.2128  -18.2003  -57.0113 O.2       22 UNK        -0.5000 
    124 C124       -5.0619  -19.1467  -54.0458 C.3       23 UNK        -0.0398 
    125 S125       -4.6831  -18.5073  -52.3792 S.3       23 UNK        -0.2404 
    126 C126       -6.3694  -18.2108  -51.7701 C.3       23 UNK        -0.0205 
    127 H127       -2.5841   -9.4224  -44.7804 H         1 UNK         0.0600 
    128 H128       -1.0201   -9.3256  -45.5972 H         1 UNK         0.0600 
    129 H129       -1.4186  -10.7361  -44.6116 H         1 UNK         0.0600 
    130 H130       -1.7221  -12.4866  -45.9811 H         1 UNK         0.3000 
    131 H131       -2.4482  -12.2401  -48.6909 H         1 UNK         0.0600 
    132 H132       -4.5457  -13.9057  -47.2173 H         1 UNK         0.0800 
    133 H133       -4.7751  -12.1901  -47.3188 H         1 UNK         0.0800 
    134 H134       -7.2248  -13.5484  -49.9955 H         1 UNK         0.0800 
    135 H135       -6.9716  -13.4994  -48.2716 H         1 UNK         0.0800 
    136 H136       -6.3887  -15.5262  -51.3466 H         1 UNK         0.1150 
    137 H137       -6.3867  -19.2644  -49.2534 H         1 UNK         0.1150 
    138 H138       -6.5620  -15.5821  -47.0617 H         1 UNK         0.1150 
    139 H139       -7.3151  -17.8488  -46.0725 H         1 UNK         0.0800 
    140 H140       -6.8603  -19.3116  -46.9145 H         1 UNK         0.0800 
    141 H141       -6.3762  -19.7097  -44.5041 H         1 UNK         0.0800 
    142 H142       -4.9681  -19.2171  -43.6074 H         1 UNK         0.0800 
    143 H143       -4.7724  -21.0967  -46.0066 H         1 UNK         0.0600 
    144 H144       -2.7772  -20.0242  -44.2743 H         1 UNK         0.3000 
    145 H145       -0.5411  -22.6563  -44.2130 H         1 UNK         0.0600 
    146 H146        1.1428  -21.4200  -45.5610 H         1 UNK         0.0600 
    147 H147       -0.0101  -22.2547  -46.5807 H         1 UNK         0.0600 
    148 H148       -0.1544  -20.5136  -46.3539 H         1 UNK         0.0600 
    149 H149        0.2709  -20.0701  -43.8525 H         1 UNK         0.3000 
    150 H150       -0.5938  -18.6109  -41.8304 H         1 UNK         0.0600 
    151 H151       -1.9108  -19.4593  -39.9448 H         1 UNK         0.0600 
    152 H152       -0.3283  -18.9637  -39.3656 H         1 UNK         0.0600 
    153 H153       -0.7012  -20.6751  -39.5706 H         1 UNK         0.0600 
    154 H154        1.5783  -18.9344  -41.9966 H         1 UNK         0.3000 
    155 H155        3.9212  -20.5182  -40.5814 H         1 UNK         0.0600 
    156 H156        3.3718  -22.2540  -43.0485 H         1 UNK         0.0600 
    157 H157        3.7412  -22.8417  -41.4311 H         1 UNK         0.0600 
    158 H158        4.9612  -21.9680  -42.3387 H         1 UNK         0.0600 
    159 H159        3.7382  -19.8520  -43.4337 H         1 UNK         0.3000 
    160 H160        3.3269  -16.6004  -43.2740 H         1 UNK         0.0600 
    161 H161        6.3169  -17.2207  -43.1034 H         1 UNK         0.0600 
    162 H162        5.4556  -16.0691  -42.0890 H         1 UNK         0.0600 
    163 H163        5.5940  -15.7754  -43.8113 H         1 UNK         0.0600 
    164 H164        4.9737  -17.5685  -45.2106 H         1 UNK         0.3000 
    165 H165        4.5326  -18.7625  -47.0155 H         1 UNK         0.0600 
    166 H166        3.0693  -20.0002  -48.5138 H         1 UNK         0.0600 
    167 H167        3.0365  -20.8057  -46.9530 H         1 UNK         0.0600 
    168 H168        1.6856  -19.7862  -47.4567 H         1 UNK         0.0600 
    169 H169        1.9262  -17.3121  -47.2921 H         1 UNK         0.3000 
    170 H170        3.6574  -14.3296  -48.2821 H         1 UNK         0.0600 
    171 H171        1.3146  -15.9762  -49.3749 H         1 UNK         0.0600 
    172 H172        1.5395  -14.2441  -49.6105 H         1 UNK         0.0600 
    173 H173        2.6825  -15.3855  -50.3055 H         1 UNK         0.0600 
    174 H174        1.0677  -14.6958  -47.1965 H         1 UNK         0.3000 
    175 H175        1.9078  -14.4309  -43.7271 H         1 UNK         0.0600 
    176 H176        0.5998  -12.4489  -45.6647 H         1 UNK         0.0600 
    177 H177        0.2689  -12.5555  -43.9345 H         1 UNK         0.0600 
    178 H178        1.8663  -12.0944  -44.5003 H         1 UNK         0.0600 
    179 H179       -0.3127  -14.8402  -45.6840 H         1 UNK         0.3000 
    180 H180       -0.8901  -18.0840  -44.6253 H         1 UNK         0.0600 
    181 H181       -3.1007  -17.5943  -43.7371 H         1 UNK         0.0600 
    182 H182       -2.7960  -15.8584  -43.7289 H         1 UNK         0.0600 
    183 H183       -1.9661  -16.9087  -42.5965 H         1 UNK         0.0600 
    184 H184       -2.6170  -16.3051  -46.0327 H         1 UNK         0.3000 
    185 H185       -0.9537  -16.3638  -49.1680 H         1 UNK         0.0600 
    186 H186       -3.0654  -17.2745  -49.9772 H         1 UNK         0.0600 
    187 H187       -2.2668  -18.5237  -49.0357 H         1 UNK         0.0600 
    188 H188       -3.6063  -17.6298  -48.3409 H         1 UNK         0.0600 
    189 H189       -3.3730  -15.1630  -48.6453 H         1 UNK         0.3000 
    190 H190       -3.7694  -22.0376  -42.7621 H         1 UNK         0.3000 
    191 H191       -6.0202  -23.7220  -42.1404 H         1 UNK         0.0600 
    192 H192       -4.4603  -24.6277  -40.4179 H         1 UNK         0.0600 
    193 H193       -4.4269  -22.8710  -40.4244 H         1 UNK         0.0600 
    194 H194       -3.1123  -23.7802  -41.1677 H         1 UNK         0.0600 
    195 H195       -3.4335  -24.0618  -44.4219 H         1 UNK         0.3000 
    196 H196       -3.8907  -26.9923  -44.7573 H         1 UNK         0.0600 
    197 H197       -1.3851  -25.3207  -45.3348 H         1 UNK         0.0600 
    198 H198       -1.5796  -26.4235  -43.9744 H         1 UNK         0.0600 
    199 H199       -1.5610  -27.0509  -45.6133 H         1 UNK         0.0600 
    200 H200       -5.3473  -24.5445  -45.8279 H         1 UNK         0.3000 
    201 H201       -6.3662  -23.8279  -47.6498 H         1 UNK         0.0600 
    202 H202       -6.8652  -25.4145  -49.4688 H         1 UNK         0.0600 
    203 H203       -6.9811  -26.2316  -47.9190 H         1 UNK         0.0600 
    204 H204       -5.5737  -26.4868  -48.9497 H         1 UNK         0.0600 
    205 H205       -3.9099  -22.7940  -47.2745 H         1 UNK         0.3000 
    206 H206       -2.7034  -21.1744  -48.1116 H         1 UNK         0.0600 
    207 H207       -4.3551  -20.6131  -49.8521 H         1 UNK         0.0600 
    208 H208       -2.7216  -20.4338  -50.4657 H         1 UNK         0.0600 
    209 H209       -3.6762  -21.8248  -50.9367 H         1 UNK         0.0600 
    210 H210       -2.4227  -24.3566  -49.5155 H         1 UNK         0.3000 
    211 H211       -0.7185  -25.6903  -50.0548 H         1 UNK         0.0600 
    212 H212        1.1044  -25.7774  -48.3371 H         1 UNK         0.0600 
    213 H213       -0.4818  -25.6067  -47.6121 H         1 UNK         0.0600 
    214 H214        0.5887  -24.2157  -47.7015 H         1 UNK         0.0600 
    215 H215        1.9654  -23.7453  -49.1279 H         1 UNK         0.3000 
    216 H216        3.1457  -23.7603  -51.7265 H         1 UNK         0.0600 
    217 H217        3.8977  -22.2367  -49.1750 H         1 UNK         0.0600 
    218 H218        4.9281  -22.4105  -50.5904 H         1 UNK         0.0600 
    219 H219        4.4870  -23.8281  -49.6527 H         1 UNK         0.0600 
    220 H220        1.0260  -21.4274  -50.1485 H         1 UNK         0.3000 
    221 H221        1.6709  -19.2727  -52.0812 H         1 UNK         0.0600 
    222 H222        1.4462  -18.5886  -49.7460 H         1 UNK         0.0600 
    223 H223       -0.1346  -19.3514  -49.6158 H         1 UNK         0.0600 
    224 H224        0.0930  -17.9530  -50.6586 H         1 UNK         0.0600 
    225 H225       -0.2241  -22.0483  -52.1789 H         1 UNK         0.3000 
    226 H226       -2.6973  -21.0680  -53.1618 H         1 UNK         0.0600 
    227 H227       -1.3526  -23.7481  -53.7665 H         1 UNK         0.0600 
    228 H228       -2.3347  -23.4066  -52.3401 H         1 UNK         0.0600 
    229 H229       -3.0609  -23.3736  -53.9383 H         1 UNK         0.0600 
    230 H230        0.4035  -21.2484  -54.7044 H         1 UNK         0.3000 
    231 H231       -0.3798  -21.1346  -57.4529 H         1 UNK         0.0600 
    232 H232        2.1290  -20.0989  -56.0224 H         1 UNK         0.0600 
    233 H233        1.9546  -20.2855  -57.7637 H         1 UNK         0.0600 
    234 H234        1.9245  -21.7029  -56.7269 H         1 UNK         0.0600 
    235 H235       -0.3528  -18.6923  -54.8828 H         1 UNK         0.3000 
    236 H236       -0.6933  -16.4308  -56.7379 H         1 UNK         0.0600 
    237 H237       -0.9013  -16.5412  -53.6823 H         1 UNK         0.0600 
    238 H238        0.5614  -16.1440  -54.5839 H         1 UNK         0.0600 
    239 H239       -0.8476  -15.0985  -54.6815 H         1 UNK         0.0600 
    240 H240       -2.6245  -18.5591  -54.6379 H         1 UNK         0.3000 
    241 H241       -5.1329  -17.2122  -54.9700 H         1 UNK         0.0600 
    242 H242       -4.8384  -19.9246  -58.0891 H         1 UNK         0.3800 
    243 H243       -3.6968  -20.0496  -56.7672 H         1 UNK         0.3800 
    244 H244       -4.5651  -20.1084  -54.1698 H         1 UNK         0.0800 
    245 H245       -6.1301  -19.3619  -54.1104 H         1 UNK         0.0800 
    246 H246       -6.9255  -17.6323  -52.5098 H         1 UNK         0.0800 
    247 H247       -6.8894  -19.1651  -51.6714 H         1 UNK         0.0800 
@<TRIPOS>BOND
     1    1    2 1    
     2    1  127 1    
     3    1  128 1    
     4    1  129 1    
     5    2    3 2    
     6    2    4 am   BACKBONE|DICT|INTERRES
     7    4    5 1    
     8    4  130 1    
     9    5    6 1    
    10    5   65 1    
    11    5  131 1    
    12    6    7 1    
    13    6  132 1    
    14    6  133 1    
    15    7    8 1    
    16    8    9 1    
    17    8  134 1    
    18    8  135 1    
    19    9   10 ar   
    20    9   14 ar   
    21   10   11 ar   
    22   10  136 1    
    23   11   12 ar   
    24   11  126 1    
    25   12   13 ar   
    26   12  137 1    
    27   13   14 ar   
    28   13   15 1    
    29   14  138 1    
    30   15   16 1    
    31   15  139 1    
    32   15  140 1    
    33   16   17 1    
    34   17   18 1    
    35   17  141 1    
    36   17  142 1    
    37   18   19 1    
    38   18   67 1    
    39   18  143 1    
    40   19   20 am   BACKBONE|DICT|INTERRES
    41   19  144 1    
    42   20   21 2    
    43   20   22 1    
    44   22   23 1    
    45   22   24 1    
    46   22  145 1    
    47   23  146 1    
    48   23  147 1    
    49   23  148 1    
    50   24   25 am   BACKBONE|DICT|INTERRES
    51   24  149 1    
    52   25   26 2    
    53   25   27 1    
    54   27   28 1    
    55   27   29 1    
    56   27  150 1    
    57   28  151 1    
    58   28  152 1    
    59   28  153 1    
    60   29   30 am   BACKBONE|DICT|INTERRES
    61   29  154 1    
    62   30   31 2    
    63   30   32 1    
    64   32   33 1    
    65   32   34 1    
    66   32  155 1    
    67   33  156 1    
    68   33  157 1    
    69   33  158 1    
    70   34   35 am   BACKBONE|DICT|INTERRES
    71   34  159 1    
    72   35   36 2    
    73   35   37 1    
    74   37   38 1    
    75   37   39 1    
    76   37  160 1    
    77   38  161 1    
    78   38  162 1    
    79   38  163 1    
    80   39   40 am   BACKBONE|DICT|INTERRES
    81   39  164 1    
    82   40   41 2    
    83   40   42 1    
    84   42   43 1    
    85   42   44 1    
    86   42  165 1    
    87   43  166 1    
    88   43  167 1    
    89   43  168 1    
    90   44   45 am   BACKBONE|DICT|INTERRES
    91   44  169 1    
    92   45   46 2    
    93   45   47 1    
    94   47   48 1    
    95   47   49 1    
    96   47  170 1    
    97   48  171 1    
    98   48  172 1    
    99   48  173 1    
   100   49   50 am   BACKBONE|DICT|INTERRES
   101   49  174 1    
   102   50   51 2    
   103   50   52 1    
   104   52   53 1    
   105   52   54 1    
   106   52  175 1    
   107   53  176 1    
   108   53  177 1    
   109   53  178 1    
   110   54   55 am   BACKBONE|DICT|INTERRES
   111   54  179 1    
   112   55   56 2    
   113   55   57 1    
   114   57   58 1    
   115   57   59 1    
   116   57  180 1    
   117   58  181 1    
   118   58  182 1    
   119   58  183 1    
   120   59   60 am   BACKBONE|DICT|INTERRES
   121   59  184 1    
   122   60   61 2    
   123   60   62 1    
   124   62   63 1    
   125   62   64 1    
   126   62  185 1    
   127   63  186 1    
   128   63  187 1    
   129   63  188 1    
   130   64   65 am   BACKBONE|DICT|INTERRES
   131   64  189 1    
   132   65   66 2    
   133   67   68 2    
   134   67   69 am   BACKBONE|DICT|INTERRES
   135   69   70 1    
   136   69  190 1    
   137   70   71 1    
   138   70   72 1    
   139   70  191 1    
   140   71  192 1    
   141   71  193 1    
   142   71  194 1    
   143   72   73 2    
   144   72   74 am   BACKBONE|DICT|INTERRES
   145   74   75 1    
   146   74  195 1    
   147   75   76 1    
   148   75   77 1    
   149   75  196 1    
   150   76  197 1    
   151   76  198 1    
   152   76  199 1    
   153   77   78 2    
   154   77   79 am   BACKBONE|DICT|INTERRES
   155   79   80 1    
   156   79  200 1    
   157   80   81 1    
   158   80   82 1    
   159   80  201 1    
   160   81  202 1    
   161   81  203 1    
   162   81  204 1    
   163   82   83 2    
   164   82   84 am   BACKBONE|DICT|INTERRES
   165   84   85 1    
   166   84  205 1    
   167   85   86 1    
   168   85   87 1    
   169   85  206 1    
   170   86  207 1    
   171   86  208 1    
   172   86  209 1    
   173   87   88 2    
   174   87   89 am   BACKBONE|DICT|INTERRES
   175   89   90 1    
   176   89  210 1    
   177   90   91 1    
   178   90   92 1    
   179   90  211 1    
   180   91  212 1    
   181   91  213 1    
   182   91  214 1    
   183   92   93 2    
   184   92   94 am   BACKBONE|DICT|INTERRES
   185   94   95 1    
   186   94  215 1    
   187   95   96 1    
   188   95   97 1    
   189   95  216 1    
   190   96  217 1    
   191   96  218 1    
   192   96  219 1    
   193   97   98 2    
   194   97   99 am   BACKBONE|DICT|INTERRES
   195   99  100 1    
   196   99  220 1    
   197  100  101 1    
   198  100  102 1    
   199  100  221 1    
   200  101  222 1    
   201  101  223 1    
   202  101  224 1    
   203  102  103 2    
   204  102  104 am   BACKBONE|DICT|INTERRES
   205  104  105 1    
   206  104  225 1    
   207  105  106 1    
   208  105  107 1    
   209  105  226 1    
   210  106  227 1    
   211  106  228 1    
   212  106  229 1    
   213  107  108 2    
   214  107  109 am   BACKBONE|DICT|INTERRES
   215  109  110 1    
   216  109  230 1    
   217  110  111 1    
   218  110  112 1    
   219  110  231 1    
   220  111  232 1    
   221  111  233 1    
   222  111  234 1    
   223  112  113 2    
   224  112  114 am   BACKBONE|DICT|INTERRES
   225  114  115 1    
   226  114  235 1    
   227  115  116 1    
   228  115  117 1    
   229  115  236 1    
   230  116  237 1    
   231  116  238 1    
   232  116  239 1    
   233  117  118 2    
   234  117  119 am   BACKBONE|DICT|INTERRES
   235  119  120 1    
   236  119  240 1    
   237  120  121 1    
   238  120  124 1    
   239  120  241 1    
   240  121  122 am   BACKBONE|DICT|INTERRES
   241  121  123 2    
   242  122  242 1    
   243  122  243 1    
   244  124  125 1    
   245  124  244 1    
   246  124  245 1    
   247  125  126 1    
   248  126  246 1    
   249  126  247 1    
@<TRIPOS>SUBSTRUCTURE
     1 UNK         1 GROUP             0       ****    0 ROOT    
