@<TRIPOS>MOLECULE
3R540
247   249    1
SMALL
USER_CHARGES


@<TRIPOS>ATOM
      1 CA          3.8722  -11.1459  -51.2288 C.3       0 UNK        -0.1800 
      2 C           3.3570  -12.2552  -50.3224 C.2       0 UNK         0.5000 
      3 O           2.2225  -12.1789  -49.8530 O.2       0 UNK        -0.5000 
      4 N           4.1901  -13.2782  -50.0822 N.am      1 UNK        -0.5000 
      5 CA          3.9134  -14.4563  -49.2412 C.3       1 UNK         0.1400 
      6 C6          2.6987  -15.3097  -49.7148 C.3       23 UNK        -0.0398 
      7 S7          2.7904  -15.7611  -51.4841 S.3       23 UNK        -0.2404 
      8 C8          3.4423  -17.4605  -51.4376 C.3       23 UNK        -0.0205 
      9 C9          2.4476  -18.4492  -52.0262 C.ar      23 UNK        -0.0193 
     10 C10         2.3092  -18.5581  -53.4123 C.ar      23 UNK        -0.1150 
     11 C11         1.4123  -19.4734  -53.9703 C.ar      23 UNK        -0.0193 
     12 C12         0.6409  -20.2812  -53.1292 C.ar      23 UNK        -0.1150 
     13 C13         0.7719  -20.1844  -51.7399 C.ar      23 UNK        -0.0193 
     14 C14         1.6801  -19.2689  -51.1953 C.ar      23 UNK        -0.1150 
     15 C15        -0.0425  -21.0884  -50.8271 C.3       23 UNK        -0.0205 
     16 S16        -1.0643  -20.1254  -49.6720 S.3       23 UNK        -0.2404 
     17 C17        -2.0814  -21.4139  -48.8845 C.3       23 UNK        -0.0398 
     18 CA         -1.2810  -22.4031  -48.0047 C.3       11 UNK         0.1400 
     19 N          -0.5513  -21.7616  -46.9070 N.am      11 UNK        -0.5000 
     20 C           0.3359  -22.3966  -46.1263 C.2       10 UNK         0.5000 
     21 O           0.6285  -23.5868  -46.2490 O.2       10 UNK        -0.5000 
     22 CA          0.9740  -21.5848  -44.9881 C.3       10 UNK         0.1400 
     23 CB          2.0486  -20.6312  -45.5322 C.3       10 UNK        -0.1800 
     24 N          -0.0082  -20.8402  -44.2003 N.am      10 UNK        -0.5000 
     25 C          -1.0000  -21.4016  -43.4937 C.2       9 UNK         0.5000 
     26 O          -1.1943  -22.6142  -43.4296 O.2       9 UNK        -0.5000 
     27 CA         -1.9641  -20.4531  -42.7621 C.3       9 UNK         0.1400 
     28 CB         -1.3251  -19.9055  -41.4773 C.3       9 UNK        -0.1800 
     29 N          -2.4116  -19.3458  -43.6029 N.am      9 UNK        -0.5000 
     30 C          -3.1132  -19.4872  -44.7370 C.2       8 UNK         0.5000 
     31 O          -3.4918  -20.5691  -45.1884 O.2       8 UNK        -0.5000 
     32 CA         -3.3988  -18.1987  -45.5249 C.3       8 UNK         0.1400 
     33 CB         -4.5187  -17.3931  -44.8482 C.3       8 UNK        -0.1800 
     34 N          -2.2142  -17.3579  -45.6936 N.am      8 UNK        -0.5000 
     35 C          -1.0713  -17.7582  -46.2717 C.2       7 UNK         0.5000 
     36 O          -0.8827  -18.8898  -46.7136 O.2       7 UNK        -0.5000 
     37 CA          0.0790  -16.7404  -46.2983 C.3       7 UNK         0.1400 
     38 CB         -0.2178  -15.6154  -47.3039 C.3       7 UNK        -0.1800 
     39 N           0.3320  -16.1757  -44.9738 N.am      7 UNK        -0.5000 
     40 C           0.6656  -16.8803  -43.8825 C.2       6 UNK         0.5000 
     41 O           0.8609  -18.0949  -43.8767 O.2       6 UNK        -0.5000 
     42 CA          0.7306  -16.1058  -42.5566 C.3       6 UNK         0.1400 
     43 CB          2.0590  -15.3447  -42.4208 C.3       6 UNK        -0.1800 
     44 N          -0.3947  -15.1821  -42.4135 N.am      6 UNK        -0.5000 
     45 C          -1.6707  -15.5624  -42.2525 C.2       5 UNK         0.5000 
     46 O          -2.0316  -16.7366  -42.1697 O.2       5 UNK        -0.5000 
     47 CA         -2.7236  -14.4400  -42.2088 C.3       5 UNK         0.1400 
     48 CB         -2.8312  -13.8525  -40.7937 C.3       5 UNK        -0.1800 
     49 N          -2.4369  -13.3654  -43.1601 N.am      5 UNK        -0.5000 
     50 C          -2.5061  -13.5009  -44.4919 C.2       4 UNK         0.5000 
     51 O          -2.8548  -14.5373  -45.0564 O.2       4 UNK        -0.5000 
     52 CA         -2.0603  -12.2885  -45.3323 C.3       4 UNK         0.1400 
     53 CB         -3.2133  -11.2863  -45.4914 C.3       4 UNK        -0.1800 
     54 N          -0.8831  -11.5984  -44.7910 N.am      4 UNK        -0.5000 
     55 C           0.3122  -12.1759  -44.6134 C.2       3 UNK         0.5000 
     56 O           0.5257  -13.3690  -44.8293 O.2       3 UNK        -0.5000 
     57 CA          1.4410  -11.2951  -44.0486 C.3       3 UNK         0.1400 
     58 CB          1.3839  -11.2785  -42.5129 C.3       3 UNK        -0.1800 
     59 N           2.7551  -11.7877  -44.4662 N.am      3 UNK        -0.5000 
     60 C           3.2293  -11.7127  -45.7165 C.2       2 UNK         0.5000 
     61 O           2.6618  -11.0890  -46.6161 O.2       2 UNK        -0.5000 
     62 CA          4.5781  -12.4046  -46.0148 C.3       2 UNK         0.1400 
     63 CB          5.0556  -13.3830  -44.9157 C.3       2 UNK        -0.1800 
     64 N           4.5712  -13.0391  -47.3382 N.am      2 UNK        -0.5000 
     65 C           3.8441  -14.0966  -47.7356 C.2       1 UNK         0.5000 
     66 O           3.1637  -14.7826  -46.9735 O.2       1 UNK        -0.5000 
     67 C          -2.1969  -23.5347  -47.5063 C.2       11 UNK         0.5000 
     68 O          -2.2141  -24.5997  -48.1251 O.2       11 UNK        -0.5000 
     69 N          -2.8992  -23.3022  -46.3874 N.am      12 UNK        -0.5000 
     70 CA         -3.7679  -24.2849  -45.7425 C.3       12 UNK         0.1400 
     71 CB         -4.6111  -23.5968  -44.6587 C.3       12 UNK        -0.1800 
     72 C          -2.9900  -25.4770  -45.1567 C.2       12 UNK         0.5000 
     73 O          -3.4069  -26.6188  -45.3513 O.2       12 UNK        -0.5000 
     74 N          -1.8701  -25.1998  -44.4724 N.am      13 UNK        -0.5000 
     75 CA         -0.9981  -26.2057  -43.8608 C.3       13 UNK         0.1400 
     76 CB          0.0344  -25.5181  -42.9547 C.3       13 UNK        -0.1800 
     77 C          -0.2947  -27.0993  -44.8961 C.2       13 UNK         0.5000 
     78 O          -0.2112  -28.3116  -44.6949 O.2       13 UNK        -0.5000 
     79 N           0.1786  -26.4916  -45.9922 N.am      14 UNK        -0.5000 
     80 CA          0.7951  -27.1947  -47.1182 C.3       14 UNK         0.1400 
     81 CB          1.5940  -26.1833  -47.9553 C.3       14 UNK        -0.1800 
     82 C          -0.2280  -27.9237  -48.0106 C.2       14 UNK         0.5000 
     83 O           0.1620  -28.8232  -48.7559 O.2       14 UNK        -0.5000 
     84 N          -1.4982  -27.4924  -47.9493 N.am      15 UNK        -0.5000 
     85 CA         -2.6079  -27.8414  -48.8450 C.3       15 UNK         0.1400 
     86 CB         -3.0027  -29.3244  -48.6922 C.3       15 UNK        -0.1800 
     87 C          -2.3143  -27.4311  -50.3056 C.2       15 UNK         0.5000 
     88 O          -2.6934  -28.1338  -51.2444 O.2       15 UNK        -0.5000 
     89 N          -1.6062  -26.3050  -50.4579 N.am      16 UNK        -0.5000 
     90 CA         -1.0941  -25.7962  -51.7275 C.3       16 UNK         0.1400 
     91 CB          0.1722  -24.9705  -51.4511 C.3       16 UNK        -0.1800 
     92 C          -2.1291  -24.9514  -52.4855 C.2       16 UNK         0.5000 
     93 O          -2.0940  -24.9157  -53.7159 O.2       16 UNK        -0.5000 
     94 N          -3.0225  -24.2873  -51.7450 N.am      17 UNK        -0.5000 
     95 CA         -4.0727  -23.4099  -52.2486 C.3       17 UNK         0.1400 
     96 CB         -3.4638  -22.1123  -52.8250 C.3       17 UNK        -0.1800 
     97 C          -5.0468  -23.1034  -51.1004 C.2       17 UNK         0.5000 
     98 O          -4.8373  -23.5570  -49.9716 O.2       17 UNK        -0.5000 
     99 N          -6.0827  -22.3157  -51.4078 N.am      18 UNK        -0.5000 
    100 CA        -7.0042  -21.7265  -50.4366 C.3       18 UNK         0.1400 
    101 CB        -8.2267  -21.1914  -51.2032 C.3       18 UNK        -0.1800 
    102 C         -6.3360  -20.6009  -49.6179 C.2       18 UNK         0.5000 
    103 O         -5.1976  -20.2158  -49.8945 O.2       18 UNK        -0.5000 
    104 N         -7.0808  -20.0459  -48.6518 N.am      19 UNK        -0.5000 
    105 CA        -6.6551  -18.9368  -47.7880 C.3       19 UNK         0.1400 
    106 CB        -7.7525  -18.6647  -46.7481 C.3       19 UNK        -0.1800 
    107 C         -6.2921  -17.6375  -48.5419 C.2       19 UNK         0.5000 
    108 O         -5.5160  -16.8339  -48.0287 O.2       19 UNK        -0.5000 
    109 N         -6.8342  -17.4675  -49.7549 N.am      20 UNK        -0.5000 
    110 CA        -6.5140  -16.3771  -50.6790 C.3       20 UNK         0.1400 
    111 CB        -7.6735  -16.2412  -51.6802 C.3       20 UNK        -0.1800 
    112 C         -5.1716  -16.5633  -51.4242 C.2       20 UNK         0.5000 
    113 O         -4.7838  -15.6703  -52.1794 O.2       20 UNK        -0.5000 
    114 N         -4.5053  -17.7113  -51.2264 N.am      21 UNK        -0.5000 
    115 CA        -3.3229  -18.1973  -51.9411 C.3       21 UNK         0.1400 
    116 CB        -2.1106  -17.2566  -51.7531 C.3       21 UNK        -0.1800 
    117 C         -3.6400  -18.5290  -53.4137 C.2       21 UNK         0.5000 
    118 O         -4.8057  -18.7413  -53.7585 O.2       21 UNK        -0.5000 
    119 N         -2.6020  -18.6209  -54.2528 N.am      22 UNK        -0.5000 
    120 CA        -2.7203  -18.9503  -55.6829 C.3       22 UNK         0.1400 
    121 C         -3.2468  -17.7993  -56.5946 C.2       22 UNK         0.5000 
    122 N         -3.4526  -16.5874  -56.0928 N.am      22 UNK        -0.7600 
    123 O         -3.4887  -18.0152  -57.7792 O.2       22 UNK        -0.5000 
    124 C124       -1.4222  -19.5953  -56.2304 C.3       23 UNK        -0.0398 
    125 S125        0.0425  -18.5015  -56.1770 S.3       23 UNK        -0.2404 
    126 C126        1.3123  -19.6036  -55.4819 C.3       23 UNK        -0.0205 
    127 H127        3.8704  -10.1951  -50.6957 H         1 UNK         0.0600 
    128 H128        3.2299  -11.0486  -52.1040 H         1 UNK         0.0600 
    129 H129        4.8882  -11.3408  -51.5731 H         1 UNK         0.0600 
    130 H130        5.1007  -13.2739  -50.5205 H         1 UNK         0.3000 
    131 H131        4.7960  -15.0906  -49.3359 H         1 UNK         0.0600 
    132 H132        2.6036  -16.2171  -49.1165 H         1 UNK         0.0800 
    133 H133        1.7685  -14.7615  -49.5616 H         1 UNK         0.0800 
    134 H134        4.3681  -17.4944  -52.0138 H         1 UNK         0.0800 
    135 H135        3.7139  -17.7480  -50.4211 H         1 UNK         0.0800 
    136 H136        2.9062  -17.9296  -54.0584 H         1 UNK         0.1150 
    137 H137       -0.0487  -20.9953  -53.5567 H         1 UNK         0.1150 
    138 H138        1.7851  -19.1954  -50.1218 H         1 UNK         0.1150 
    139 H139       -0.6806  -21.7543  -51.4091 H         1 UNK         0.0800 
    140 H140        0.6460  -21.7198  -50.2651 H         1 UNK         0.0800 
    141 H141       -2.6134  -21.9446  -49.6741 H         1 UNK         0.0800 
    142 H142       -2.8475  -20.9124  -48.2897 H         1 UNK         0.0800 
    143 H143       -0.5324  -22.8813  -48.6378 H         1 UNK         0.0600 
    144 H144       -0.7221  -20.7675  -46.7638 H         1 UNK         0.3000 
    145 H145        1.4635  -22.2923  -44.3158 H         1 UNK         0.0600 
    146 H146        2.5809  -20.1349  -44.7207 H         1 UNK         0.0600 
    147 H147        2.7887  -21.1719  -46.1235 H         1 UNK         0.0600 
    148 H148        1.6184  -19.8589  -46.1704 H         1 UNK         0.0600 
    149 H149        0.0964  -19.8288  -44.1895 H         1 UNK         0.3000 
    150 H150       -2.8467  -21.0314  -42.4812 H         1 UNK         0.0600 
    151 H151       -2.0377  -19.3095  -40.9069 H         1 UNK         0.0600 
    152 H152       -0.4614  -19.2759  -41.6930 H         1 UNK         0.0600 
    153 H153       -0.9885  -20.7172  -40.8311 H         1 UNK         0.0600 
    154 H154       -2.1564  -18.4122  -43.2960 H         1 UNK         0.3000 
    155 H155       -3.7282  -18.4859  -46.5240 H         1 UNK         0.0600 
    156 H156       -5.4140  -18.0016  -44.7185 H         1 UNK         0.0600 
    157 H157       -4.2199  -17.0351  -43.8629 H         1 UNK         0.0600 
    158 H158       -4.7975  -16.5249  -45.4450 H         1 UNK         0.0600 
    159 H159       -2.2922  -16.3978  -45.3708 H         1 UNK         0.3000 
    160 H160        0.9873  -17.2557  -46.6170 H         1 UNK         0.0600 
    161 H161        0.5789  -14.8732  -47.3185 H         1 UNK         0.0600 
    162 H162       -1.1447  -15.0930  -47.0690 H         1 UNK         0.0600 
    163 H163       -0.3134  -16.0146  -48.3144 H         1 UNK         0.0600 
    164 H164        0.2568  -15.1635  -44.8922 H         1 UNK         0.3000 
    165 H165        0.6746  -16.8322  -41.7430 H         1 UNK         0.0600 
    166 H166        2.1199  -14.8229  -41.4659 H         1 UNK         0.0600 
    167 H167        2.9045  -16.0319  -42.4703 H         1 UNK         0.0600 
    168 H168        2.1919  -14.6110  -43.2153 H         1 UNK         0.0600 
    169 H169       -0.1953  -14.2017  -42.5390 H         1 UNK         0.3000 
    170 H170       -3.6891  -14.8788  -42.4699 H         1 UNK         0.0600 
    171 H171       -1.9013  -13.3750  -40.4821 H         1 UNK         0.0600 
    172 H172       -3.6267  -13.1096  -40.7349 H         1 UNK         0.0600 
    173 H173       -3.0607  -14.6313  -40.0651 H         1 UNK         0.0600 
    174 H174       -2.1398  -12.4795  -42.7789 H         1 UNK         0.3000 
    175 H175       -1.7951  -12.6605  -46.3242 H         1 UNK         0.0600 
    176 H176       -2.9407  -10.4752  -46.1669 H         1 UNK         0.0600 
    177 H177       -3.5008  -10.8462  -44.5357 H         1 UNK         0.0600 
    178 H178       -4.0969  -11.7713  -45.9087 H         1 UNK         0.0600 
    179 H179       -0.9934  -10.6175  -44.5776 H         1 UNK         0.3000 
    180 H180        1.3134  -10.2759  -44.4192 H         1 UNK         0.0600 
    181 H181        1.5099  -12.2767  -42.0921 H         1 UNK         0.0600 
    182 H182        0.4273  -10.8918  -42.1592 H         1 UNK         0.0600 
    183 H183        2.1633  -10.6396  -42.0970 H         1 UNK         0.0600 
    184 H184        3.2666  -12.3346  -43.7904 H         1 UNK         0.3000 
    185 H185        5.3152  -11.6027  -46.0745 H         1 UNK         0.0600 
    186 H186        4.3207  -14.1614  -44.7076 H         1 UNK         0.0600 
    187 H187        5.9835  -13.8747  -45.2076 H         1 UNK         0.0600 
    188 H188        5.2558  -12.8587  -43.9807 H         1 UNK         0.0600 
    189 H189        5.0677  -12.5330  -48.0574 H         1 UNK         0.3000 
    190 H190       -2.8403  -22.3910  -45.9440 H         1 UNK         0.3000 
    191 H191       -4.4491  -24.6748  -46.5020 H         1 UNK         0.0600 
    192 H192       -5.2361  -22.8126  -45.0862 H         1 UNK         0.0600 
    193 H193       -5.2741  -24.3095  -44.1667 H         1 UNK         0.0600 
    194 H194       -3.9854  -23.1426  -43.8894 H         1 UNK         0.0600 
    195 H195       -1.6127  -24.2278  -44.3164 H         1 UNK         0.3000 
    196 H196       -1.6195  -26.8502  -43.2355 H         1 UNK         0.0600 
    197 H197        0.6985  -26.2487  -42.4913 H         1 UNK         0.0600 
    198 H198       -0.4532  -24.9672  -42.1504 H         1 UNK         0.0600 
    199 H199        0.6547  -24.8159  -43.5134 H         1 UNK         0.0600 
    200 H200        0.1240  -25.4786  -46.0615 H         1 UNK         0.3000 
    201 H201        1.4899  -27.9417  -46.7285 H         1 UNK         0.0600 
    202 H202        2.3625  -25.6949  -47.3559 H         1 UNK         0.0600 
    203 H203        0.9490  -25.4065  -48.3681 H         1 UNK         0.0600 
    204 H204        2.0954  -26.6733  -48.7909 H         1 UNK         0.0600 
    205 H205       -1.6945  -26.7308  -47.3130 H         1 UNK         0.3000 
    206 H206       -3.4580  -27.2377  -48.5238 H         1 UNK         0.0600 
    207 H207       -3.1932  -29.5742  -47.6484 H         1 UNK         0.0600 
    208 H208       -3.9139  -29.5441  -49.2497 H         1 UNK         0.0600 
    209 H209       -2.2254  -29.9936  -49.0617 H         1 UNK         0.0600 
    210 H210       -1.4183  -25.7565  -49.6262 H         1 UNK         0.3000 
    211 H211       -0.8185  -26.6380  -52.3664 H         1 UNK         0.0600 
    212 H212       -0.0256  -24.1494  -50.7623 H         1 UNK         0.0600 
    213 H213        0.5712  -24.5410  -52.3711 H         1 UNK         0.0600 
    214 H214        0.9566  -25.5901  -51.0162 H         1 UNK         0.0600 
    215 H215       -3.0426  -24.4190  -50.7401 H         1 UNK         0.3000 
    216 H216       -4.6235  -23.9369  -53.0302 H         1 UNK         0.0600 
    217 H217       -4.2313  -21.4930  -53.2886 H         1 UNK         0.0600 
    218 H218       -2.7194  -22.3128  -53.5949 H         1 UNK         0.0600 
    219 H219       -2.9871  -21.5149  -52.0487 H         1 UNK         0.0600 
    220 H220       -6.1602  -21.9685  -52.3521 H         1 UNK         0.3000 
    221 H221       -7.3305  -22.5051  -49.7439 H         1 UNK         0.0600 
    222 H222       -7.9534  -20.3813  -51.8810 H         1 UNK         0.0600 
    223 H223       -8.6943  -21.9783  -51.7955 H         1 UNK         0.0600 
    224 H224       -8.9899  -20.8093  -50.5246 H         1 UNK         0.0600 
    225 H225       -8.0096  -20.4061  -48.4856 H         1 UNK         0.3000 
    226 H226       -5.7605  -19.2673  -47.2589 H         1 UNK         0.0600 
    227 H227       -7.9272  -19.5389  -46.1205 H         1 UNK         0.0600 
    228 H228       -7.4735  -17.8429  -46.0874 H         1 UNK         0.0600 
    229 H229       -8.6969  -18.3953  -47.2224 H         1 UNK         0.0600 
    230 H230       -7.4640  -18.1771  -50.0980 H         1 UNK         0.3000 
    231 H231       -6.4430  -15.4468  -50.1115 H         1 UNK         0.0600 
    232 H232       -7.7838  -17.1393  -52.2895 H         1 UNK         0.0600 
    233 H233       -7.5107  -15.4030  -52.3588 H         1 UNK         0.0600 
    234 H234       -8.6193  -16.0623  -51.1685 H         1 UNK         0.0600 
    235 H235       -4.9233  -18.4039  -50.6134 H         1 UNK         0.3000 
    236 H236       -3.0792  -19.1494  -51.4726 H         1 UNK         0.0600 
    237 H237       -1.9792  -16.9949  -50.7030 H         1 UNK         0.0600 
    238 H238       -1.1843  -17.7344  -52.0745 H         1 UNK         0.0600 
    239 H239       -2.2172  -16.3306  -52.3182 H         1 UNK         0.0600 
    240 H240       -1.6688  -18.4252  -53.9200 H         1 UNK         0.3000 
    241 H241       -3.4862  -19.7248  -55.7601 H         1 UNK         0.0600 
    242 H242       -3.7990  -15.8544  -56.6915 H         1 UNK         0.3800 
    243 H243       -3.2782  -16.3995  -55.1186 H         1 UNK         0.3800 
    244 H244       -1.2187  -20.5064  -55.6673 H         1 UNK         0.0800 
    245 H245       -1.5653  -19.9216  -57.2619 H         1 UNK         0.0800 
    246 H246        2.2722  -19.3478  -55.9333 H         1 UNK         0.0800 
    247 H247        1.1207  -20.6392  -55.7666 H         1 UNK         0.0800 
@<TRIPOS>BOND
     1    1    2 1    
     2    1  127 1    
     3    1  128 1    
     4    1  129 1    
     5    2    3 2    
     6    2    4 am   BACKBONE|DICT|INTERRES
     7    4    5 1    
     8    4  130 1    
     9    5    6 1    
    10    5   65 1    
    11    5  131 1    
    12    6    7 1    
    13    6  132 1    
    14    6  133 1    
    15    7    8 1    
    16    8    9 1    
    17    8  134 1    
    18    8  135 1    
    19    9   10 ar   
    20    9   14 ar   
    21   10   11 ar   
    22   10  136 1    
    23   11   12 ar   
    24   11  126 1    
    25   12   13 ar   
    26   12  137 1    
    27   13   14 ar   
    28   13   15 1    
    29   14  138 1    
    30   15   16 1    
    31   15  139 1    
    32   15  140 1    
    33   16   17 1    
    34   17   18 1    
    35   17  141 1    
    36   17  142 1    
    37   18   19 1    
    38   18   67 1    
    39   18  143 1    
    40   19   20 am   BACKBONE|DICT|INTERRES
    41   19  144 1    
    42   20   21 2    
    43   20   22 1    
    44   22   23 1    
    45   22   24 1    
    46   22  145 1    
    47   23  146 1    
    48   23  147 1    
    49   23  148 1    
    50   24   25 am   BACKBONE|DICT|INTERRES
    51   24  149 1    
    52   25   26 2    
    53   25   27 1    
    54   27   28 1    
    55   27   29 1    
    56   27  150 1    
    57   28  151 1    
    58   28  152 1    
    59   28  153 1    
    60   29   30 am   BACKBONE|DICT|INTERRES
    61   29  154 1    
    62   30   31 2    
    63   30   32 1    
    64   32   33 1    
    65   32   34 1    
    66   32  155 1    
    67   33  156 1    
    68   33  157 1    
    69   33  158 1    
    70   34   35 am   BACKBONE|DICT|INTERRES
    71   34  159 1    
    72   35   36 2    
    73   35   37 1    
    74   37   38 1    
    75   37   39 1    
    76   37  160 1    
    77   38  161 1    
    78   38  162 1    
    79   38  163 1    
    80   39   40 am   BACKBONE|DICT|INTERRES
    81   39  164 1    
    82   40   41 2    
    83   40   42 1    
    84   42   43 1    
    85   42   44 1    
    86   42  165 1    
    87   43  166 1    
    88   43  167 1    
    89   43  168 1    
    90   44   45 am   BACKBONE|DICT|INTERRES
    91   44  169 1    
    92   45   46 2    
    93   45   47 1    
    94   47   48 1    
    95   47   49 1    
    96   47  170 1    
    97   48  171 1    
    98   48  172 1    
    99   48  173 1    
   100   49   50 am   BACKBONE|DICT|INTERRES
   101   49  174 1    
   102   50   51 2    
   103   50   52 1    
   104   52   53 1    
   105   52   54 1    
   106   52  175 1    
   107   53  176 1    
   108   53  177 1    
   109   53  178 1    
   110   54   55 am   BACKBONE|DICT|INTERRES
   111   54  179 1    
   112   55   56 2    
   113   55   57 1    
   114   57   58 1    
   115   57   59 1    
   116   57  180 1    
   117   58  181 1    
   118   58  182 1    
   119   58  183 1    
   120   59   60 am   BACKBONE|DICT|INTERRES
   121   59  184 1    
   122   60   61 2    
   123   60   62 1    
   124   62   63 1    
   125   62   64 1    
   126   62  185 1    
   127   63  186 1    
   128   63  187 1    
   129   63  188 1    
   130   64   65 am   BACKBONE|DICT|INTERRES
   131   64  189 1    
   132   65   66 2    
   133   67   68 2    
   134   67   69 am   BACKBONE|DICT|INTERRES
   135   69   70 1    
   136   69  190 1    
   137   70   71 1    
   138   70   72 1    
   139   70  191 1    
   140   71  192 1    
   141   71  193 1    
   142   71  194 1    
   143   72   73 2    
   144   72   74 am   BACKBONE|DICT|INTERRES
   145   74   75 1    
   146   74  195 1    
   147   75   76 1    
   148   75   77 1    
   149   75  196 1    
   150   76  197 1    
   151   76  198 1    
   152   76  199 1    
   153   77   78 2    
   154   77   79 am   BACKBONE|DICT|INTERRES
   155   79   80 1    
   156   79  200 1    
   157   80   81 1    
   158   80   82 1    
   159   80  201 1    
   160   81  202 1    
   161   81  203 1    
   162   81  204 1    
   163   82   83 2    
   164   82   84 am   BACKBONE|DICT|INTERRES
   165   84   85 1    
   166   84  205 1    
   167   85   86 1    
   168   85   87 1    
   169   85  206 1    
   170   86  207 1    
   171   86  208 1    
   172   86  209 1    
   173   87   88 2    
   174   87   89 am   BACKBONE|DICT|INTERRES
   175   89   90 1    
   176   89  210 1    
   177   90   91 1    
   178   90   92 1    
   179   90  211 1    
   180   91  212 1    
   181   91  213 1    
   182   91  214 1    
   183   92   93 2    
   184   92   94 am   BACKBONE|DICT|INTERRES
   185   94   95 1    
   186   94  215 1    
   187   95   96 1    
   188   95   97 1    
   189   95  216 1    
   190   96  217 1    
   191   96  218 1    
   192   96  219 1    
   193   97   98 2    
   194   97   99 am   BACKBONE|DICT|INTERRES
   195   99  100 1    
   196   99  220 1    
   197  100  101 1    
   198  100  102 1    
   199  100  221 1    
   200  101  222 1    
   201  101  223 1    
   202  101  224 1    
   203  102  103 2    
   204  102  104 am   BACKBONE|DICT|INTERRES
   205  104  105 1    
   206  104  225 1    
   207  105  106 1    
   208  105  107 1    
   209  105  226 1    
   210  106  227 1    
   211  106  228 1    
   212  106  229 1    
   213  107  108 2    
   214  107  109 am   BACKBONE|DICT|INTERRES
   215  109  110 1    
   216  109  230 1    
   217  110  111 1    
   218  110  112 1    
   219  110  231 1    
   220  111  232 1    
   221  111  233 1    
   222  111  234 1    
   223  112  113 2    
   224  112  114 am   BACKBONE|DICT|INTERRES
   225  114  115 1    
   226  114  235 1    
   227  115  116 1    
   228  115  117 1    
   229  115  236 1    
   230  116  237 1    
   231  116  238 1    
   232  116  239 1    
   233  117  118 2    
   234  117  119 am   BACKBONE|DICT|INTERRES
   235  119  120 1    
   236  119  240 1    
   237  120  121 1    
   238  120  124 1    
   239  120  241 1    
   240  121  122 am   BACKBONE|DICT|INTERRES
   241  121  123 2    
   242  122  242 1    
   243  122  243 1    
   244  124  125 1    
   245  124  244 1    
   246  124  245 1    
   247  125  126 1    
   248  126  246 1    
   249  126  247 1    
@<TRIPOS>SUBSTRUCTURE
     1 UNK         1 GROUP             0       ****    0 ROOT    
