@<TRIPOS>MOLECULE
3R540
247   249    1
SMALL
USER_CHARGES


@<TRIPOS>ATOM
      1 CA          2.0253  -11.4155  -48.4747 C.3       0 UNK        -0.1800 
      2 C           1.6388  -12.3089  -47.3061 C.2       0 UNK         0.5000 
      3 O           2.1369  -12.1157  -46.1980 O.2       0 UNK        -0.5000 
      4 N           0.7378  -13.2717  -47.5404 N.am      1 UNK        -0.5000 
      5 CA          0.2757  -14.2835  -46.5760 C.3       1 UNK         0.1400 
      6 C6         -0.6590  -15.3218  -47.2438 C.3       23 UNK        -0.0398 
      7 S7          0.1309  -16.1777  -48.6484 S.3       23 UNK        -0.2404 
      8 C8          0.3766  -17.8519  -47.9671 C.3       23 UNK        -0.0205 
      9 C9          0.8609  -18.8722  -48.9952 C.ar      23 UNK        -0.0193 
     10 C10         0.3859  -18.8605  -50.3122 C.ar      23 UNK        -0.1150 
     11 C11         0.8293  -19.7995  -51.2470 C.ar      23 UNK        -0.0193 
     12 C12         1.7347  -20.7852  -50.8451 C.ar      23 UNK        -0.1150 
     13 C13         2.1996  -20.8304  -49.5269 C.ar      23 UNK        -0.0193 
     14 C14         1.7701  -19.8636  -48.6115 C.ar      23 UNK        -0.1150 
     15 C15         3.1742  -21.9189  -49.1015 C.3       23 UNK        -0.0205 
     16 S16         2.3142  -23.3592  -48.3887 S.3       23 UNK        -0.2404 
     17 C17         2.0592  -22.8107  -46.6677 C.3       23 UNK        -0.0398 
     18 CA          1.8016  -23.9717  -45.6736 C.3       11 UNK         0.1400 
     19 N           2.1468  -23.5644  -44.3086 N.am      11 UNK        -0.5000 
     20 C           2.3404  -24.3951  -43.2765 C.2       10 UNK         0.5000 
     21 O           2.3049  -25.6227  -43.3679 O.2       10 UNK        -0.5000 
     22 CA          2.5961  -23.7388  -41.9066 C.3       10 UNK         0.1400 
     23 CB          4.0701  -23.3289  -41.7675 C.3       10 UNK        -0.1800 
     24 N           1.7376  -22.5763  -41.6628 N.am      10 UNK        -0.5000 
     25 C           0.4074  -22.6378  -41.5017 C.2       9 UNK         0.5000 
     26 O          -0.2356  -23.6875  -41.5178 O.2       9 UNK        -0.5000 
     27 CA         -0.3397  -21.3044  -41.3161 C.3       9 UNK         0.1400 
     28 CB         -0.2363  -20.8222  -39.8614 C.3       9 UNK        -0.1800 
     29 N           0.1307  -20.2524  -42.2170 N.am      9 UNK        -0.5000 
     30 C           0.0238  -20.2866  -43.5532 C.2       8 UNK         0.5000 
     31 O          -0.5062  -21.2083  -44.1745 O.2       8 UNK        -0.5000 
     32 CA          0.6825  -19.1299  -44.3274 C.3       8 UNK         0.1400 
     33 CB         -0.1617  -17.8499  -44.2480 C.3       8 UNK        -0.1800 
     34 N           2.0333  -18.8348  -43.8508 N.am      8 UNK        -0.5000 
     35 C           3.0533  -19.7034  -43.8354 C.2       7 UNK         0.5000 
     36 O           2.9839  -20.8507  -44.2704 O.2       7 UNK        -0.5000 
     37 CA          4.3532  -19.2278  -43.1696 C.3       7 UNK         0.1400 
     38 CB          5.1776  -18.3631  -44.1342 C.3       7 UNK        -0.1800 
     39 N           4.0856  -18.4881  -41.9364 N.am      7 UNK        -0.5000 
     40 C           3.6111  -19.0458  -40.8129 C.2       6 UNK         0.5000 
     41 O           3.3848  -20.2495  -40.6886 O.2       6 UNK        -0.5000 
     42 CA          3.2964  -18.0889  -39.6491 C.3       6 UNK         0.1400 
     43 CB          4.5735  -17.7371  -38.8718 C.3       6 UNK        -0.1800 
     44 N           2.6450  -16.8583  -40.1003 N.am      6 UNK        -0.5000 
     45 C           1.4140  -16.8085  -40.6283 C.2       5 UNK         0.5000 
     46 O           0.6853  -17.7920  -40.7520 O.2       5 UNK        -0.5000 
     47 CA          0.9310  -15.4399  -41.1403 C.3       5 UNK         0.1400 
     48 CB          0.2453  -14.6484  -40.0176 C.3       5 UNK        -0.1800 
     49 N           1.9924  -14.6202  -41.7265 N.am      5 UNK        -0.5000 
     50 C           2.7200  -14.9428  -42.8035 C.2       4 UNK         0.5000 
     51 O           2.6457  -16.0346  -43.3703 O.2       4 UNK        -0.5000 
     52 CA          3.6777  -13.8540  -43.3300 C.3       4 UNK         0.1400 
     53 CB          4.3673  -14.2570  -44.6455 C.3       4 UNK        -0.1800 
     54 N           2.9786  -12.5871  -43.5418 N.am      4 UNK        -0.5000 
     55 C           2.6904  -11.6795  -42.6002 C.2       3 UNK         0.5000 
     56 O           2.9952  -11.8087  -41.4139 O.2       3 UNK        -0.5000 
     57 CA          1.8782  -10.4580  -43.0546 C.3       3 UNK         0.1400 
     58 CB          2.7463   -9.4915  -43.8761 C.3       3 UNK        -0.1800 
     59 N           0.7287  -10.8822  -43.8517 N.am      3 UNK        -0.5000 
     60 C          -0.4746  -11.1866  -43.3458 C.2       2 UNK         0.5000 
     61 O          -0.7658  -11.0707  -42.1549 O.2       2 UNK        -0.5000 
     62 CA         -1.5356  -11.7117  -44.3337 C.3       2 UNK         0.1400 
     63 CB         -2.3658  -10.5498  -44.8999 C.3       2 UNK        -0.1800 
     64 N          -0.9548  -12.4689  -45.4433 N.am      2 UNK        -0.5000 
     65 C          -0.4069  -13.6868  -45.3243 C.2       1 UNK         0.5000 
     66 O          -0.4151  -14.3321  -44.2774 O.2       1 UNK        -0.5000 
     67 C           0.3500  -24.4976  -45.7752 C.2       11 UNK         0.5000 
     68 O           0.0636  -25.3152  -46.6505 O.2       11 UNK        -0.5000 
     69 N          -0.5270  -24.0202  -44.8769 N.am      12 UNK        -0.5000 
     70 CA         -1.9803  -24.2119  -44.8447 C.3       12 UNK         0.1400 
     71 CB         -2.3503  -25.6914  -44.6111 C.3       12 UNK        -0.1800 
     72 C          -2.6357  -23.5948  -46.0959 C.2       12 UNK         0.5000 
     73 O          -3.3844  -24.2627  -46.8120 O.2       12 UNK        -0.5000 
     74 N          -2.2884  -22.3301  -46.3517 N.am      13 UNK        -0.5000 
     75 CA         -2.6072  -21.5857  -47.5635 C.3       13 UNK         0.1400 
     76 CB         -1.4353  -21.7561  -48.5400 C.3       13 UNK        -0.1800 
     77 C          -2.8190  -20.1041  -47.2257 C.2       13 UNK         0.5000 
     78 O          -2.3926  -19.6571  -46.1604 O.2       13 UNK        -0.5000 
     79 N          -3.4509  -19.3595  -48.1406 N.am      14 UNK        -0.5000 
     80 CA         -3.7356  -17.9296  -47.9741 C.3       14 UNK         0.1400 
     81 CB         -5.1222  -17.7673  -47.3242 C.3       14 UNK        -0.1800 
     82 C          -3.6263  -17.1316  -49.2882 C.2       14 UNK         0.5000 
     83 O          -3.9892  -15.9552  -49.3007 O.2       14 UNK        -0.5000 
     84 N          -3.1612  -17.7799  -50.3691 N.am      15 UNK        -0.5000 
     85 CA         -3.1519  -17.2925  -51.7585 C.3       15 UNK         0.1400 
     86 CB         -2.2301  -16.0644  -51.9227 C.3       15 UNK        -0.1800 
     87 C          -4.5805  -17.0470  -52.2986 C.2       15 UNK         0.5000 
     88 O          -4.8018  -16.1204  -53.0796 O.2       15 UNK        -0.5000 
     89 N          -5.5330  -17.8671  -51.8341 N.am      16 UNK        -0.5000 
     90 CA         -6.9680  -17.6615  -52.0124 C.3       16 UNK         0.1400 
     91 CB         -7.7184  -18.4862  -50.9552 C.3       16 UNK        -0.1800 
     92 C          -7.4957  -17.9901  -53.4195 C.2       16 UNK         0.5000 
     93 O          -8.4689  -17.3651  -53.8450 O.2       16 UNK        -0.5000 
     94 N          -6.8868  -18.9643  -54.1081 N.am      17 UNK        -0.5000 
     95 CA         -7.3761  -19.4809  -55.3849 C.3       17 UNK         0.1400 
     96 CB         -8.5540  -20.4442  -55.1299 C.3       17 UNK        -0.1800 
     97 C          -6.2660  -20.1892  -56.1734 C.2       17 UNK         0.5000 
     98 O          -5.2262  -20.5461  -55.6129 O.2       17 UNK        -0.5000 
     99 N          -6.5459  -20.4072  -57.4621 N.am      18 UNK        -0.5000 
    100 CA        -5.8369  -21.3276  -58.3474 C.3       18 UNK         0.1400 
    101 CB        -5.6401  -20.6489  -59.7121 C.3       18 UNK        -0.1800 
    102 C         -6.6772  -22.6101  -58.4937 C.2       18 UNK         0.5000 
    103 O         -7.8664  -22.6037  -58.1610 O.2       18 UNK        -0.5000 
    104 N         -6.0458  -23.6948  -58.9657 N.am      19 UNK        -0.5000 
    105 CA        -6.5558  -25.0748  -59.0652 C.3       19 UNK         0.1400 
    106 CB        -7.8288  -25.1761  -59.9285 C.3       19 UNK        -0.1800 
    107 C         -6.7369  -25.7301  -57.6818 C.2       19 UNK         0.5000 
    108 O         -6.1066  -26.7506  -57.4025 O.2       19 UNK        -0.5000 
    109 N         -7.4981  -25.0702  -56.8007 N.am      20 UNK        -0.5000 
    110 CA        -7.4460  -25.2284  -55.3482 C.3       20 UNK         0.1400 
    111 CB        -8.7931  -24.7847  -54.7514 C.3       20 UNK        -0.1800 
    112 C         -6.2585  -24.3934  -54.8277 C.2       20 UNK         0.5000 
    113 O         -6.4578  -23.3322  -54.2336 O.2       20 UNK        -0.5000 
    114 N         -5.0484  -24.8564  -55.1730 N.am      21 UNK        -0.5000 
    115 CA        -3.7697  -24.1486  -55.1193 C.3       21 UNK         0.1400 
    116 CB        -2.6398  -25.1349  -55.4563 C.3       21 UNK        -0.1800 
    117 C         -3.4973  -23.4226  -53.7914 C.2       21 UNK         0.5000 
    118 O         -3.2396  -24.0702  -52.7748 O.2       21 UNK        -0.5000 
    119 N         -3.5702  -22.0896  -53.8517 N.am      22 UNK        -0.5000 
    120 CA        -3.3633  -21.1417  -52.7519 C.3       22 UNK         0.1400 
    121 C         -4.5133  -21.1015  -51.7020 C.2       22 UNK         0.5000 
    122 N         -5.6717  -21.6969  -51.9539 N.am      22 UNK        -0.7600 
    123 O         -4.3724  -20.4620  -50.6603 O.2       22 UNK        -0.5000 
    124 C124       -1.9673  -21.2434  -52.0818 C.3       23 UNK        -0.0398 
    125 S125       -0.5552  -21.2090  -53.2373 S.3       23 UNK        -0.2404 
    126 C126        0.3505  -19.7225  -52.6939 C.3       23 UNK        -0.0205 
    127 H127        1.4969  -11.6905  -49.3878 H         1 UNK         0.0600 
    128 H128        3.0960  -11.4916  -48.6642 H         1 UNK         0.0600 
    129 H129        1.7917  -10.3761  -48.2445 H         1 UNK         0.0600 
    130 H130        0.3755  -13.3819  -48.4771 H         1 UNK         0.3000 
    131 H131        1.1631  -14.8110  -46.2189 H         1 UNK         0.0600 
    132 H132       -0.9986  -16.0616  -46.5178 H         1 UNK         0.0800 
    133 H133       -1.5624  -14.8351  -47.6165 H         1 UNK         0.0800 
    134 H134        1.0904  -17.7788  -47.1454 H         1 UNK         0.0800 
    135 H135       -0.5593  -18.2115  -47.5426 H         1 UNK         0.0800 
    136 H136       -0.3231  -18.1073  -50.6167 H         1 UNK         0.1150 
    137 H137        2.0739  -21.5206  -51.5612 H         1 UNK         0.1150 
    138 H138        2.1360  -19.8930  -47.5948 H         1 UNK         0.1150 
    139 H139        3.7499  -22.2539  -49.9656 H         1 UNK         0.0800 
    140 H140        3.9034  -21.5214  -48.3942 H         1 UNK         0.0800 
    141 H141        1.2650  -22.0646  -46.6209 H         1 UNK         0.0800 
    142 H142        2.9727  -22.2916  -46.3783 H         1 UNK         0.0800 
    143 H143        2.4655  -24.7984  -45.9359 H         1 UNK         0.0600 
    144 H144        2.2649  -22.5650  -44.1566 H         1 UNK         0.3000 
    145 H145        2.3790  -24.4828  -41.1374 H         1 UNK         0.0600 
    146 H146        4.2784  -22.9419  -40.7699 H         1 UNK         0.0600 
    147 H147        4.7303  -24.1817  -41.9299 H         1 UNK         0.0600 
    148 H148        4.3440  -22.5586  -42.4887 H         1 UNK         0.0600 
    149 H149        2.2010  -21.6767  -41.5879 H         1 UNK         0.3000 
    150 H150       -1.3937  -21.4830  -41.5388 H         1 UNK         0.0600 
    151 H151       -0.5867  -21.5883  -39.1686 H         1 UNK         0.0600 
    152 H152       -0.8454  -19.9331  -39.6978 H         1 UNK         0.0600 
    153 H153        0.7912  -20.5773  -39.5903 H         1 UNK         0.0600 
    154 H154        0.5444  -19.4342  -41.7790 H         1 UNK         0.3000 
    155 H155        0.7571  -19.4321  -45.3733 H         1 UNK         0.0600 
    156 H156       -0.3303  -17.5400  -43.2180 H         1 UNK         0.0600 
    157 H157        0.3274  -17.0247  -44.7643 H         1 UNK         0.0600 
    158 H158       -1.1402  -17.9885  -44.7044 H         1 UNK         0.0600 
    159 H159        2.1992  -17.8910  -43.5108 H         1 UNK         0.3000 
    160 H160        4.9450  -20.1098  -42.9159 H         1 UNK         0.0600 
    161 H161        6.1007  -18.0183  -43.6683 H         1 UNK         0.0600 
    162 H162        4.6210  -17.4886  -44.4697 H         1 UNK         0.0600 
    163 H163        5.4539  -18.9320  -45.0228 H         1 UNK         0.0600 
    164 H164        4.1819  -17.4845  -41.9786 H         1 UNK         0.3000 
    165 H165        2.6148  -18.6049  -38.9693 H         1 UNK         0.0600 
    166 H166        4.3475  -17.1223  -38.0004 H         1 UNK         0.0600 
    167 H167        5.0710  -18.6387  -38.5119 H         1 UNK         0.0600 
    168 H168        5.2876  -17.1928  -39.4910 H         1 UNK         0.0600 
    169 H169        3.1770  -16.0030  -40.0358 H         1 UNK         0.3000 
    170 H170        0.1923  -15.6241  -41.9219 H         1 UNK         0.0600 
    171 H171        0.9432  -14.3951  -39.2187 H         1 UNK         0.0600 
    172 H172       -0.1828  -13.7199  -40.3970 H         1 UNK         0.0600 
    173 H173       -0.5687  -15.2238  -39.5747 H         1 UNK         0.0600 
    174 H174        2.1310  -13.6980  -41.3295 H         1 UNK         0.3000 
    175 H175        4.4544  -13.7106  -42.5763 H         1 UNK         0.0600 
    176 H176        5.0202  -13.4627  -45.0077 H         1 UNK         0.0600 
    177 H177        3.6420  -14.4759  -45.4303 H         1 UNK         0.0600 
    178 H178        4.9856  -15.1438  -44.5077 H         1 UNK         0.0600 
    179 H179        2.6649  -12.4110  -44.4945 H         1 UNK         0.3000 
    180 H180        1.5362   -9.9260  -42.1641 H         1 UNK         0.0600 
    181 H181        3.1219   -9.9545  -44.7893 H         1 UNK         0.0600 
    182 H182        3.6092   -9.1572  -43.2989 H         1 UNK         0.0600 
    183 H183        2.1819   -8.6034  -44.1607 H         1 UNK         0.0600 
    184 H184        0.9089  -11.0735  -44.8294 H         1 UNK         0.3000 
    185 H185       -2.2065  -12.3723  -43.7801 H         1 UNK         0.0600 
    186 H186       -1.7513   -9.8601  -45.4799 H         1 UNK         0.0600 
    187 H187       -3.1648  -10.9138  -45.5461 H         1 UNK         0.0600 
    188 H188       -2.8336   -9.9774  -44.0976 H         1 UNK         0.0600 
    189 H189       -0.9126  -12.0080  -46.3405 H         1 UNK         0.3000 
    190 H190       -0.1868  -23.3105  -44.2392 H         1 UNK         0.3000 
    191 H191       -2.3449  -23.6425  -43.9884 H         1 UNK         0.0600 
    192 H192       -1.8613  -26.0812  -43.7183 H         1 UNK         0.0600 
    193 H193       -3.4256  -25.8031  -44.4685 H         1 UNK         0.0600 
    194 H194       -2.0670  -26.3239  -45.4525 H         1 UNK         0.0600 
    195 H195       -1.7253  -21.8211  -45.6737 H         1 UNK         0.3000 
    196 H196       -3.5263  -21.9619  -48.0178 H         1 UNK         0.0600 
    197 H197       -1.5045  -21.0538  -49.3638 H         1 UNK         0.0600 
    198 H198       -1.4057  -22.7630  -48.9564 H         1 UNK         0.0600 
    199 H199       -0.4803  -21.5687  -48.0523 H         1 UNK         0.0600 
    200 H200       -3.8206  -19.8045  -48.9783 H         1 UNK         0.3000 
    201 H201       -2.9948  -17.4846  -47.3071 H         1 UNK         0.0600 
    202 H202       -5.1631  -18.2645  -46.3550 H         1 UNK         0.0600 
    203 H203       -5.9075  -18.1908  -47.9508 H         1 UNK         0.0600 
    204 H204       -5.3633  -16.7171  -47.1558 H         1 UNK         0.0600 
    205 H205       -2.9131  -18.7504  -50.2474 H         1 UNK         0.3000 
    206 H206       -2.7290  -18.0936  -52.3636 H         1 UNK         0.0600 
    207 H207       -1.2355  -16.2495  -51.5208 H         1 UNK         0.0600 
    208 H208       -2.1076  -15.8092  -52.9758 H         1 UNK         0.0600 
    209 H209       -2.6313  -15.1834  -51.4215 H         1 UNK         0.0600 
    210 H210       -5.2605  -18.6195  -51.2135 H         1 UNK         0.3000 
    211 H211       -7.1819  -16.6069  -51.8244 H         1 UNK         0.0600 
    212 H212       -7.5241  -19.5535  -51.0650 H         1 UNK         0.0600 
    213 H213       -8.7962  -18.3392  -51.0363 H         1 UNK         0.0600 
    214 H214       -7.4274  -18.1934  -49.9466 H         1 UNK         0.0600 
    215 H215       -6.0708  -19.4271  -53.7331 H         1 UNK         0.3000 
    216 H216       -7.7218  -18.6445  -55.9965 H         1 UNK         0.0600 
    217 H217       -8.9278  -20.8770  -56.0585 H         1 UNK         0.0600 
    218 H218       -9.3926  -19.9337  -54.6566 H         1 UNK         0.0600 
    219 H219       -8.2582  -21.2694  -54.4812 H         1 UNK         0.0600 
    220 H220       -7.4552  -20.1236  -57.7993 H         1 UNK         0.3000 
    221 H221       -4.8621  -21.5889  -57.9302 H         1 UNK         0.0600 
    222 H222       -6.5933  -20.4027  -60.1820 H         1 UNK         0.0600 
    223 H223       -5.0686  -19.7259  -59.6121 H         1 UNK         0.0600 
    224 H224       -5.0927  -21.2958  -60.3985 H         1 UNK         0.0600 
    225 H225       -5.0702  -23.5951  -59.2105 H         1 UNK         0.3000 
    226 H226       -5.7758  -25.6389  -59.5793 H         1 UNK         0.0600 
    227 H227       -7.6775  -24.7204  -60.9070 H         1 UNK         0.0600 
    228 H228       -8.0984  -26.2198  -60.0943 H         1 UNK         0.0600 
    229 H229       -8.6880  -24.6932  -59.4631 H         1 UNK         0.0600 
    230 H230       -7.9143  -24.2042  -57.1335 H         1 UNK         0.3000 
    231 H231       -7.2792  -26.2753  -55.0862 H         1 UNK         0.0600 
    232 H232       -9.0270  -23.7498  -55.0050 H         1 UNK         0.0600 
    233 H233       -8.7825  -24.8637  -53.6637 H         1 UNK         0.0600 
    234 H234       -9.6084  -25.4095  -55.1161 H         1 UNK         0.0600 
    235 H235       -5.0285  -25.7395  -55.6662 H         1 UNK         0.3000 
    236 H236       -3.7966  -23.4019  -55.9159 H         1 UNK         0.0600 
    237 H237       -2.7660  -25.5558  -56.4540 H         1 UNK         0.0600 
    238 H238       -1.6686  -24.6385  -55.4337 H         1 UNK         0.0600 
    239 H239       -2.6028  -25.9613  -54.7453 H         1 UNK         0.0600 
    240 H240       -3.9159  -21.6614  -54.7059 H         1 UNK         0.3000 
    241 H241       -3.4103  -20.1667  -53.2355 H         1 UNK         0.0600 
    242 H242       -5.8190  -22.2289  -52.8089 H         1 UNK         0.3800 
    243 H243       -6.4009  -21.6662  -51.2615 H         1 UNK         0.3800 
    244 H244       -1.8515  -20.4089  -51.3942 H         1 UNK         0.0800 
    245 H245       -1.8927  -22.1531  -51.4848 H         1 UNK         0.0800 
    246 H246       -0.2819  -18.8471  -52.8492 H         1 UNK         0.0800 
    247 H247        1.2180  -19.5875  -53.3411 H         1 UNK         0.0800 
@<TRIPOS>BOND
     1    1    2 1    
     2    1  127 1    
     3    1  128 1    
     4    1  129 1    
     5    2    3 2    
     6    2    4 am   BACKBONE|DICT|INTERRES
     7    4    5 1    
     8    4  130 1    
     9    5    6 1    
    10    5   65 1    
    11    5  131 1    
    12    6    7 1    
    13    6  132 1    
    14    6  133 1    
    15    7    8 1    
    16    8    9 1    
    17    8  134 1    
    18    8  135 1    
    19    9   10 ar   
    20    9   14 ar   
    21   10   11 ar   
    22   10  136 1    
    23   11   12 ar   
    24   11  126 1    
    25   12   13 ar   
    26   12  137 1    
    27   13   14 ar   
    28   13   15 1    
    29   14  138 1    
    30   15   16 1    
    31   15  139 1    
    32   15  140 1    
    33   16   17 1    
    34   17   18 1    
    35   17  141 1    
    36   17  142 1    
    37   18   19 1    
    38   18   67 1    
    39   18  143 1    
    40   19   20 am   BACKBONE|DICT|INTERRES
    41   19  144 1    
    42   20   21 2    
    43   20   22 1    
    44   22   23 1    
    45   22   24 1    
    46   22  145 1    
    47   23  146 1    
    48   23  147 1    
    49   23  148 1    
    50   24   25 am   BACKBONE|DICT|INTERRES
    51   24  149 1    
    52   25   26 2    
    53   25   27 1    
    54   27   28 1    
    55   27   29 1    
    56   27  150 1    
    57   28  151 1    
    58   28  152 1    
    59   28  153 1    
    60   29   30 am   BACKBONE|DICT|INTERRES
    61   29  154 1    
    62   30   31 2    
    63   30   32 1    
    64   32   33 1    
    65   32   34 1    
    66   32  155 1    
    67   33  156 1    
    68   33  157 1    
    69   33  158 1    
    70   34   35 am   BACKBONE|DICT|INTERRES
    71   34  159 1    
    72   35   36 2    
    73   35   37 1    
    74   37   38 1    
    75   37   39 1    
    76   37  160 1    
    77   38  161 1    
    78   38  162 1    
    79   38  163 1    
    80   39   40 am   BACKBONE|DICT|INTERRES
    81   39  164 1    
    82   40   41 2    
    83   40   42 1    
    84   42   43 1    
    85   42   44 1    
    86   42  165 1    
    87   43  166 1    
    88   43  167 1    
    89   43  168 1    
    90   44   45 am   BACKBONE|DICT|INTERRES
    91   44  169 1    
    92   45   46 2    
    93   45   47 1    
    94   47   48 1    
    95   47   49 1    
    96   47  170 1    
    97   48  171 1    
    98   48  172 1    
    99   48  173 1    
   100   49   50 am   BACKBONE|DICT|INTERRES
   101   49  174 1    
   102   50   51 2    
   103   50   52 1    
   104   52   53 1    
   105   52   54 1    
   106   52  175 1    
   107   53  176 1    
   108   53  177 1    
   109   53  178 1    
   110   54   55 am   BACKBONE|DICT|INTERRES
   111   54  179 1    
   112   55   56 2    
   113   55   57 1    
   114   57   58 1    
   115   57   59 1    
   116   57  180 1    
   117   58  181 1    
   118   58  182 1    
   119   58  183 1    
   120   59   60 am   BACKBONE|DICT|INTERRES
   121   59  184 1    
   122   60   61 2    
   123   60   62 1    
   124   62   63 1    
   125   62   64 1    
   126   62  185 1    
   127   63  186 1    
   128   63  187 1    
   129   63  188 1    
   130   64   65 am   BACKBONE|DICT|INTERRES
   131   64  189 1    
   132   65   66 2    
   133   67   68 2    
   134   67   69 am   BACKBONE|DICT|INTERRES
   135   69   70 1    
   136   69  190 1    
   137   70   71 1    
   138   70   72 1    
   139   70  191 1    
   140   71  192 1    
   141   71  193 1    
   142   71  194 1    
   143   72   73 2    
   144   72   74 am   BACKBONE|DICT|INTERRES
   145   74   75 1    
   146   74  195 1    
   147   75   76 1    
   148   75   77 1    
   149   75  196 1    
   150   76  197 1    
   151   76  198 1    
   152   76  199 1    
   153   77   78 2    
   154   77   79 am   BACKBONE|DICT|INTERRES
   155   79   80 1    
   156   79  200 1    
   157   80   81 1    
   158   80   82 1    
   159   80  201 1    
   160   81  202 1    
   161   81  203 1    
   162   81  204 1    
   163   82   83 2    
   164   82   84 am   BACKBONE|DICT|INTERRES
   165   84   85 1    
   166   84  205 1    
   167   85   86 1    
   168   85   87 1    
   169   85  206 1    
   170   86  207 1    
   171   86  208 1    
   172   86  209 1    
   173   87   88 2    
   174   87   89 am   BACKBONE|DICT|INTERRES
   175   89   90 1    
   176   89  210 1    
   177   90   91 1    
   178   90   92 1    
   179   90  211 1    
   180   91  212 1    
   181   91  213 1    
   182   91  214 1    
   183   92   93 2    
   184   92   94 am   BACKBONE|DICT|INTERRES
   185   94   95 1    
   186   94  215 1    
   187   95   96 1    
   188   95   97 1    
   189   95  216 1    
   190   96  217 1    
   191   96  218 1    
   192   96  219 1    
   193   97   98 2    
   194   97   99 am   BACKBONE|DICT|INTERRES
   195   99  100 1    
   196   99  220 1    
   197  100  101 1    
   198  100  102 1    
   199  100  221 1    
   200  101  222 1    
   201  101  223 1    
   202  101  224 1    
   203  102  103 2    
   204  102  104 am   BACKBONE|DICT|INTERRES
   205  104  105 1    
   206  104  225 1    
   207  105  106 1    
   208  105  107 1    
   209  105  226 1    
   210  106  227 1    
   211  106  228 1    
   212  106  229 1    
   213  107  108 2    
   214  107  109 am   BACKBONE|DICT|INTERRES
   215  109  110 1    
   216  109  230 1    
   217  110  111 1    
   218  110  112 1    
   219  110  231 1    
   220  111  232 1    
   221  111  233 1    
   222  111  234 1    
   223  112  113 2    
   224  112  114 am   BACKBONE|DICT|INTERRES
   225  114  115 1    
   226  114  235 1    
   227  115  116 1    
   228  115  117 1    
   229  115  236 1    
   230  116  237 1    
   231  116  238 1    
   232  116  239 1    
   233  117  118 2    
   234  117  119 am   BACKBONE|DICT|INTERRES
   235  119  120 1    
   236  119  240 1    
   237  120  121 1    
   238  120  124 1    
   239  120  241 1    
   240  121  122 am   BACKBONE|DICT|INTERRES
   241  121  123 2    
   242  122  242 1    
   243  122  243 1    
   244  124  125 1    
   245  124  244 1    
   246  124  245 1    
   247  125  126 1    
   248  126  246 1    
   249  126  247 1    
@<TRIPOS>SUBSTRUCTURE
     1 UNK         1 GROUP             0       ****    0 ROOT    
