@<TRIPOS>MOLECULE
3R540
247   249    1
SMALL
USER_CHARGES


@<TRIPOS>ATOM
      1 CA         -0.5575  -10.4000  -50.4116 C.3       0 UNK        -0.1800 
      2 C          -0.4233  -11.0405  -49.0374 C.2       0 UNK         0.5000 
      3 O          -1.0298  -10.5639  -48.0783 O.2       0 UNK        -0.5000 
      4 N           0.3714  -12.1142  -48.9410 N.am      1 UNK        -0.5000 
      5 CA          0.5962  -12.9026  -47.7226 C.3       1 UNK         0.1400 
      6 C6          1.8211  -13.8462  -47.8419 C.3       23 UNK        -0.0398 
      7 S7          1.9778  -14.7188  -49.4425 S.3       23 UNK        -0.2404 
      8 C8          1.4087  -16.3998  -49.0508 C.3       23 UNK        -0.0205 
      9 C9          1.9434  -17.3873  -50.0756 C.ar      23 UNK        -0.0193 
     10 C10         1.3070  -17.5494  -51.3108 C.ar      23 UNK        -0.1150 
     11 C11         1.8291  -18.4198  -52.2748 C.ar      23 UNK        -0.0193 
     12 C12         2.9981  -19.1337  -51.9818 C.ar      23 UNK        -0.1150 
     13 C13         3.6301  -18.9976  -50.7434 C.ar      23 UNK        -0.0193 
     14 C14         3.1004  -18.1183  -49.7964 C.ar      23 UNK        -0.1150 
     15 C15         4.9033  -19.7766  -50.4468 C.3       23 UNK        -0.0205 
     16 S16         4.5631  -21.5048  -49.9840 S.3       23 UNK        -0.2404 
     17 C17         3.9021  -21.3075  -48.2948 C.3       23 UNK        -0.0398 
     18 CA          2.8824  -22.4030  -47.9007 C.3       11 UNK         0.1400 
     19 N           2.6537  -22.3852  -46.4560 N.am      11 UNK        -0.5000 
     20 C           2.6753  -23.4562  -45.6525 C.2       10 UNK         0.5000 
     21 O           2.9206  -24.5989  -46.0404 O.2       10 UNK        -0.5000 
     22 CA          2.3695  -23.2187  -44.1573 C.3       10 UNK         0.1400 
     23 CB          3.6767  -23.0878  -43.3608 C.3       10 UNK        -0.1800 
     24 N           1.5369  -22.0404  -43.9021 N.am      10 UNK        -0.5000 
     25 C           0.2841  -21.8808  -44.3485 C.2       9 UNK         0.5000 
     26 O          -0.3305  -22.7539  -44.9568 O.2       9 UNK        -0.5000 
     27 CA         -0.3760  -20.5060  -44.1387 C.3       9 UNK         0.1400 
     28 CB         -1.2291  -20.5042  -42.8631 C.3       9 UNK        -0.1800 
     29 N           0.5717  -19.3887  -44.0896 N.am      9 UNK        -0.5000 
     30 C           1.4047  -19.0244  -45.0753 C.2       8 UNK         0.5000 
     31 O           1.5121  -19.6277  -46.1416 O.2       8 UNK        -0.5000 
     32 CA          2.2931  -17.8021  -44.8068 C.3       8 UNK         0.1400 
     33 CB          1.4766  -16.5000  -44.8647 C.3       8 UNK        -0.1800 
     34 N           2.9557  -17.9216  -43.5108 N.am      8 UNK        -0.5000 
     35 C           4.0220  -18.7011  -43.2807 C.2       7 UNK         0.5000 
     36 O           4.6141  -19.3279  -44.1595 O.2       7 UNK        -0.5000 
     37 CA          4.4939  -18.8189  -41.8185 C.3       7 UNK         0.1400 
     38 CB          5.5322  -17.7330  -41.4988 C.3       7 UNK        -0.1800 
     39 N           3.3974  -18.7335  -40.8516 N.am      7 UNK        -0.5000 
     40 C           2.4265  -19.6483  -40.7184 C.2       6 UNK         0.5000 
     41 O           2.3615  -20.6795  -41.3862 O.2       6 UNK        -0.5000 
     42 CA          1.3110  -19.3262  -39.7054 C.3       6 UNK         0.1400 
     43 CB          1.7138  -19.7852  -38.2963 C.3       6 UNK        -0.1800 
     44 N           0.9395  -17.9070  -39.6679 N.am      6 UNK        -0.5000 
     45 C           0.4843  -17.2098  -40.7165 C.2       5 UNK         0.5000 
     46 O           0.3698  -17.6795  -41.8522 O.2       5 UNK        -0.5000 
     47 CA          0.1461  -15.7346  -40.4713 C.3       5 UNK         0.1400 
     48 CB          1.4248  -14.8821  -40.4217 C.3       5 UNK        -0.1800 
     49 N          -0.6927  -15.2728  -41.5699 N.am      5 UNK        -0.5000 
     50 C          -1.7486  -14.4614  -41.4709 C.2       4 UNK         0.5000 
     51 O          -2.1031  -13.9295  -40.4177 O.2       4 UNK        -0.5000 
     52 CA         -2.5469  -14.1888  -42.7621 C.3       4 UNK         0.1400 
     53 CB         -2.3072  -12.7502  -43.2463 C.3       4 UNK        -0.1800 
     54 N          -2.2523  -15.1124  -43.8640 N.am      4 UNK        -0.5000 
     55 C          -2.6626  -16.3889  -43.9257 C.2       3 UNK         0.5000 
     56 O          -3.2570  -16.9478  -43.0031 O.2       3 UNK        -0.5000 
     57 CA         -2.3658  -17.1659  -45.2326 C.3       3 UNK         0.1400 
     58 CB         -3.3622  -18.3203  -45.4693 C.3       3 UNK        -0.1800 
     59 N          -2.2728  -16.3109  -46.4255 N.am      3 UNK        -0.5000 
     60 C          -3.2288  -15.5002  -46.9064 C.2       2 UNK         0.5000 
     61 O          -4.3631  -15.4322  -46.4302 O.2       2 UNK        -0.5000 
     62 CA         -2.8550  -14.6056  -48.1131 C.3       2 UNK         0.1400 
     63 CB         -3.7603  -13.3605  -48.2064 C.3       2 UNK        -0.1800 
     64 N          -1.4512  -14.1723  -48.2105 N.am      2 UNK        -0.5000 
     65 C          -0.6750  -13.6401  -47.2514 C.2       1 UNK         0.5000 
     66 O          -0.9328  -13.6781  -46.0485 O.2       1 UNK        -0.5000 
     67 C           1.5422  -22.2497  -48.6511 C.2       11 UNK         0.5000 
     68 O           1.2762  -23.0007  -49.5900 O.2       11 UNK        -0.5000 
     69 N           0.7161  -21.2904  -48.2128 N.am      12 UNK        -0.5000 
     70 CA         -0.5442  -20.9019  -48.8452 C.3       12 UNK         0.1400 
     71 CB         -0.9222  -19.5051  -48.3267 C.3       12 UNK        -0.1800 
     72 C          -1.7121  -21.8778  -48.6165 C.2       12 UNK         0.5000 
     73 O          -2.7033  -21.7968  -49.3466 O.2       12 UNK        -0.5000 
     74 N          -1.5791  -22.7495  -47.6078 N.am      13 UNK        -0.5000 
     75 CA         -2.5944  -23.6220  -47.0116 C.3       13 UNK         0.1400 
     76 CB         -3.2909  -24.5087  -48.0625 C.3       13 UNK        -0.1800 
     77 C          -3.6067  -22.8322  -46.1594 C.2       13 UNK         0.5000 
     78 O          -3.6408  -21.5981  -46.1927 O.2       13 UNK        -0.5000 
     79 N          -4.4192  -23.5705  -45.3917 N.am      14 UNK        -0.5000 
     80 CA         -5.4855  -23.0345  -44.5451 C.3       14 UNK         0.1400 
     81 CB         -6.1620  -24.1876  -43.7889 C.3       14 UNK        -0.1800 
     82 C          -6.5142  -22.2461  -45.3741 C.2       14 UNK         0.5000 
     83 O          -6.9959  -22.7580  -46.3863 O.2       14 UNK        -0.5000 
     84 N          -6.7831  -21.0018  -44.9559 N.am      15 UNK        -0.5000 
     85 CA         -7.6498  -20.0212  -45.6231 C.3       15 UNK         0.1400 
     86 CB         -9.1245  -20.4728  -45.5612 C.3       15 UNK        -0.1800 
     87 C          -7.1994  -19.6579  -47.0583 C.2       15 UNK         0.5000 
     88 O          -8.0297  -19.2386  -47.8660 O.2       15 UNK        -0.5000 
     89 N          -5.8972  -19.8240  -47.3456 N.am      16 UNK        -0.5000 
     90 CA         -5.2343  -19.5848  -48.6320 C.3       16 UNK         0.1400 
     91 CB         -5.3113  -18.0930  -49.0211 C.3       16 UNK        -0.1800 
     92 C          -5.7224  -20.5252  -49.7550 C.2       16 UNK         0.5000 
     93 O          -5.7145  -20.1377  -50.9244 O.2       16 UNK        -0.5000 
     94 N          -6.1412  -21.7456  -49.3860 N.am      17 UNK        -0.5000 
     95 CA         -6.7423  -22.7347  -50.2835 C.3       17 UNK         0.1400 
     96 CB         -7.2150  -23.9454  -49.4650 C.3       17 UNK        -0.1800 
     97 C          -5.8446  -23.1896  -51.4504 C.2       17 UNK         0.5000 
     98 O          -6.3726  -23.4841  -52.5235 O.2       17 UNK        -0.5000 
     99 N          -4.5213  -23.2313  -51.2399 N.am      18 UNK        -0.5000 
    100 CA        -3.5504  -23.5347  -52.2906 C.3       18 UNK         0.1400 
    101 CB        -2.3270  -24.2542  -51.7031 C.3       18 UNK        -0.1800 
    102 C         -3.1384  -22.2544  -53.0288 C.2       18 UNK         0.5000 
    103 O         -3.0849  -22.2619  -54.2589 O.2       18 UNK        -0.5000 
    104 N         -2.9016  -21.1686  -52.2751 N.am      19 UNK        -0.5000 
    105 CA        -2.4929  -19.8522  -52.7813 C.3       19 UNK         0.1400 
    106 CB        -2.1619  -18.9189  -51.6101 C.3       19 UNK        -0.1800 
    107 C         -3.4885  -19.1797  -53.7440 C.2       19 UNK         0.5000 
    108 O         -3.0797  -18.3157  -54.5199 O.2       19 UNK        -0.5000 
    109 N         -4.7560  -19.6117  -53.7116 N.am      20 UNK        -0.5000 
    110 CA        -5.8112  -19.2505  -54.6600 C.3       20 UNK         0.1400 
    111 CB        -7.1105  -19.9543  -54.2395 C.3       20 UNK        -0.1800 
    112 C         -5.4729  -19.5760  -56.1324 C.2       20 UNK         0.5000 
    113 O         -5.9956  -18.9094  -57.0269 O.2       20 UNK        -0.5000 
    114 N         -4.5983  -20.5670  -56.3547 N.am      21 UNK        -0.5000 
    115 CA        -4.0149  -20.8960  -57.6545 C.3       21 UNK         0.1400 
    116 CB        -4.4306  -22.3211  -58.0548 C.3       21 UNK        -0.1800 
    117 C         -2.4838  -20.7627  -57.5996 C.2       21 UNK         0.5000 
    118 O         -1.8964  -20.1063  -58.4596 O.2       21 UNK        -0.5000 
    119 N         -1.8726  -21.3787  -56.5794 N.am      22 UNK        -0.5000 
    120 CA        -0.4304  -21.4163  -56.2910 C.3       22 UNK         0.1400 
    121 C          0.4577  -22.1121  -57.3703 C.2       22 UNK         0.5000 
    122 N         -0.1000  -22.9426  -58.2431 N.am      22 UNK        -0.7600 
    123 O          1.6709  -21.9255  -57.4072 O.2       22 UNK        -0.5000 
    124 C124        0.1227  -20.0420  -55.8081 C.3       23 UNK        -0.0398 
    125 S125        1.1463  -20.2327  -54.3082 S.3       23 UNK        -0.2404 
    126 C126        1.1496  -18.5354  -53.6392 C.3       23 UNK        -0.0205 
    127 H127       -0.2188   -9.3646  -50.3779 H         1 UNK         0.0600 
    128 H128       -1.6003  -10.4090  -50.7286 H         1 UNK         0.0600 
    129 H129        0.0309  -10.9263  -51.1636 H         1 UNK         0.0600 
    130 H130        0.8525  -12.4531  -49.7629 H         1 UNK         0.3000 
    131 H131        0.8300  -12.1884  -46.9297 H         1 UNK         0.0600 
    132 H132        1.8626  -14.5544  -47.0150 H         1 UNK         0.0800 
    133 H133        2.7252  -13.2451  -47.7363 H         1 UNK         0.0800 
    134 H134        1.7450  -16.6878  -48.0544 H         1 UNK         0.0800 
    135 H135        0.3186  -16.4228  -49.0360 H         1 UNK         0.0800 
    136 H136        0.4185  -16.9739  -51.5293 H         1 UNK         0.1150 
    137 H137        3.4250  -19.7987  -52.7190 H         1 UNK         0.1150 
    138 H138        3.5981  -17.9894  -48.8456 H         1 UNK         0.1150 
    139 H139        5.5422  -19.7706  -51.3312 H         1 UNK         0.0800 
    140 H140        5.4785  -19.2932  -49.6555 H         1 UNK         0.0800 
    141 H141        3.4664  -20.3169  -48.1658 H         1 UNK         0.0800 
    142 H142        4.7565  -21.3425  -47.6173 H         1 UNK         0.0800 
    143 H143        3.3061  -23.3675  -48.1890 H         1 UNK         0.0600 
    144 H144        2.4143  -21.4862  -46.0546 H         1 UNK         0.3000 
    145 H145        1.8302  -24.0944  -43.7908 H         1 UNK         0.0600 
    146 H146        3.4819  -23.0359  -42.2896 H         1 UNK         0.0600 
    147 H147        4.3278  -23.9465  -43.5294 H         1 UNK         0.0600 
    148 H148        4.2313  -22.1923  -43.6446 H         1 UNK         0.0600 
    149 H149        1.9439  -21.3106  -43.3276 H         1 UNK         0.3000 
    150 H150       -1.0403  -20.3358  -44.9878 H         1 UNK         0.0600 
    151 H151       -2.0034  -21.2710  -42.9118 H         1 UNK         0.0600 
    152 H152       -1.7284  -19.5455  -42.7203 H         1 UNK         0.0600 
    153 H153       -0.6236  -20.7018  -41.9788 H         1 UNK         0.0600 
    154 H154        0.5572  -18.8299  -43.2385 H         1 UNK         0.3000 
    155 H155        3.0502  -17.7587  -45.5929 H         1 UNK         0.0600 
    156 H156        0.7322  -16.4421  -44.0729 H         1 UNK         0.0600 
    157 H157        0.9430  -16.4147  -45.8108 H         1 UNK         0.0600 
    158 H158        2.1242  -15.6282  -44.7721 H         1 UNK         0.0600 
    159 H159        2.4920  -17.4928  -42.7228 H         1 UNK         0.3000 
    160 H160        4.9711  -19.7946  -41.7034 H         1 UNK         0.0600 
    161 H161        5.1052  -16.7321  -41.5741 H         1 UNK         0.0600 
    162 H162        6.3750  -17.7834  -42.1896 H         1 UNK         0.0600 
    163 H163        5.9318  -17.8535  -40.4917 H         1 UNK         0.0600 
    164 H164        3.3702  -17.9146  -40.2623 H         1 UNK         0.3000 
    165 H165        0.4250  -19.8895  -40.0032 H         1 UNK         0.0600 
    166 H166        0.8949  -19.6529  -37.5889 H         1 UNK         0.0600 
    167 H167        1.9774  -20.8438  -38.2910 H         1 UNK         0.0600 
    168 H168        2.5749  -19.2304  -37.9218 H         1 UNK         0.0600 
    169 H169        1.0181  -17.4475  -38.7719 H         1 UNK         0.3000 
    170 H170       -0.3903  -15.6578  -39.5233 H         1 UNK         0.0600 
    171 H171        2.0767  -15.1940  -39.6049 H         1 UNK         0.0600 
    172 H172        1.9958  -14.9584  -41.3481 H         1 UNK         0.0600 
    173 H173        1.1881  -13.8299  -40.2623 H         1 UNK         0.0600 
    174 H174       -0.5232  -15.7361  -42.4515 H         1 UNK         0.3000 
    175 H175       -3.6054  -14.2881  -42.5132 H         1 UNK         0.0600 
    176 H176       -1.2597  -12.5826  -43.4997 H         1 UNK         0.0600 
    177 H177       -2.9052  -12.5263  -44.1302 H         1 UNK         0.0600 
    178 H178       -2.5795  -12.0259  -42.4776 H         1 UNK         0.0600 
    179 H179       -1.7801  -14.7066  -44.6687 H         1 UNK         0.3000 
    180 H180       -1.3796  -17.6088  -45.1004 H         1 UNK         0.0600 
    181 H181       -3.1474  -18.8447  -46.3986 H         1 UNK         0.0600 
    182 H182       -4.3910  -17.9630  -45.5194 H         1 UNK         0.0600 
    183 H183       -3.3133  -19.0565  -44.6667 H         1 UNK         0.0600 
    184 H184       -1.3695  -16.2710  -46.8721 H         1 UNK         0.3000 
    185 H185       -3.0443  -15.2158  -48.9974 H         1 UNK         0.0600 
    186 H186       -4.8132  -13.6362  -48.2782 H         1 UNK         0.0600 
    187 H187       -3.6447  -12.7184  -47.3322 H         1 UNK         0.0600 
    188 H188       -3.5246  -12.7659  -49.0891 H         1 UNK         0.0600 
    189 H189       -1.0992  -14.1030  -49.1549 H         1 UNK         0.3000 
    190 H190        1.0165  -20.7020  -47.4376 H         1 UNK         0.3000 
    191 H191       -0.3751  -20.8498  -49.9215 H         1 UNK         0.0600 
    192 H192       -1.8669  -19.1587  -48.7431 H         1 UNK         0.0600 
    193 H193       -0.1609  -18.7739  -48.5905 H         1 UNK         0.0600 
    194 H194       -1.0269  -19.4992  -47.2426 H         1 UNK         0.0600 
    195 H195       -0.7385  -22.6740  -47.0486 H         1 UNK         0.3000 
    196 H196       -2.0515  -24.2805  -46.3324 H         1 UNK         0.0600 
    197 H197       -4.0000  -23.9418  -48.6620 H         1 UNK         0.0600 
    198 H198       -2.5670  -24.9708  -48.7329 H         1 UNK         0.0600 
    199 H199       -3.8497  -25.3149  -47.5867 H         1 UNK         0.0600 
    200 H200       -4.3466  -24.5762  -45.4305 H         1 UNK         0.3000 
    201 H201       -5.0246  -22.3660  -43.8149 H         1 UNK         0.0600 
    202 H202       -6.6147  -24.9066  -44.4732 H         1 UNK         0.0600 
    203 H203       -6.9517  -23.8148  -43.1353 H         1 UNK         0.0600 
    204 H204       -5.4480  -24.7227  -43.1625 H         1 UNK         0.0600 
    205 H205       -6.3169  -20.6665  -44.1243 H         1 UNK         0.3000 
    206 H206       -7.5648  -19.1003  -45.0445 H         1 UNK         0.0600 
    207 H207       -9.4200  -20.7170  -44.5409 H         1 UNK         0.0600 
    208 H208       -9.7919  -19.6838  -45.9095 H         1 UNK         0.0600 
    209 H209       -9.3054  -21.3506  -46.1823 H         1 UNK         0.0600 
    210 H210       -5.2993  -20.2250  -46.6317 H         1 UNK         0.3000 
    211 H211       -4.1844  -19.8250  -48.4713 H         1 UNK         0.0600 
    212 H212       -4.6787  -17.8695  -49.8789 H         1 UNK         0.0600 
    213 H213       -4.9814  -17.4590  -48.2005 H         1 UNK         0.0600 
    214 H214       -6.3255  -17.7941  -49.2861 H         1 UNK         0.0600 
    215 H215       -6.1434  -21.9752  -48.4002 H         1 UNK         0.3000 
    216 H216       -7.6236  -22.2672  -50.7273 H         1 UNK         0.0600 
    217 H217       -6.3961  -24.4035  -48.9100 H         1 UNK         0.0600 
    218 H218       -7.6462  -24.7127  -50.1095 H         1 UNK         0.0600 
    219 H219       -7.9853  -23.6579  -48.7494 H         1 UNK         0.0600 
    220 H220       -4.1481  -22.9088  -50.3538 H         1 UNK         0.3000 
    221 H221       -4.0000  -24.2102  -53.0218 H         1 UNK         0.0600 
    222 H222       -1.6244  -24.5262  -52.4917 H         1 UNK         0.0600 
    223 H223       -2.6187  -25.1750  -51.1986 H         1 UNK         0.0600 
    224 H224       -1.7851  -23.6359  -50.9890 H         1 UNK         0.0600 
    225 H225       -2.9826  -21.2623  -51.2684 H         1 UNK         0.3000 
    226 H226       -1.5794  -20.0061  -53.3534 H         1 UNK         0.0600 
    227 H227       -1.2094  -19.1886  -51.1611 H         1 UNK         0.0600 
    228 H228       -2.0697  -17.8810  -51.9330 H         1 UNK         0.0600 
    229 H229       -2.9311  -18.9587  -50.8415 H         1 UNK         0.0600 
    230 H230       -5.0183  -20.2418  -52.9624 H         1 UNK         0.3000 
    231 H231       -5.9628  -18.1718  -54.5887 H         1 UNK         0.0600 
    232 H232       -7.0007  -21.0397  -54.2537 H         1 UNK         0.0600 
    233 H233       -7.9316  -19.6965  -54.9095 H         1 UNK         0.0600 
    234 H234       -7.4089  -19.6622  -53.2323 H         1 UNK         0.0600 
    235 H235       -4.2101  -21.0479  -55.5514 H         1 UNK         0.3000 
    236 H236       -4.3727  -20.2096  -58.4247 H         1 UNK         0.0600 
    237 H237       -5.5125  -22.3951  -58.1653 H         1 UNK         0.0600 
    238 H238       -3.9862  -22.6047  -59.0096 H         1 UNK         0.0600 
    239 H239       -4.1211  -23.0585  -57.3130 H         1 UNK         0.0600 
    240 H240       -2.4386  -21.8729  -55.8936 H         1 UNK         0.3000 
    241 H241       -0.3818  -22.1078  -55.4490 H         1 UNK         0.0600 
    242 H242        0.4767  -23.3973  -58.9337 H         1 UNK         0.3800 
    243 H243       -1.0914  -23.1187  -58.2227 H         1 UNK         0.3800 
    244 H244       -0.6970  -19.3642  -55.5680 H         1 UNK         0.0800 
    245 H245        0.6981  -19.5378  -56.5862 H         1 UNK         0.0800 
    246 H246        1.6630  -17.8780  -54.3419 H         1 UNK         0.0800 
    247 H247        0.1202  -18.1803  -53.5749 H         1 UNK         0.0800 
@<TRIPOS>BOND
     1    1    2 1    
     2    1  127 1    
     3    1  128 1    
     4    1  129 1    
     5    2    3 2    
     6    2    4 am   BACKBONE|DICT|INTERRES
     7    4    5 1    
     8    4  130 1    
     9    5    6 1    
    10    5   65 1    
    11    5  131 1    
    12    6    7 1    
    13    6  132 1    
    14    6  133 1    
    15    7    8 1    
    16    8    9 1    
    17    8  134 1    
    18    8  135 1    
    19    9   10 ar   
    20    9   14 ar   
    21   10   11 ar   
    22   10  136 1    
    23   11   12 ar   
    24   11  126 1    
    25   12   13 ar   
    26   12  137 1    
    27   13   14 ar   
    28   13   15 1    
    29   14  138 1    
    30   15   16 1    
    31   15  139 1    
    32   15  140 1    
    33   16   17 1    
    34   17   18 1    
    35   17  141 1    
    36   17  142 1    
    37   18   19 1    
    38   18   67 1    
    39   18  143 1    
    40   19   20 am   BACKBONE|DICT|INTERRES
    41   19  144 1    
    42   20   21 2    
    43   20   22 1    
    44   22   23 1    
    45   22   24 1    
    46   22  145 1    
    47   23  146 1    
    48   23  147 1    
    49   23  148 1    
    50   24   25 am   BACKBONE|DICT|INTERRES
    51   24  149 1    
    52   25   26 2    
    53   25   27 1    
    54   27   28 1    
    55   27   29 1    
    56   27  150 1    
    57   28  151 1    
    58   28  152 1    
    59   28  153 1    
    60   29   30 am   BACKBONE|DICT|INTERRES
    61   29  154 1    
    62   30   31 2    
    63   30   32 1    
    64   32   33 1    
    65   32   34 1    
    66   32  155 1    
    67   33  156 1    
    68   33  157 1    
    69   33  158 1    
    70   34   35 am   BACKBONE|DICT|INTERRES
    71   34  159 1    
    72   35   36 2    
    73   35   37 1    
    74   37   38 1    
    75   37   39 1    
    76   37  160 1    
    77   38  161 1    
    78   38  162 1    
    79   38  163 1    
    80   39   40 am   BACKBONE|DICT|INTERRES
    81   39  164 1    
    82   40   41 2    
    83   40   42 1    
    84   42   43 1    
    85   42   44 1    
    86   42  165 1    
    87   43  166 1    
    88   43  167 1    
    89   43  168 1    
    90   44   45 am   BACKBONE|DICT|INTERRES
    91   44  169 1    
    92   45   46 2    
    93   45   47 1    
    94   47   48 1    
    95   47   49 1    
    96   47  170 1    
    97   48  171 1    
    98   48  172 1    
    99   48  173 1    
   100   49   50 am   BACKBONE|DICT|INTERRES
   101   49  174 1    
   102   50   51 2    
   103   50   52 1    
   104   52   53 1    
   105   52   54 1    
   106   52  175 1    
   107   53  176 1    
   108   53  177 1    
   109   53  178 1    
   110   54   55 am   BACKBONE|DICT|INTERRES
   111   54  179 1    
   112   55   56 2    
   113   55   57 1    
   114   57   58 1    
   115   57   59 1    
   116   57  180 1    
   117   58  181 1    
   118   58  182 1    
   119   58  183 1    
   120   59   60 am   BACKBONE|DICT|INTERRES
   121   59  184 1    
   122   60   61 2    
   123   60   62 1    
   124   62   63 1    
   125   62   64 1    
   126   62  185 1    
   127   63  186 1    
   128   63  187 1    
   129   63  188 1    
   130   64   65 am   BACKBONE|DICT|INTERRES
   131   64  189 1    
   132   65   66 2    
   133   67   68 2    
   134   67   69 am   BACKBONE|DICT|INTERRES
   135   69   70 1    
   136   69  190 1    
   137   70   71 1    
   138   70   72 1    
   139   70  191 1    
   140   71  192 1    
   141   71  193 1    
   142   71  194 1    
   143   72   73 2    
   144   72   74 am   BACKBONE|DICT|INTERRES
   145   74   75 1    
   146   74  195 1    
   147   75   76 1    
   148   75   77 1    
   149   75  196 1    
   150   76  197 1    
   151   76  198 1    
   152   76  199 1    
   153   77   78 2    
   154   77   79 am   BACKBONE|DICT|INTERRES
   155   79   80 1    
   156   79  200 1    
   157   80   81 1    
   158   80   82 1    
   159   80  201 1    
   160   81  202 1    
   161   81  203 1    
   162   81  204 1    
   163   82   83 2    
   164   82   84 am   BACKBONE|DICT|INTERRES
   165   84   85 1    
   166   84  205 1    
   167   85   86 1    
   168   85   87 1    
   169   85  206 1    
   170   86  207 1    
   171   86  208 1    
   172   86  209 1    
   173   87   88 2    
   174   87   89 am   BACKBONE|DICT|INTERRES
   175   89   90 1    
   176   89  210 1    
   177   90   91 1    
   178   90   92 1    
   179   90  211 1    
   180   91  212 1    
   181   91  213 1    
   182   91  214 1    
   183   92   93 2    
   184   92   94 am   BACKBONE|DICT|INTERRES
   185   94   95 1    
   186   94  215 1    
   187   95   96 1    
   188   95   97 1    
   189   95  216 1    
   190   96  217 1    
   191   96  218 1    
   192   96  219 1    
   193   97   98 2    
   194   97   99 am   BACKBONE|DICT|INTERRES
   195   99  100 1    
   196   99  220 1    
   197  100  101 1    
   198  100  102 1    
   199  100  221 1    
   200  101  222 1    
   201  101  223 1    
   202  101  224 1    
   203  102  103 2    
   204  102  104 am   BACKBONE|DICT|INTERRES
   205  104  105 1    
   206  104  225 1    
   207  105  106 1    
   208  105  107 1    
   209  105  226 1    
   210  106  227 1    
   211  106  228 1    
   212  106  229 1    
   213  107  108 2    
   214  107  109 am   BACKBONE|DICT|INTERRES
   215  109  110 1    
   216  109  230 1    
   217  110  111 1    
   218  110  112 1    
   219  110  231 1    
   220  111  232 1    
   221  111  233 1    
   222  111  234 1    
   223  112  113 2    
   224  112  114 am   BACKBONE|DICT|INTERRES
   225  114  115 1    
   226  114  235 1    
   227  115  116 1    
   228  115  117 1    
   229  115  236 1    
   230  116  237 1    
   231  116  238 1    
   232  116  239 1    
   233  117  118 2    
   234  117  119 am   BACKBONE|DICT|INTERRES
   235  119  120 1    
   236  119  240 1    
   237  120  121 1    
   238  120  124 1    
   239  120  241 1    
   240  121  122 am   BACKBONE|DICT|INTERRES
   241  121  123 2    
   242  122  242 1    
   243  122  243 1    
   244  124  125 1    
   245  124  244 1    
   246  124  245 1    
   247  125  126 1    
   248  126  246 1    
   249  126  247 1    
@<TRIPOS>SUBSTRUCTURE
     1 UNK         1 GROUP             0       ****    0 ROOT    
