@<TRIPOS>MOLECULE
3R540
247   249    1
SMALL
USER_CHARGES


@<TRIPOS>ATOM
      1 CA         -1.2053  -18.7457  -40.8438 C.3       0 UNK        -0.1800 
      2 C          -1.7927  -17.3565  -41.0476 C.2       0 UNK         0.5000 
      3 O          -2.8047  -17.0286  -40.4286 O.2       0 UNK        -0.5000 
      4 N          -1.1644  -16.5441  -41.9051 N.am      1 UNK        -0.5000 
      5 CA         -1.5810  -15.1697  -42.2140 C.3       1 UNK         0.1400 
      6 C6         -2.5424  -15.0826  -43.4284 C.3       23 UNK        -0.0398 
      7 S7         -1.8109  -15.5343  -45.0377 S.3       23 UNK        -0.2404 
      8 C8         -2.0635  -17.3295  -45.0992 C.3       23 UNK        -0.0205 
      9 C9         -3.5153  -17.7530  -45.2088 C.ar      23 UNK        -0.0193 
     10 C10        -4.2241  -17.5447  -46.3930 C.ar      23 UNK        -0.1150 
     11 C11        -5.5155  -18.0545  -46.5441 C.ar      23 UNK        -0.0193 
     12 C12        -6.1139  -18.7426  -45.4842 C.ar      23 UNK        -0.1150 
     13 C13        -5.4181  -18.9391  -44.2869 C.ar      23 UNK        -0.0193 
     14 C14        -4.1219  -18.4378  -44.1541 C.ar      23 UNK        -0.1150 
     15 C15        -6.0456  -19.7125  -43.1385 C.3       23 UNK        -0.0205 
     16 S16        -5.2962  -21.3620  -42.9443 S.3       23 UNK        -0.2404 
     17 C17        -5.9621  -22.2472  -44.4004 C.3       23 UNK        -0.0398 
     18 CA         -4.9023  -23.0061  -45.2381 C.3       11 UNK         0.1400 
     19 N          -3.8356  -22.1245  -45.7251 N.am      11 UNK        -0.5000 
     20 C          -3.1411  -22.3467  -46.8474 C.2       10 UNK         0.5000 
     21 O          -3.3999  -23.2640  -47.6287 O.2       10 UNK        -0.5000 
     22 CA         -1.9826  -21.3883  -47.1927 C.3       10 UNK         0.1400 
     23 CB         -2.4698  -20.3297  -48.1895 C.3       10 UNK        -0.1800 
     24 N          -1.2962  -20.6971  -46.0930 N.am      10 UNK        -0.5000 
     25 C          -0.8428  -21.2074  -44.9388 C.2       9 UNK         0.5000 
     26 O          -1.1045  -22.3394  -44.5359 O.2       9 UNK        -0.5000 
     27 CA          0.0570  -20.2928  -44.0870 C.3       9 UNK         0.1400 
     28 CB          1.0317  -21.0830  -43.1926 C.3       9 UNK        -0.1800 
     29 N           0.7993  -19.3440  -44.9183 N.am      9 UNK        -0.5000 
     30 C           1.2234  -18.1328  -44.5423 C.2       8 UNK         0.5000 
     31 O           0.9893  -17.6404  -43.4370 O.2       8 UNK        -0.5000 
     32 CA          2.0318  -17.3238  -45.5742 C.3       8 UNK         0.1400 
     33 CB          3.3873  -17.9934  -45.8684 C.3       8 UNK        -0.1800 
     34 N           1.3149  -17.0043  -46.8162 N.am      8 UNK        -0.5000 
     35 C           0.8363  -17.8268  -47.7634 C.2       7 UNK         0.5000 
     36 O           0.8729  -19.0547  -47.6915 O.2       7 UNK        -0.5000 
     37 CA          0.2314  -17.1694  -49.0159 C.3       7 UNK         0.1400 
     38 CB         -1.2026  -16.6863  -48.7580 C.3       7 UNK        -0.1800 
     39 N           1.0445  -16.0358  -49.4471 N.am      7 UNK        -0.5000 
     40 C           1.8510  -16.0323  -50.5173 C.2       6 UNK         0.5000 
     41 O           1.9327  -16.9608  -51.3218 O.2       6 UNK        -0.5000 
     42 CA          2.7347  -14.7830  -50.7157 C.3       6 UNK         0.1400 
     43 CB          2.0264  -13.7594  -51.6160 C.3       6 UNK        -0.1800 
     44 N           3.0954  -14.1385  -49.4518 N.am      6 UNK        -0.5000 
     45 C           3.8657  -14.6935  -48.5060 C.2       5 UNK         0.5000 
     46 O           4.4777  -15.7499  -48.6631 O.2       5 UNK        -0.5000 
     47 CA          3.9521  -13.9699  -47.1478 C.3       5 UNK         0.1400 
     48 CB          5.3317  -13.3191  -46.9675 C.3       5 UNK        -0.1800 
     49 N           2.9228  -12.9529  -46.9134 N.am      5 UNK        -0.5000 
     50 C           1.5998  -13.1458  -46.8311 C.2       4 UNK         0.5000 
     51 O           1.0532  -14.2207  -47.0861 O.2       4 UNK        -0.5000 
     52 CA          0.7736  -11.9252  -46.3699 C.3       4 UNK         0.1400 
     53 CB         -0.7415  -12.1810  -46.3651 C.3       4 UNK        -0.1800 
     54 N           1.1869  -11.4973  -45.0323 N.am      4 UNK        -0.5000 
     55 C           2.2865  -10.7802  -44.7636 C.2       3 UNK         0.5000 
     56 O           3.0107  -10.3006  -45.6377 O.2       3 UNK        -0.5000 
     57 CA          2.6806  -10.6083  -43.2855 C.3       3 UNK         0.1400 
     58 CB          2.1823   -9.2570  -42.7513 C.3       3 UNK        -0.1800 
     59 N           2.2041  -11.6734  -42.4005 N.am      3 UNK        -0.5000 
     60 C           2.5124  -12.9768  -42.4797 C.2       2 UNK         0.5000 
     61 O           3.2129  -13.4683  -43.3654 O.2       2 UNK        -0.5000 
     62 CA          1.9662  -13.8842  -41.3580 C.3       2 UNK         0.1400 
     63 CB          1.7120  -13.1302  -40.0338 C.3       2 UNK        -0.1800 
     64 N           0.7672  -14.6444  -41.7231 N.am      2 UNK        -0.5000 
     65 C          -0.3842  -14.1917  -42.2473 C.2       1 UNK         0.5000 
     66 O          -0.5432  -13.0466  -42.6748 O.2       1 UNK        -0.5000 
     67 C          -4.3646  -24.2475  -44.4873 C.2       11 UNK         0.5000 
     68 O          -5.0995  -25.2284  -44.3608 O.2       11 UNK        -0.5000 
     69 N          -3.1207  -24.1892  -43.9924 N.am      12 UNK        -0.5000 
     70 CA         -2.4937  -25.2169  -43.1615 C.3       12 UNK         0.1400 
     71 CB         -1.9690  -24.5586  -41.8751 C.3       12 UNK        -0.1800 
     72 C          -1.3503  -25.9410  -43.8914 C.2       12 UNK         0.5000 
     73 O          -1.1958  -27.1496  -43.7092 O.2       12 UNK        -0.5000 
     74 N          -0.5703  -25.2109  -44.6966 N.am      13 UNK        -0.5000 
     75 CA          0.5652  -25.7242  -45.4595 C.3       13 UNK         0.1400 
     76 CB          1.8478  -25.6002  -44.6202 C.3       13 UNK        -0.1800 
     77 C           0.6832  -24.9308  -46.7653 C.2       13 UNK         0.5000 
     78 O           0.3736  -23.7407  -46.7705 O.2       13 UNK        -0.5000 
     79 N           1.1288  -25.5976  -47.8413 N.am      14 UNK        -0.5000 
     80 CA          1.1625  -25.0937  -49.2225 C.3       14 UNK         0.1400 
     81 CB          2.1733  -23.9372  -49.3791 C.3       14 UNK        -0.1800 
     82 C          -0.2570  -24.7246  -49.6978 C.2       14 UNK         0.5000 
     83 O          -0.5405  -23.5541  -49.9589 O.2       14 UNK        -0.5000 
     84 N          -1.1205  -25.7508  -49.7370 N.am      15 UNK        -0.5000 
     85 CA         -2.5717  -25.7117  -49.9449 C.3       15 UNK         0.1400 
     86 CB         -3.0564  -27.1209  -50.3206 C.3       15 UNK        -0.1800 
     87 C          -3.0531  -24.6828  -50.9845 C.2       15 UNK         0.5000 
     88 O          -2.7192  -24.8009  -52.1660 O.2       15 UNK        -0.5000 
     89 N          -3.8050  -23.6832  -50.5051 N.am      16 UNK        -0.5000 
     90 CA         -4.3800  -22.5704  -51.2658 C.3       16 UNK         0.1400 
     91 CB         -5.4744  -23.0726  -52.2306 C.3       16 UNK        -0.1800 
     92 C          -3.3121  -21.7067  -51.9673 C.2       16 UNK         0.5000 
     93 O          -3.5256  -21.2680  -53.0987 O.2       16 UNK        -0.5000 
     94 N          -2.1903  -21.4744  -51.2721 N.am      17 UNK        -0.5000 
     95 CA         -1.0121  -20.7157  -51.7041 C.3       17 UNK         0.1400 
     96 CB         -1.3678  -19.2395  -51.9852 C.3       17 UNK        -0.1800 
     97 C          -0.2917  -21.4213  -52.8688 C.2       17 UNK         0.5000 
     98 O           0.0922  -20.7821  -53.8478 O.2       17 UNK        -0.5000 
     99 N          -0.1541  -22.7478  -52.7274 N.am      18 UNK        -0.5000 
    100 CA         0.3318  -23.7098  -53.7190 C.3       18 UNK         0.1400 
    101 CB         1.8298  -23.4897  -54.0154 C.3       18 UNK        -0.1800 
    102 C         -0.5549  -23.7195  -54.9818 C.2       18 UNK         0.5000 
    103 O         -0.0514  -23.5842  -56.0987 O.2       18 UNK        -0.5000 
    104 N         -1.8688  -23.8741  -54.7579 N.am      19 UNK        -0.5000 
    105 CA        -2.9477  -23.8912  -55.7501 C.3       19 UNK         0.1400 
    106 CB        -2.8618  -25.1618  -56.6212 C.3       19 UNK        -0.1800 
    107 C         -3.0305  -22.5893  -56.5769 C.2       19 UNK         0.5000 
    108 O         -3.1006  -22.6360  -57.8067 O.2       19 UNK        -0.5000 
    109 N         -3.0335  -21.4489  -55.8773 N.am      20 UNK        -0.5000 
    110 CA        -3.1423  -20.1014  -56.4383 C.3       20 UNK         0.1400 
    111 CB        -1.8149  -19.3529  -56.2302 C.3       20 UNK        -0.1800 
    112 C         -4.3441  -19.3614  -55.8206 C.2       20 UNK         0.5000 
    113 O         -4.2716  -18.1559  -55.5719 O.2       20 UNK        -0.5000 
    114 N         -5.4292  -20.1097  -55.5646 N.am      21 UNK        -0.5000 
    115 CA        -6.7300  -19.6561  -55.0529 C.3       21 UNK         0.1400 
    116 CB        -7.4619  -18.8272  -56.1289 C.3       21 UNK        -0.1800 
    117 C         -6.6605  -18.9270  -53.6923 C.2       21 UNK         0.5000 
    118 O         -7.5102  -18.0827  -53.4034 O.2       21 UNK        -0.5000 
    119 N         -5.6505  -19.2671  -52.8810 N.am      22 UNK        -0.5000 
    120 CA        -5.3290  -18.6348  -51.5917 C.3       22 UNK         0.1400 
    121 C         -4.7376  -17.1957  -51.7091 C.2       22 UNK         0.5000 
    122 N         -4.3020  -16.7509  -52.8833 N.am      22 UNK        -0.7600 
    123 O         -4.6409  -16.4767  -50.7196 O.2       22 UNK        -0.5000 
    124 C124       -6.4871  -18.7648  -50.5540 C.3       23 UNK        -0.0398 
    125 S125       -5.9048  -19.3494  -48.9290 S.3       23 UNK        -0.2404 
    126 C126       -6.2337  -17.9051  -47.8738 C.3       23 UNK        -0.0205 
    127 H127       -1.8363  -19.4953  -41.3212 H         1 UNK         0.0600 
    128 H128       -1.1490  -18.9764  -39.7801 H         1 UNK         0.0600 
    129 H129       -0.1987  -18.8231  -41.2544 H         1 UNK         0.0600 
    130 H130       -0.3586  -16.8873  -42.4267 H         1 UNK         0.3000 
    131 H131       -2.1549  -14.8014  -41.3612 H         1 UNK         0.0600 
    132 H132       -3.4197  -15.7039  -43.2470 H         1 UNK         0.0800 
    133 H133       -2.9280  -14.0660  -43.5192 H         1 UNK         0.0800 
    134 H134       -1.5225  -17.7224  -45.9576 H         1 UNK         0.0800 
    135 H135       -1.6121  -17.7806  -44.2201 H         1 UNK         0.0800 
    136 H136       -3.7548  -17.0248  -47.2156 H         1 UNK         0.1150 
    137 H137       -7.1101  -19.1446  -45.6027 H         1 UNK         0.1150 
    138 H138       -3.5778  -18.6109  -43.2365 H         1 UNK         0.1150 
    139 H139       -5.9067  -19.1517  -42.2131 H         1 UNK         0.0800 
    140 H140       -7.1234  -19.8127  -43.2759 H         1 UNK         0.0800 
    141 H141       -6.4766  -21.5394  -45.0499 H         1 UNK         0.0800 
    142 H142       -6.7394  -22.9321  -44.0566 H         1 UNK         0.0800 
    143 H143       -5.4334  -23.3979  -46.1086 H         1 UNK         0.0600 
    144 H144       -3.5870  -21.3450  -45.1336 H         1 UNK         0.3000 
    145 H145       -1.2319  -21.9917  -47.7035 H         1 UNK         0.0600 
    146 H146       -1.6350  -19.8810  -48.7265 H         1 UNK         0.0600 
    147 H147       -3.1472  -20.7535  -48.9287 H         1 UNK         0.0600 
    148 H148       -3.0180  -19.5368  -47.6874 H         1 UNK         0.0600 
    149 H149       -0.9887  -19.7646  -46.3212 H         1 UNK         0.3000 
    150 H150       -0.6227  -19.7383  -43.4417 H         1 UNK         0.0600 
    151 H151        1.7135  -21.6905  -43.7888 H         1 UNK         0.0600 
    152 H152        0.4957  -21.7526  -42.5189 H         1 UNK         0.0600 
    153 H153        1.6305  -20.4166  -42.5718 H         1 UNK         0.0600 
    154 H154        0.9994  -19.6345  -45.8730 H         1 UNK         0.3000 
    155 H155        2.2430  -16.3596  -45.1082 H         1 UNK         0.0600 
    156 H156        3.2715  -18.9510  -46.3766 H         1 UNK         0.0600 
    157 H157        3.9387  -18.1784  -44.9457 H         1 UNK         0.0600 
    158 H158        4.0117  -17.3585  -46.4958 H         1 UNK         0.0600 
    159 H159        1.1627  -16.0062  -46.9506 H         1 UNK         0.3000 
    160 H160        0.1922  -17.9314  -49.7964 H         1 UNK         0.0600 
    161 H161       -1.2382  -15.9090  -47.9942 H         1 UNK         0.0600 
    162 H162       -1.8382  -17.5062  -48.4295 H         1 UNK         0.0600 
    163 H163       -1.6487  -16.2804  -49.6662 H         1 UNK         0.0600 
    164 H164        1.0664  -15.2386  -48.8206 H         1 UNK         0.3000 
    165 H165        3.6545  -15.1003  -51.2115 H         1 UNK         0.0600 
    166 H166        2.6675  -12.9012  -51.8185 H         1 UNK         0.0600 
    167 H167        1.7640  -14.2020  -52.5778 H         1 UNK         0.0600 
    168 H168        1.1053  -13.3923  -51.1614 H         1 UNK         0.0600 
    169 H169        2.6457  -13.2598  -49.2421 H         1 UNK         0.3000 
    170 H170        3.8336  -14.7315  -46.3748 H         1 UNK         0.0600 
    171 H171        6.1314  -14.0502  -47.0937 H         1 UNK         0.0600 
    172 H172        5.4966  -12.5215  -47.6929 H         1 UNK         0.0600 
    173 H173        5.4379  -12.8934  -45.9692 H         1 UNK         0.0600 
    174 H174        3.2614  -12.0285  -46.6679 H         1 UNK         0.3000 
    175 H175        0.9660  -11.1209  -47.0828 H         1 UNK         0.0600 
    176 H176       -1.0221  -12.8816  -45.5811 H         1 UNK         0.0600 
    177 H177       -1.2928  -11.2569  -46.1923 H         1 UNK         0.0600 
    178 H178       -1.0815  -12.5899  -47.3174 H         1 UNK         0.0600 
    179 H179        0.6739  -11.8947  -44.2539 H         1 UNK         0.3000 
    180 H180        3.7715  -10.6121  -43.2411 H         1 UNK         0.0600 
    181 H181        1.0927   -9.2074  -42.7394 H         1 UNK         0.0600 
    182 H182        2.5418   -8.4343  -43.3710 H         1 UNK         0.0600 
    183 H183        2.5389   -9.0768  -41.7370 H         1 UNK         0.0600 
    184 H184        1.5901  -11.3851  -41.6528 H         1 UNK         0.3000 
    185 H185        2.7468  -14.6216  -41.1645 H         1 UNK         0.0600 
    186 H186        2.5886  -12.5558  -39.7310 H         1 UNK         0.0600 
    187 H187        0.8688  -12.4423  -40.1048 H         1 UNK         0.0600 
    188 H188        1.4949  -13.8293  -39.2260 H         1 UNK         0.0600 
    189 H189        0.7823  -15.6136  -41.4400 H         1 UNK         0.3000 
    190 H190       -2.5483  -23.3712  -44.1903 H         1 UNK         0.3000 
    191 H191       -3.2270  -25.9724  -42.8724 H         1 UNK         0.0600 
    192 H192       -2.7789  -24.0906  -41.3152 H         1 UNK         0.0600 
    193 H193       -1.5030  -25.2958  -41.2200 H         1 UNK         0.0600 
    194 H194       -1.2243  -23.7909  -42.0894 H         1 UNK         0.0600 
    195 H195       -0.7522  -24.2166  -44.8189 H         1 UNK         0.3000 
    196 H196        0.3968  -26.7735  -45.7109 H         1 UNK         0.0600 
    197 H197        2.7151  -25.9620  -45.1737 H         1 UNK         0.0600 
    198 H198        1.7783  -26.1866  -43.7039 H         1 UNK         0.0600 
    199 H199        2.0430  -24.5639  -44.3406 H         1 UNK         0.0600 
    200 H200        1.3806  -26.5698  -47.7291 H         1 UNK         0.3000 
    201 H201        1.5060  -25.9150  -49.8533 H         1 UNK         0.0600 
    202 H202        3.1683  -24.2372  -49.0511 H         1 UNK         0.0600 
    203 H203        1.8841  -23.0552  -48.8069 H         1 UNK         0.0600 
    204 H204        2.2521  -23.6321  -50.4232 H         1 UNK         0.0600 
    205 H205       -0.7545  -26.6623  -49.5063 H         1 UNK         0.3000 
    206 H206       -3.0157  -25.4633  -48.9802 H         1 UNK         0.0600 
    207 H207       -2.8314  -27.8410  -49.5337 H         1 UNK         0.0600 
    208 H208       -4.1365  -27.1358  -50.4730 H         1 UNK         0.0600 
    209 H209       -2.5903  -27.4727  -51.2420 H         1 UNK         0.0600 
    210 H210       -3.9314  -23.6357  -49.4971 H         1 UNK         0.3000 
    211 H211       -4.8621  -21.9188  -50.5359 H         1 UNK         0.0600 
    212 H212       -5.0621  -23.6968  -53.0233 H         1 UNK         0.0600 
    213 H213       -5.9928  -22.2394  -52.7060 H         1 UNK         0.0600 
    214 H214       -6.2257  -23.6581  -51.7010 H         1 UNK         0.0600 
    215 H215       -2.0675  -21.9825  -50.4047 H         1 UNK         0.3000 
    216 H216       -0.3148  -20.7286  -50.8649 H         1 UNK         0.0600 
    217 H217       -0.4713  -18.6581  -52.2036 H         1 UNK         0.0600 
    218 H218       -1.8499  -18.7796  -51.1229 H         1 UNK         0.0600 
    219 H219       -2.0391  -19.1317  -52.8365 H         1 UNK         0.0600 
    220 H220       -0.4926  -23.1479  -51.8571 H         1 UNK         0.3000 
    221 H221        0.2289  -24.6961  -53.2638 H         1 UNK         0.0600 
    222 H222        2.0120  -22.5355  -54.5104 H         1 UNK         0.0600 
    223 H223        2.4195  -23.5101  -53.0991 H         1 UNK         0.0600 
    224 H224        2.2157  -24.2738  -54.6677 H         1 UNK         0.0600 
    225 H225       -2.1670  -24.0206  -53.7958 H         1 UNK         0.3000 
    226 H226       -3.8777  -23.9487  -55.1834 H         1 UNK         0.0600 
    227 H227       -2.8448  -26.0605  -56.0047 H         1 UNK         0.0600 
    228 H228       -3.7247  -25.2403  -57.2836 H         1 UNK         0.0600 
    229 H229       -1.9684  -25.1668  -57.2462 H         1 UNK         0.0600 
    230 H230       -3.0207  -21.4929  -54.8596 H         1 UNK         0.3000 
    231 H231       -3.3343  -20.1502  -57.5116 H         1 UNK         0.0600 
    232 H232       -1.6182  -19.1746  -55.1735 H         1 UNK         0.0600 
    233 H233       -1.8276  -18.3839  -56.7301 H         1 UNK         0.0600 
    234 H234       -0.9752  -19.9181  -56.6350 H         1 UNK         0.0600 
    235 H235       -5.3637  -21.0962  -55.7698 H         1 UNK         0.3000 
    236 H236       -7.3175  -20.5581  -54.8763 H         1 UNK         0.0600 
    237 H237       -7.5193  -19.3691  -57.0729 H         1 UNK         0.0600 
    238 H238       -8.4847  -18.6016  -55.8251 H         1 UNK         0.0600 
    239 H239       -6.9590  -17.8780  -56.3171 H         1 UNK         0.0600 
    240 H240       -4.9765  -19.9514  -53.2103 H         1 UNK         0.3000 
    241 H241       -4.4860  -19.2168  -51.2228 H         1 UNK         0.0600 
    242 H242       -3.9143  -15.8233  -52.9415 H         1 UNK         0.3800 
    243 H243       -4.3664  -17.3178  -53.7222 H         1 UNK         0.3800 
    244 H244       -7.0459  -17.8327  -50.4547 H         1 UNK         0.0800 
    245 H245       -7.2191  -19.5015  -50.8874 H         1 UNK         0.0800 
    246 H246       -5.9007  -16.9952  -48.3752 H         1 UNK         0.0800 
    247 H247       -7.3084  -17.8016  -47.7174 H         1 UNK         0.0800 
@<TRIPOS>BOND
     1    1    2 1    
     2    1  127 1    
     3    1  128 1    
     4    1  129 1    
     5    2    3 2    
     6    2    4 am   BACKBONE|DICT|INTERRES
     7    4    5 1    
     8    4  130 1    
     9    5    6 1    
    10    5   65 1    
    11    5  131 1    
    12    6    7 1    
    13    6  132 1    
    14    6  133 1    
    15    7    8 1    
    16    8    9 1    
    17    8  134 1    
    18    8  135 1    
    19    9   10 ar   
    20    9   14 ar   
    21   10   11 ar   
    22   10  136 1    
    23   11   12 ar   
    24   11  126 1    
    25   12   13 ar   
    26   12  137 1    
    27   13   14 ar   
    28   13   15 1    
    29   14  138 1    
    30   15   16 1    
    31   15  139 1    
    32   15  140 1    
    33   16   17 1    
    34   17   18 1    
    35   17  141 1    
    36   17  142 1    
    37   18   19 1    
    38   18   67 1    
    39   18  143 1    
    40   19   20 am   BACKBONE|DICT|INTERRES
    41   19  144 1    
    42   20   21 2    
    43   20   22 1    
    44   22   23 1    
    45   22   24 1    
    46   22  145 1    
    47   23  146 1    
    48   23  147 1    
    49   23  148 1    
    50   24   25 am   BACKBONE|DICT|INTERRES
    51   24  149 1    
    52   25   26 2    
    53   25   27 1    
    54   27   28 1    
    55   27   29 1    
    56   27  150 1    
    57   28  151 1    
    58   28  152 1    
    59   28  153 1    
    60   29   30 am   BACKBONE|DICT|INTERRES
    61   29  154 1    
    62   30   31 2    
    63   30   32 1    
    64   32   33 1    
    65   32   34 1    
    66   32  155 1    
    67   33  156 1    
    68   33  157 1    
    69   33  158 1    
    70   34   35 am   BACKBONE|DICT|INTERRES
    71   34  159 1    
    72   35   36 2    
    73   35   37 1    
    74   37   38 1    
    75   37   39 1    
    76   37  160 1    
    77   38  161 1    
    78   38  162 1    
    79   38  163 1    
    80   39   40 am   BACKBONE|DICT|INTERRES
    81   39  164 1    
    82   40   41 2    
    83   40   42 1    
    84   42   43 1    
    85   42   44 1    
    86   42  165 1    
    87   43  166 1    
    88   43  167 1    
    89   43  168 1    
    90   44   45 am   BACKBONE|DICT|INTERRES
    91   44  169 1    
    92   45   46 2    
    93   45   47 1    
    94   47   48 1    
    95   47   49 1    
    96   47  170 1    
    97   48  171 1    
    98   48  172 1    
    99   48  173 1    
   100   49   50 am   BACKBONE|DICT|INTERRES
   101   49  174 1    
   102   50   51 2    
   103   50   52 1    
   104   52   53 1    
   105   52   54 1    
   106   52  175 1    
   107   53  176 1    
   108   53  177 1    
   109   53  178 1    
   110   54   55 am   BACKBONE|DICT|INTERRES
   111   54  179 1    
   112   55   56 2    
   113   55   57 1    
   114   57   58 1    
   115   57   59 1    
   116   57  180 1    
   117   58  181 1    
   118   58  182 1    
   119   58  183 1    
   120   59   60 am   BACKBONE|DICT|INTERRES
   121   59  184 1    
   122   60   61 2    
   123   60   62 1    
   124   62   63 1    
   125   62   64 1    
   126   62  185 1    
   127   63  186 1    
   128   63  187 1    
   129   63  188 1    
   130   64   65 am   BACKBONE|DICT|INTERRES
   131   64  189 1    
   132   65   66 2    
   133   67   68 2    
   134   67   69 am   BACKBONE|DICT|INTERRES
   135   69   70 1    
   136   69  190 1    
   137   70   71 1    
   138   70   72 1    
   139   70  191 1    
   140   71  192 1    
   141   71  193 1    
   142   71  194 1    
   143   72   73 2    
   144   72   74 am   BACKBONE|DICT|INTERRES
   145   74   75 1    
   146   74  195 1    
   147   75   76 1    
   148   75   77 1    
   149   75  196 1    
   150   76  197 1    
   151   76  198 1    
   152   76  199 1    
   153   77   78 2    
   154   77   79 am   BACKBONE|DICT|INTERRES
   155   79   80 1    
   156   79  200 1    
   157   80   81 1    
   158   80   82 1    
   159   80  201 1    
   160   81  202 1    
   161   81  203 1    
   162   81  204 1    
   163   82   83 2    
   164   82   84 am   BACKBONE|DICT|INTERRES
   165   84   85 1    
   166   84  205 1    
   167   85   86 1    
   168   85   87 1    
   169   85  206 1    
   170   86  207 1    
   171   86  208 1    
   172   86  209 1    
   173   87   88 2    
   174   87   89 am   BACKBONE|DICT|INTERRES
   175   89   90 1    
   176   89  210 1    
   177   90   91 1    
   178   90   92 1    
   179   90  211 1    
   180   91  212 1    
   181   91  213 1    
   182   91  214 1    
   183   92   93 2    
   184   92   94 am   BACKBONE|DICT|INTERRES
   185   94   95 1    
   186   94  215 1    
   187   95   96 1    
   188   95   97 1    
   189   95  216 1    
   190   96  217 1    
   191   96  218 1    
   192   96  219 1    
   193   97   98 2    
   194   97   99 am   BACKBONE|DICT|INTERRES
   195   99  100 1    
   196   99  220 1    
   197  100  101 1    
   198  100  102 1    
   199  100  221 1    
   200  101  222 1    
   201  101  223 1    
   202  101  224 1    
   203  102  103 2    
   204  102  104 am   BACKBONE|DICT|INTERRES
   205  104  105 1    
   206  104  225 1    
   207  105  106 1    
   208  105  107 1    
   209  105  226 1    
   210  106  227 1    
   211  106  228 1    
   212  106  229 1    
   213  107  108 2    
   214  107  109 am   BACKBONE|DICT|INTERRES
   215  109  110 1    
   216  109  230 1    
   217  110  111 1    
   218  110  112 1    
   219  110  231 1    
   220  111  232 1    
   221  111  233 1    
   222  111  234 1    
   223  112  113 2    
   224  112  114 am   BACKBONE|DICT|INTERRES
   225  114  115 1    
   226  114  235 1    
   227  115  116 1    
   228  115  117 1    
   229  115  236 1    
   230  116  237 1    
   231  116  238 1    
   232  116  239 1    
   233  117  118 2    
   234  117  119 am   BACKBONE|DICT|INTERRES
   235  119  120 1    
   236  119  240 1    
   237  120  121 1    
   238  120  124 1    
   239  120  241 1    
   240  121  122 am   BACKBONE|DICT|INTERRES
   241  121  123 2    
   242  122  242 1    
   243  122  243 1    
   244  124  125 1    
   245  124  244 1    
   246  124  245 1    
   247  125  126 1    
   248  126  246 1    
   249  126  247 1    
@<TRIPOS>SUBSTRUCTURE
     1 UNK         1 GROUP             0       ****    0 ROOT    
