@<TRIPOS>MOLECULE
3R540
247   249    1
SMALL
USER_CHARGES


@<TRIPOS>ATOM
      1 CA         -0.2165  -13.8472  -51.6482 C.3       0 UNK        -0.1800 
      2 C           0.0182  -14.0825  -50.1641 C.2       0 UNK         0.5000 
      3 O           1.0009  -13.5913  -49.6080 O.2       0 UNK        -0.5000 
      4 N          -0.8828  -14.8313  -49.5171 N.am      1 UNK        -0.5000 
      5 CA         -0.8526  -15.1490  -48.0872 C.3       1 UNK         0.1400 
      6 C6         -1.6030  -16.4734  -47.7703 C.3       23 UNK        -0.0398 
      7 S7         -0.6851  -18.0219  -48.1035 S.3       23 UNK        -0.2404 
      8 C8          0.1806  -17.7198  -49.6757 C.3       23 UNK        -0.0205 
      9 C9          0.7960  -18.9952  -50.2213 C.ar      23 UNK        -0.0193 
     10 C10         0.1409  -19.7209  -51.2199 C.ar      23 UNK        -0.1150 
     11 C11         0.6898  -20.9080  -51.7104 C.ar      23 UNK        -0.0193 
     12 C12         1.8972  -21.3769  -51.1841 C.ar      23 UNK        -0.1150 
     13 C13         2.5585  -20.6625  -50.1797 C.ar      23 UNK        -0.0193 
     14 C14         2.0128  -19.4610  -49.7170 C.ar      23 UNK        -0.1150 
     15 C15         3.8289  -21.2160  -49.5538 C.3       23 UNK        -0.0205 
     16 S16         3.5047  -21.7646  -47.8496 S.3       23 UNK        -0.2404 
     17 C17         4.7776  -23.0499  -47.6106 C.3       23 UNK        -0.0398 
     18 CA          4.5241  -23.9166  -46.3482 C.3       11 UNK         0.1400 
     19 N           4.4345  -23.0884  -45.1375 N.am      11 UNK        -0.5000 
     20 C           5.4932  -22.7224  -44.4020 C.2       10 UNK         0.5000 
     21 O           6.6279  -23.1691  -44.5770 O.2       10 UNK        -0.5000 
     22 CA          5.2782  -21.6582  -43.3056 C.3       10 UNK         0.1400 
     23 CB          5.7897  -20.2913  -43.7861 C.3       10 UNK        -0.1800 
     24 N           3.8853  -21.5131  -42.8861 N.am      10 UNK        -0.5000 
     25 C           3.2188  -22.4014  -42.1369 C.2       9 UNK         0.5000 
     26 O           3.7292  -23.4270  -41.6851 O.2       9 UNK        -0.5000 
     27 CA          1.7300  -22.1137  -41.8518 C.3       9 UNK         0.1400 
     28 CB          1.5619  -21.5573  -40.4292 C.3       9 UNK        -0.1800 
     29 N           1.0815  -21.2004  -42.7986 N.am      9 UNK        -0.5000 
     30 C           0.9908  -21.3788  -44.1237 C.2       8 UNK         0.5000 
     31 O           1.4713  -22.3425  -44.7185 O.2       8 UNK        -0.5000 
     32 CA          0.2648  -20.2932  -44.9304 C.3       8 UNK         0.1400 
     33 CB         -1.2324  -20.6087  -44.9883 C.3       8 UNK        -0.1800 
     34 N           0.4446  -18.9390  -44.4129 N.am      8 UNK        -0.5000 
     35 C           1.6171  -18.2968  -44.3206 C.2       7 UNK         0.5000 
     36 O           2.7029  -18.7948  -44.6175 O.2       7 UNK        -0.5000 
     37 CA          1.5592  -16.8642  -43.7680 C.3       7 UNK         0.1400 
     38 CB          1.0777  -15.8782  -44.8459 C.3       7 UNK        -0.1800 
     39 N           0.6845  -16.7994  -42.5966 N.am      7 UNK        -0.5000 
     40 C           1.0589  -17.1831  -41.3672 C.2       6 UNK         0.5000 
     41 O           2.2111  -17.5024  -41.0735 O.2       6 UNK        -0.5000 
     42 CA         -0.0352  -17.2525  -40.2850 C.3       6 UNK         0.1400 
     43 CB         -0.0618  -15.9684  -39.4445 C.3       6 UNK        -0.1800 
     44 N          -1.3687  -17.5063  -40.8337 N.am      6 UNK        -0.5000 
     45 C          -1.7593  -18.6925  -41.3223 C.2       5 UNK         0.5000 
     46 O          -1.0307  -19.6826  -41.3654 O.2       5 UNK        -0.5000 
     47 CA         -3.1860  -18.7838  -41.8965 C.3       5 UNK         0.1400 
     48 CB         -4.1852  -19.1633  -40.7942 C.3       5 UNK        -0.1800 
     49 N          -3.6402  -17.5591  -42.5551 N.am      5 UNK        -0.5000 
     50 C          -3.0338  -16.9606  -43.5887 C.2       4 UNK         0.5000 
     51 O          -1.9929  -17.3759  -44.1016 O.2       4 UNK        -0.5000 
     52 CA         -3.6683  -15.6629  -44.1243 C.3       4 UNK         0.1400 
     53 CB         -5.0426  -15.3218  -43.5066 C.3       4 UNK        -0.1800 
     54 N          -2.7559  -14.5249  -43.9921 N.am      4 UNK        -0.5000 
     55 C          -2.1673  -14.0726  -42.8725 C.2       3 UNK         0.5000 
     56 O          -2.3235  -14.5936  -41.7669 O.2       3 UNK        -0.5000 
     57 CA         -1.2390  -12.8454  -43.0038 C.3       3 UNK         0.1400 
     58 CB          0.0563  -13.0172  -42.1917 C.3       3 UNK        -0.1800 
     59 N          -0.8904  -12.5622  -44.3985 N.am      3 UNK        -0.5000 
     60 C          -1.4765  -11.6326  -45.1637 C.2       2 UNK         0.5000 
     61 O          -2.3485  -10.8612  -44.7628 O.2       2 UNK        -0.5000 
     62 CA         -1.0335  -11.5745  -46.6389 C.3       2 UNK         0.1400 
     63 CB          0.1272  -10.5835  -46.8120 C.3       2 UNK        -0.1800 
     64 N          -0.6433  -12.8694  -47.2087 N.am      2 UNK        -0.5000 
     65 C          -1.4357  -13.9447  -47.3183 C.2       1 UNK         0.5000 
     66 O          -2.5839  -13.9873  -46.8769 O.2       1 UNK        -0.5000 
     67 C           3.3344  -24.8900  -46.5204 C.2       11 UNK         0.5000 
     68 O           3.3446  -25.6762  -47.4687 O.2       11 UNK        -0.5000 
     69 N           2.3483  -24.8393  -45.6114 N.am      12 UNK        -0.5000 
     70 CA          1.0863  -25.5891  -45.6089 C.3       12 UNK         0.1400 
     71 CB          1.3343  -27.1053  -45.4609 C.3       12 UNK        -0.1800 
     72 C           0.1819  -25.2240  -46.8062 C.2       12 UNK         0.5000 
     73 O          -0.3602  -26.1083  -47.4729 O.2       12 UNK        -0.5000 
     74 N           0.0530  -23.9161  -47.0642 N.am      13 UNK        -0.5000 
     75 CA         -0.7580  -23.3550  -48.1467 C.3       13 UNK         0.1400 
     76 CB         -0.3282  -21.9042  -48.3876 C.3       13 UNK        -0.1800 
     77 C          -2.2721  -23.3995  -47.8687 C.2       13 UNK         0.5000 
     78 O          -2.7039  -23.6862  -46.7499 O.2       13 UNK        -0.5000 
     79 N          -3.0487  -23.0515  -48.9026 N.am      14 UNK        -0.5000 
     80 CA         -4.5071  -22.9277  -48.8631 C.3       14 UNK         0.1400 
     81 CB         -5.0308  -22.9674  -50.3038 C.3       14 UNK        -0.1800 
     82 C          -5.0161  -21.6645  -48.1347 C.2       14 UNK         0.5000 
     83 O          -6.2075  -21.5917  -47.8347 O.2       14 UNK        -0.5000 
     84 N          -4.1264  -20.6931  -47.8767 N.am      15 UNK        -0.5000 
     85 CA         -4.2984  -19.4687  -47.0765 C.3       15 UNK         0.1400 
     86 CB         -4.7299  -19.8115  -45.6358 C.3       15 UNK        -0.1800 
     87 C          -5.2232  -18.3832  -47.6627 C.2       15 UNK         0.5000 
     88 O          -5.0394  -17.2116  -47.3331 O.2       15 UNK        -0.5000 
     89 N          -6.2006  -18.7667  -48.4919 N.am      16 UNK        -0.5000 
     90 CA         -7.2252  -17.8762  -49.0437 C.3       16 UNK         0.1400 
     91 CB         -8.3563  -18.7292  -49.6386 C.3       16 UNK        -0.1800 
     92 C          -6.6999  -16.8689  -50.0862 C.2       16 UNK         0.5000 
     93 O          -7.3032  -15.8081  -50.2534 O.2       16 UNK        -0.5000 
     94 N          -5.6004  -17.2126  -50.7649 N.am      17 UNK        -0.5000 
     95 CA         -4.9270  -16.4215  -51.7908 C.3       17 UNK         0.1400 
     96 CB         -5.7754  -16.3434  -53.0831 C.3       17 UNK        -0.1800 
     97 C          -3.5388  -17.0385  -52.0356 C.2       17 UNK         0.5000 
     98 O          -3.0471  -17.7881  -51.1889 O.2       17 UNK        -0.5000 
     99 N          -2.9381  -16.7143  -53.1873 N.am      18 UNK        -0.5000 
    100 CA        -1.7017  -17.3052  -53.6978 C.3       18 UNK         0.1400 
    101 CB        -1.0090  -16.2728  -54.6113 C.3       18 UNK        -0.1800 
    102 C         -1.9873  -18.6535  -54.4032 C.2       18 UNK         0.5000 
    103 O         -2.8101  -19.4424  -53.9313 O.2       18 UNK        -0.5000 
    104 N         -1.3338  -18.8931  -55.5500 N.am      19 UNK        -0.5000 
    105 CA        -1.4850  -20.0856  -56.3938 C.3       19 UNK         0.1400 
    106 CB        -0.5309  -19.9762  -57.5918 C.3       19 UNK        -0.1800 
    107 C         -2.9270  -20.3452  -56.8745 C.2       19 UNK         0.5000 
    108 O         -3.2882  -21.4984  -57.1073 O.2       19 UNK        -0.5000 
    109 N         -3.7354  -19.2797  -56.9625 N.am      20 UNK        -0.5000 
    110 CA        -5.1680  -19.3240  -57.2544 C.3       20 UNK         0.1400 
    111 CB        -5.6903  -17.8858  -57.3942 C.3       20 UNK        -0.1800 
    112 C         -5.9935  -20.0933  -56.2022 C.2       20 UNK         0.5000 
    113 O         -7.0207  -20.6716  -56.5592 O.2       20 UNK        -0.5000 
    114 N         -5.5371  -20.0977  -54.9407 N.am      21 UNK        -0.5000 
    115 CA        -6.1419  -20.8781  -53.8628 C.3       21 UNK         0.1400 
    116 CB        -5.9812  -20.1413  -52.5255 C.3       21 UNK        -0.1800 
    117 C         -5.5373  -22.2881  -53.7876 C.2       21 UNK         0.5000 
    118 O         -6.2847  -23.2500  -53.6061 O.2       21 UNK        -0.5000 
    119 N         -4.2060  -22.3892  -53.9176 N.am      22 UNK        -0.5000 
    120 CA        -3.4763  -23.6689  -53.8654 C.3       22 UNK         0.1400 
    121 C         -3.7634  -24.6225  -55.0609 C.2       22 UNK         0.5000 
    122 N         -4.0137  -24.1192  -56.2629 N.am      22 UNK        -0.7600 
    123 O         -3.7607  -25.8388  -54.8926 O.2       22 UNK        -0.5000 
    124 C124       -1.9497  -23.4812  -53.6937 C.3       23 UNK        -0.0398 
    125 S125       -1.4891  -22.5602  -52.1868 S.3       23 UNK        -0.2404 
    126 C126       -0.0229  -21.6794  -52.8078 C.3       23 UNK        -0.0205 
    127 H127       -0.1845  -12.7805  -51.8697 H         1 UNK         0.0600 
    128 H128       -1.1860  -14.2303  -51.9672 H         1 UNK         0.0600 
    129 H129        0.5590  -14.3424  -52.2324 H         1 UNK         0.0600 
    130 H130       -1.6835  -15.1839  -50.0203 H         1 UNK         0.3000 
    131 H131        0.1831  -15.2681  -47.7621 H         1 UNK         0.0600 
    132 H132       -1.8654  -16.5201  -46.7123 H         1 UNK         0.0800 
    133 H133       -2.5522  -16.5122  -48.3072 H         1 UNK         0.0800 
    134 H134       -0.5211  -17.3151  -50.4043 H         1 UNK         0.0800 
    135 H135        0.9615  -16.9725  -49.5306 H         1 UNK         0.0800 
    136 H136       -0.8126  -19.3810  -51.5974 H         1 UNK         0.1150 
    137 H137        2.3122  -22.3082  -51.5429 H         1 UNK         0.1150 
    138 H138        2.5121  -18.9135  -48.9298 H         1 UNK         0.1150 
    139 H139        4.2114  -22.0476  -50.1472 H         1 UNK         0.0800 
    140 H140        4.6061  -20.4507  -49.5489 H         1 UNK         0.0800 
    141 H141        4.8377  -23.6763  -48.5022 H         1 UNK         0.0800 
    142 H142        5.7463  -22.5555  -47.5282 H         1 UNK         0.0800 
    143 H143        5.3834  -24.5822  -46.2431 H         1 UNK         0.0600 
    144 H144        3.5405  -22.6445  -44.9622 H         1 UNK         0.3000 
    145 H145        5.8691  -21.9567  -42.4372 H         1 UNK         0.0600 
    146 H146        5.6848  -19.5335  -43.0094 H         1 UNK         0.0600 
    147 H147        5.2454  -19.9472  -44.6666 H         1 UNK         0.0600 
    148 H148        6.8464  -20.3399  -44.0523 H         1 UNK         0.0600 
    149 H149        3.3894  -20.7022  -43.2331 H         1 UNK         0.3000 
    150 H150        1.2048  -23.0689  -41.9100 H         1 UNK         0.0600 
    151 H151        2.0602  -22.1914  -39.6947 H         1 UNK         0.0600 
    152 H152        0.5104  -21.5079  -40.1472 H         1 UNK         0.0600 
    153 H153        1.9818  -20.5546  -40.3391 H         1 UNK         0.0600 
    154 H154        0.5871  -20.4142  -42.3901 H         1 UNK         0.3000 
    155 H155        0.6719  -20.3087  -45.9429 H         1 UNK         0.0600 
    156 H156       -1.4161  -21.6020  -45.3976 H         1 UNK         0.0600 
    157 H157       -1.7512  -19.8881  -45.6163 H         1 UNK         0.0600 
    158 H158       -1.6830  -20.5825  -43.9979 H         1 UNK         0.0600 
    159 H159       -0.4048  -18.4306  -44.1835 H         1 UNK         0.3000 
    160 H160        2.5724  -16.5753  -43.4800 H         1 UNK         0.0600 
    161 H161        0.0335  -16.0397  -45.1104 H         1 UNK         0.0600 
    162 H162        1.6661  -15.9834  -45.7584 H         1 UNK         0.0600 
    163 H163        1.1873  -14.8476  -44.5130 H         1 UNK         0.0600 
    164 H164       -0.2950  -16.6157  -42.7669 H         1 UNK         0.3000 
    165 H165        0.2211  -18.0797  -39.6192 H         1 UNK         0.0600 
    166 H166       -0.7759  -16.0487  -38.6249 H         1 UNK         0.0600 
    167 H167        0.9163  -15.7675  -39.0054 H         1 UNK         0.0600 
    168 H168       -0.3366  -15.1018  -40.0431 H         1 UNK         0.0600 
    169 H169       -2.0016  -16.7173  -40.8840 H         1 UNK         0.3000 
    170 H170       -3.1950  -19.5778  -42.6436 H         1 UNK         0.0600 
    171 H171       -3.8866  -20.0879  -40.2981 H         1 UNK         0.0600 
    172 H172       -4.2553  -18.3882  -40.0299 H         1 UNK         0.0600 
    173 H173       -5.1827  -19.3238  -41.2036 H         1 UNK         0.0600 
    174 H174       -4.4715  -17.1287  -42.1773 H         1 UNK         0.3000 
    175 H175       -3.8187  -15.8203  -45.1931 H         1 UNK         0.0600 
    176 H176       -4.9792  -15.1267  -42.4355 H         1 UNK         0.0600 
    177 H177       -5.4651  -14.4333  -43.9759 H         1 UNK         0.0600 
    178 H178       -5.7571  -16.1315  -43.6617 H         1 UNK         0.0600 
    179 H179       -2.5603  -14.0469  -44.8647 H         1 UNK         0.3000 
    180 H180       -1.7799  -11.9980  -42.5782 H         1 UNK         0.0600 
    181 H181       -0.1579  -13.0390  -41.1232 H         1 UNK         0.0600 
    182 H182        0.7421  -12.1867  -42.3604 H         1 UNK         0.0600 
    183 H183        0.5784  -13.9398  -42.4412 H         1 UNK         0.0600 
    184 H184       -0.1848  -13.1482  -44.8188 H         1 UNK         0.3000 
    185 H185       -1.8835  -11.2072  -47.2177 H         1 UNK         0.0600 
    186 H186       -0.1374   -9.5986  -46.4247 H         1 UNK         0.0600 
    187 H187        1.0216  -10.9154  -46.2832 H         1 UNK         0.0600 
    188 H188        0.3859  -10.4586  -47.8638 H         1 UNK         0.0600 
    189 H189        0.2575  -12.9040  -47.6719 H         1 UNK         0.3000 
    190 H190        2.3884  -24.0995  -44.9215 H         1 UNK         0.3000 
    191 H191        0.5470  -25.2623  -44.7185 H         1 UNK         0.0600 
    192 H192        0.3945  -27.6400  -45.3186 H         1 UNK         0.0600 
    193 H193        1.9627  -27.3191  -44.5965 H         1 UNK         0.0600 
    194 H194        1.8182  -27.5287  -46.3412 H         1 UNK         0.0600 
    195 H195        0.5274  -23.2605  -46.4560 H         1 UNK         0.3000 
    196 H196       -0.5582  -23.9286  -49.0545 H         1 UNK         0.0600 
    197 H197       -0.6358  -21.2406  -47.5842 H         1 UNK         0.0600 
    198 H198        0.7494  -21.8282  -48.4910 H         1 UNK         0.0600 
    199 H199       -0.7689  -21.5139  -49.3034 H         1 UNK         0.0600 
    200 H200       -2.6096  -22.8316  -49.7867 H         1 UNK         0.3000 
    201 H201       -4.9129  -23.7897  -48.3296 H         1 UNK         0.0600 
    202 H202       -6.1142  -22.8451  -50.3390 H         1 UNK         0.0600 
    203 H203       -4.8005  -23.9212  -50.7777 H         1 UNK         0.0600 
    204 H204       -4.5847  -22.1771  -50.9075 H         1 UNK         0.0600 
    205 H205       -3.1911  -20.8369  -48.2280 H         1 UNK         0.3000 
    206 H206       -3.3099  -19.0136  -47.0256 H         1 UNK         0.0600 
    207 H207       -4.0731  -20.5546  -45.1856 H         1 UNK         0.0600 
    208 H208       -4.7066  -18.9264  -45.0012 H         1 UNK         0.0600 
    209 H209       -5.7464  -20.2038  -45.5991 H         1 UNK         0.0600 
    210 H210       -6.3244  -19.7627  -48.6344 H         1 UNK         0.3000 
    211 H211       -7.6419  -17.2958  -48.2178 H         1 UNK         0.0600 
    212 H212       -8.0010  -19.3604  -50.4525 H         1 UNK         0.0600 
    213 H213       -9.1540  -18.1000  -50.0356 H         1 UNK         0.0600 
    214 H214       -8.8006  -19.3768  -48.8825 H         1 UNK         0.0600 
    215 H215       -5.1120  -18.0634  -50.5150 H         1 UNK         0.3000 
    216 H216       -4.7747  -15.4140  -51.3994 H         1 UNK         0.0600 
    217 H217       -6.8034  -16.0449  -52.8800 H         1 UNK         0.0600 
    218 H218       -5.8065  -17.2980  -53.6083 H         1 UNK         0.0600 
    219 H219       -5.3710  -15.6045  -53.7752 H         1 UNK         0.0600 
    220 H220       -3.4297  -16.1045  -53.8235 H         1 UNK         0.3000 
    221 H221       -1.0317  -17.5064  -52.8617 H         1 UNK         0.0600 
    222 H222       -0.0135  -16.6058  -54.9072 H         1 UNK         0.0600 
    223 H223       -1.5847  -16.0796  -55.5177 H         1 UNK         0.0600 
    224 H224       -0.8794  -15.3196  -54.1011 H         1 UNK         0.0600 
    225 H225       -0.6824  -18.1964  -55.8815 H         1 UNK         0.3000 
    226 H226       -1.1854  -20.9502  -55.8010 H         1 UNK         0.0600 
    227 H227        0.5058  -19.8941  -57.2649 H         1 UNK         0.0600 
    228 H228       -0.5997  -20.8594  -58.2286 H         1 UNK         0.0600 
    229 H229       -0.7594  -19.1071  -58.2100 H         1 UNK         0.0600 
    230 H230       -3.3451  -18.3722  -56.7585 H         1 UNK         0.3000 
    231 H231       -5.2975  -19.8331  -58.2117 H         1 UNK         0.0600 
    232 H232       -6.7531  -17.8783  -57.6400 H         1 UNK         0.0600 
    233 H233       -5.1708  -17.3520  -58.1903 H         1 UNK         0.0600 
    234 H234       -5.5635  -17.3199  -56.4702 H         1 UNK         0.0600 
    235 H235       -4.6549  -19.6444  -54.7291 H         1 UNK         0.3000 
    236 H236       -7.2133  -20.9875  -54.0443 H         1 UNK         0.0600 
    237 H237       -6.5277  -19.2003  -52.5369 H         1 UNK         0.0600 
    238 H238       -6.3882  -20.7314  -51.7046 H         1 UNK         0.0600 
    239 H239       -4.9363  -19.9301  -52.2957 H         1 UNK         0.0600 
    240 H240       -3.6525  -21.5488  -54.0216 H         1 UNK         0.3000 
    241 H241       -3.8294  -24.1935  -52.9759 H         1 UNK         0.0600 
    242 H242       -3.9276  -23.1223  -56.4457 H         1 UNK         0.3800 
    243 H243       -4.2045  -24.7452  -57.0286 H         1 UNK         0.3800 
    244 H244       -1.5407  -22.9774  -54.5704 H         1 UNK         0.0800 
    245 H245       -1.4504  -24.4506  -53.6423 H         1 UNK         0.0800 
    246 H246       -0.3213  -20.9868  -53.5933 H         1 UNK         0.0800 
    247 H247        0.6584  -22.3957  -53.2697 H         1 UNK         0.0800 
@<TRIPOS>BOND
     1    1    2 1    
     2    1  127 1    
     3    1  128 1    
     4    1  129 1    
     5    2    3 2    
     6    2    4 am   BACKBONE|DICT|INTERRES
     7    4    5 1    
     8    4  130 1    
     9    5    6 1    
    10    5   65 1    
    11    5  131 1    
    12    6    7 1    
    13    6  132 1    
    14    6  133 1    
    15    7    8 1    
    16    8    9 1    
    17    8  134 1    
    18    8  135 1    
    19    9   10 ar   
    20    9   14 ar   
    21   10   11 ar   
    22   10  136 1    
    23   11   12 ar   
    24   11  126 1    
    25   12   13 ar   
    26   12  137 1    
    27   13   14 ar   
    28   13   15 1    
    29   14  138 1    
    30   15   16 1    
    31   15  139 1    
    32   15  140 1    
    33   16   17 1    
    34   17   18 1    
    35   17  141 1    
    36   17  142 1    
    37   18   19 1    
    38   18   67 1    
    39   18  143 1    
    40   19   20 am   BACKBONE|DICT|INTERRES
    41   19  144 1    
    42   20   21 2    
    43   20   22 1    
    44   22   23 1    
    45   22   24 1    
    46   22  145 1    
    47   23  146 1    
    48   23  147 1    
    49   23  148 1    
    50   24   25 am   BACKBONE|DICT|INTERRES
    51   24  149 1    
    52   25   26 2    
    53   25   27 1    
    54   27   28 1    
    55   27   29 1    
    56   27  150 1    
    57   28  151 1    
    58   28  152 1    
    59   28  153 1    
    60   29   30 am   BACKBONE|DICT|INTERRES
    61   29  154 1    
    62   30   31 2    
    63   30   32 1    
    64   32   33 1    
    65   32   34 1    
    66   32  155 1    
    67   33  156 1    
    68   33  157 1    
    69   33  158 1    
    70   34   35 am   BACKBONE|DICT|INTERRES
    71   34  159 1    
    72   35   36 2    
    73   35   37 1    
    74   37   38 1    
    75   37   39 1    
    76   37  160 1    
    77   38  161 1    
    78   38  162 1    
    79   38  163 1    
    80   39   40 am   BACKBONE|DICT|INTERRES
    81   39  164 1    
    82   40   41 2    
    83   40   42 1    
    84   42   43 1    
    85   42   44 1    
    86   42  165 1    
    87   43  166 1    
    88   43  167 1    
    89   43  168 1    
    90   44   45 am   BACKBONE|DICT|INTERRES
    91   44  169 1    
    92   45   46 2    
    93   45   47 1    
    94   47   48 1    
    95   47   49 1    
    96   47  170 1    
    97   48  171 1    
    98   48  172 1    
    99   48  173 1    
   100   49   50 am   BACKBONE|DICT|INTERRES
   101   49  174 1    
   102   50   51 2    
   103   50   52 1    
   104   52   53 1    
   105   52   54 1    
   106   52  175 1    
   107   53  176 1    
   108   53  177 1    
   109   53  178 1    
   110   54   55 am   BACKBONE|DICT|INTERRES
   111   54  179 1    
   112   55   56 2    
   113   55   57 1    
   114   57   58 1    
   115   57   59 1    
   116   57  180 1    
   117   58  181 1    
   118   58  182 1    
   119   58  183 1    
   120   59   60 am   BACKBONE|DICT|INTERRES
   121   59  184 1    
   122   60   61 2    
   123   60   62 1    
   124   62   63 1    
   125   62   64 1    
   126   62  185 1    
   127   63  186 1    
   128   63  187 1    
   129   63  188 1    
   130   64   65 am   BACKBONE|DICT|INTERRES
   131   64  189 1    
   132   65   66 2    
   133   67   68 2    
   134   67   69 am   BACKBONE|DICT|INTERRES
   135   69   70 1    
   136   69  190 1    
   137   70   71 1    
   138   70   72 1    
   139   70  191 1    
   140   71  192 1    
   141   71  193 1    
   142   71  194 1    
   143   72   73 2    
   144   72   74 am   BACKBONE|DICT|INTERRES
   145   74   75 1    
   146   74  195 1    
   147   75   76 1    
   148   75   77 1    
   149   75  196 1    
   150   76  197 1    
   151   76  198 1    
   152   76  199 1    
   153   77   78 2    
   154   77   79 am   BACKBONE|DICT|INTERRES
   155   79   80 1    
   156   79  200 1    
   157   80   81 1    
   158   80   82 1    
   159   80  201 1    
   160   81  202 1    
   161   81  203 1    
   162   81  204 1    
   163   82   83 2    
   164   82   84 am   BACKBONE|DICT|INTERRES
   165   84   85 1    
   166   84  205 1    
   167   85   86 1    
   168   85   87 1    
   169   85  206 1    
   170   86  207 1    
   171   86  208 1    
   172   86  209 1    
   173   87   88 2    
   174   87   89 am   BACKBONE|DICT|INTERRES
   175   89   90 1    
   176   89  210 1    
   177   90   91 1    
   178   90   92 1    
   179   90  211 1    
   180   91  212 1    
   181   91  213 1    
   182   91  214 1    
   183   92   93 2    
   184   92   94 am   BACKBONE|DICT|INTERRES
   185   94   95 1    
   186   94  215 1    
   187   95   96 1    
   188   95   97 1    
   189   95  216 1    
   190   96  217 1    
   191   96  218 1    
   192   96  219 1    
   193   97   98 2    
   194   97   99 am   BACKBONE|DICT|INTERRES
   195   99  100 1    
   196   99  220 1    
   197  100  101 1    
   198  100  102 1    
   199  100  221 1    
   200  101  222 1    
   201  101  223 1    
   202  101  224 1    
   203  102  103 2    
   204  102  104 am   BACKBONE|DICT|INTERRES
   205  104  105 1    
   206  104  225 1    
   207  105  106 1    
   208  105  107 1    
   209  105  226 1    
   210  106  227 1    
   211  106  228 1    
   212  106  229 1    
   213  107  108 2    
   214  107  109 am   BACKBONE|DICT|INTERRES
   215  109  110 1    
   216  109  230 1    
   217  110  111 1    
   218  110  112 1    
   219  110  231 1    
   220  111  232 1    
   221  111  233 1    
   222  111  234 1    
   223  112  113 2    
   224  112  114 am   BACKBONE|DICT|INTERRES
   225  114  115 1    
   226  114  235 1    
   227  115  116 1    
   228  115  117 1    
   229  115  236 1    
   230  116  237 1    
   231  116  238 1    
   232  116  239 1    
   233  117  118 2    
   234  117  119 am   BACKBONE|DICT|INTERRES
   235  119  120 1    
   236  119  240 1    
   237  120  121 1    
   238  120  124 1    
   239  120  241 1    
   240  121  122 am   BACKBONE|DICT|INTERRES
   241  121  123 2    
   242  122  242 1    
   243  122  243 1    
   244  124  125 1    
   245  124  244 1    
   246  124  245 1    
   247  125  126 1    
   248  126  246 1    
   249  126  247 1    
@<TRIPOS>SUBSTRUCTURE
     1 UNK         1 GROUP             0       ****    0 ROOT    
