@<TRIPOS>MOLECULE
3R540
247   249    1
SMALL
USER_CHARGES


@<TRIPOS>ATOM
      1 CA         -0.7991  -10.7642  -47.8088 C.3       0 UNK        -0.1800 
      2 C           0.1365  -11.6507  -48.6183 C.2       0 UNK         0.5000 
      3 O           1.2188  -11.2094  -49.0044 O.2       0 UNK        -0.5000 
      4 N          -0.2753  -12.9002  -48.8719 N.am      1 UNK        -0.5000 
      5 CA          0.4935  -13.9096  -49.6164 C.3       1 UNK         0.1400 
      6 C6         -0.4102  -15.0811  -50.0993 C.3       23 UNK        -0.0398 
      7 S7         -0.5968  -15.1013  -51.9108 S.3       23 UNK        -0.2404 
      8 C8          0.8223  -16.1333  -52.4041 C.3       23 UNK        -0.0205 
      9 C9          0.6617  -17.5908  -51.9945 C.ar      23 UNK        -0.0193 
     10 C10        -0.4109  -18.3385  -52.4864 C.ar      23 UNK        -0.1150 
     11 C11        -0.5499  -19.6873  -52.1524 C.ar      23 UNK        -0.0193 
     12 C12         0.3852  -20.2843  -51.3046 C.ar      23 UNK        -0.1150 
     13 C13         1.4678  -19.5527  -50.8087 C.ar      23 UNK        -0.0193 
     14 C14         1.6003  -18.2037  -51.1569 C.ar      23 UNK        -0.1150 
     15 C15         2.5150  -20.2465  -49.9454 C.3       23 UNK        -0.0205 
     16 S16         2.7736  -19.4663  -48.3185 S.3       23 UNK        -0.2404 
     17 C17         1.1134  -19.5174  -47.5706 C.3       23 UNK        -0.0398 
     18 CA          0.7367  -20.9090  -46.9884 C.3       11 UNK         0.1400 
     19 N           0.1602  -20.8035  -45.6448 N.am      11 UNK        -0.5000 
     20 C          -0.0809  -21.8343  -44.8222 C.2       10 UNK         0.5000 
     21 O           0.2194  -22.9999  -45.0766 O.2       10 UNK        -0.5000 
     22 CA         -0.8249  -21.5103  -43.5128 C.3       10 UNK         0.1400 
     23 CB          0.1716  -21.2138  -42.3854 C.3       10 UNK        -0.1800 
     24 N          -1.7625  -20.3922  -43.6623 N.am      10 UNK        -0.5000 
     25 C          -2.8920  -20.4801  -44.3814 C.2       9 UNK         0.5000 
     26 O          -3.2470  -21.5040  -44.9634 O.2       9 UNK        -0.5000 
     27 CA         -3.7471  -19.2105  -44.5193 C.3       9 UNK         0.1400 
     28 CB         -4.5855  -18.9825  -43.2530 C.3       9 UNK        -0.1800 
     29 N          -2.9713  -18.0056  -44.8023 N.am      9 UNK        -0.5000 
     30 C          -2.1403  -17.8058  -45.8317 C.2       8 UNK         0.5000 
     31 O          -1.8896  -18.6628  -46.6786 O.2       8 UNK        -0.5000 
     32 CA         -1.4391  -16.4336  -45.9224 C.3       8 UNK         0.1400 
     33 CB         -2.2673  -15.4477  -46.7651 C.3       8 UNK        -0.1800 
     34 N          -1.0635  -15.8546  -44.6227 N.am      8 UNK        -0.5000 
     35 C          -1.8536  -15.4272  -43.6249 C.2       7 UNK         0.5000 
     36 O          -3.0819  -15.3736  -43.7004 O.2       7 UNK        -0.5000 
     37 CA         -1.1481  -15.0695  -42.3008 C.3       7 UNK         0.1400 
     38 CB         -2.0922  -15.1495  -41.0841 C.3       7 UNK        -0.1800 
     39 N           0.0604  -15.8636  -42.0541 N.am      7 UNK        -0.5000 
     40 C           0.1770  -17.1983  -41.9625 C.2       6 UNK         0.5000 
     41 O          -0.7493  -17.9914  -42.1423 O.2       6 UNK        -0.5000 
     42 CA          1.5822  -17.7349  -41.6393 C.3       6 UNK         0.1400 
     43 CB          2.3828  -17.9369  -42.9360 C.3       6 UNK        -0.1800 
     44 N           2.3195  -16.8173  -40.7704 N.am      6 UNK        -0.5000 
     45 C           2.4392  -16.9392  -39.4417 C.2       5 UNK         0.5000 
     46 O           1.9988  -17.8919  -38.7973 O.2       5 UNK        -0.5000 
     47 CA          3.1705  -15.7987  -38.7022 C.3       5 UNK         0.1400 
     48 CB          4.6748  -16.0966  -38.6095 C.3       5 UNK        -0.1800 
     49 N           2.9815  -14.4912  -39.3348 N.am      5 UNK        -0.5000 
     50 C           1.8184  -13.8265  -39.3754 C.2       4 UNK         0.5000 
     51 O           0.8034  -14.1982  -38.7864 O.2       4 UNK        -0.5000 
     52 CA          1.7606  -12.5442  -40.2337 C.3       4 UNK         0.1400 
     53 CB          1.8507  -11.2994  -39.3377 C.3       4 UNK        -0.1800 
     54 N           2.7710  -12.4357  -41.2959 N.am      4 UNK        -0.5000 
     55 C           2.9702  -13.3124  -42.2890 C.2       3 UNK         0.5000 
     56 O           2.4035  -14.4048  -42.3563 O.2       3 UNK        -0.5000 
     57 CA          4.0105  -12.9195  -43.3553 C.3       3 UNK         0.1400 
     58 CB          5.4321  -13.1462  -42.8167 C.3       3 UNK        -0.1800 
     59 N           3.8591  -13.6784  -44.5996 N.am      3 UNK        -0.5000 
     60 C           2.7910  -13.6430  -45.4063 C.2       2 UNK         0.5000 
     61 O           1.8096  -12.9147  -45.2266 O.2       2 UNK        -0.5000 
     62 CA          2.8290  -14.5904  -46.6145 C.3       2 UNK         0.1400 
     63 CB          2.7033  -16.0637  -46.1886 C.3       2 UNK        -0.1800 
     64 N           1.7352  -14.2452  -47.5128 N.am      2 UNK        -0.5000 
     65 C           1.7206  -14.4367  -48.8362 C.2       1 UNK         0.5000 
     66 O           2.6269  -15.0018  -49.4492 O.2       1 UNK        -0.5000 
     67 C          -0.2255  -21.6679  -47.9233 C.2       11 UNK         0.5000 
     68 O           0.1766  -22.6279  -48.5813 O.2       11 UNK        -0.5000 
     69 N          -1.4970  -21.2452  -47.9160 N.am      12 UNK        -0.5000 
     70 CA         -2.5892  -21.8657  -48.6588 C.3       12 UNK         0.1400 
     71 CB         -3.8495  -21.0057  -48.5225 C.3       12 UNK        -0.1800 
     72 C          -2.8625  -23.3136  -48.2221 C.2       12 UNK         0.5000 
     73 O          -3.0605  -24.1693  -49.0818 O.2       12 UNK        -0.5000 
     74 N          -2.8238  -23.5750  -46.9079 N.am      13 UNK        -0.5000 
     75 CA         -2.9633  -24.9096  -46.3242 C.3       13 UNK         0.1400 
     76 CB         -3.0616  -24.8038  -44.7955 C.3       13 UNK        -0.1800 
     77 C          -1.8245  -25.8615  -46.7318 C.2       13 UNK         0.5000 
     78 O          -2.0972  -27.0154  -47.0626 O.2       13 UNK        -0.5000 
     79 N          -0.5812  -25.3577  -46.7416 N.am      14 UNK        -0.5000 
     80 CA          0.6052  -26.0895  -47.1926 C.3       14 UNK         0.1400 
     81 CB          1.8704  -25.2970  -46.8303 C.3       14 UNK        -0.1800 
     82 C           0.5718  -26.4080  -48.6994 C.2       14 UNK         0.5000 
     83 O           0.9669  -27.5042  -49.0982 O.2       14 UNK        -0.5000 
     84 N           0.0735  -25.4587  -49.5027 N.am      15 UNK        -0.5000 
     85 CA         -0.1418  -25.6134  -50.9430 C.3       15 UNK         0.1400 
     86 CB         -0.2845  -24.2184  -51.5703 C.3       15 UNK        -0.1800 
     87 C          -1.3633  -26.4880  -51.2973 C.2       15 UNK         0.5000 
     88 O          -1.4640  -26.9373  -52.4396 O.2       15 UNK        -0.5000 
     89 N          -2.2683  -26.6914  -50.3277 N.am      16 UNK        -0.5000 
     90 CA         -3.5876  -27.3234  -50.4418 C.3       16 UNK         0.1400 
     91 CB         -3.4587  -28.8232  -50.7794 C.3       16 UNK        -0.1800 
     92 C          -4.5133  -26.5505  -51.4070 C.2       16 UNK         0.5000 
     93 O          -5.2071  -27.1532  -52.2287 O.2       16 UNK        -0.5000 
     94 N          -4.4764  -25.2184  -51.2987 N.am      17 UNK        -0.5000 
     95 CA         -5.1697  -24.2688  -52.1603 C.3       17 UNK         0.1400 
     96 CB         -4.1539  -23.2020  -52.5900 C.3       17 UNK        -0.1800 
     97 C          -6.3343  -23.6008  -51.4149 C.2       17 UNK         0.5000 
     98 O          -6.3014  -23.4706  -50.1881 O.2       17 UNK        -0.5000 
     99 N          -7.3276  -23.1395  -52.1832 N.am      18 UNK        -0.5000 
    100 CA        -8.4581  -22.3432  -51.7092 C.3       18 UNK         0.1400 
    101 CB        -9.6305  -22.5182  -52.6911 C.3       18 UNK        -0.1800 
    102 C         -8.0337  -20.8700  -51.5554 C.2       18 UNK         0.5000 
    103 O         -8.3311  -20.0481  -52.4234 O.2       18 UNK        -0.5000 
    104 N         -7.2977  -20.5806  -50.4741 N.am      19 UNK        -0.5000 
    105 CA        -6.6412  -19.3030  -50.1783 C.3       19 UNK         0.1400 
    106 CB        -7.6749  -18.1731  -49.9649 C.3       19 UNK        -0.1800 
    107 C         -5.5522  -18.9900  -51.2280 C.2       19 UNK         0.5000 
    108 O         -4.7737  -19.8817  -51.5671 O.2       19 UNK        -0.5000 
    109 N         -5.5133  -17.7551  -51.7440 N.am      20 UNK        -0.5000 
    110 CA        -4.5317  -17.2574  -52.7154 C.3       20 UNK         0.1400 
    111 CB        -4.4946  -15.7215  -52.6314 C.3       20 UNK        -0.1800 
    112 C         -4.7473  -17.7545  -54.1669 C.2       20 UNK         0.5000 
    113 O         -4.2697  -17.1159  -55.1072 O.2       20 UNK        -0.5000 
    114 N         -5.4314  -18.8954  -54.3393 N.am      21 UNK        -0.5000 
    115 CA        -5.7452  -19.5441  -55.6195 C.3       21 UNK         0.1400 
    116 CB        -6.6746  -20.7402  -55.3591 C.3       21 UNK        -0.1800 
    117 C         -4.5172  -19.9810  -56.4472 C.2       21 UNK         0.5000 
    118 O         -4.6628  -20.2654  -57.6368 O.2       21 UNK        -0.5000 
    119 N         -3.3358  -20.0050  -55.8181 N.am      22 UNK        -0.5000 
    120 CA        -2.0250  -20.1909  -56.4599 C.3       22 UNK         0.1400 
    121 C         -1.6488  -19.0733  -57.4798 C.2       22 UNK         0.5000 
    122 N         -2.2274  -17.8790  -57.3994 N.am      22 UNK        -0.7600 
    123 O         -0.8157  -19.2950  -58.3541 O.2       22 UNK        -0.5000 
    124 C124       -0.8827  -20.3349  -55.4201 C.3       23 UNK        -0.0398 
    125 S125       -1.2065  -21.5619  -54.1058 S.3       23 UNK        -0.2404 
    126 C126       -1.7059  -20.5023  -52.7079 C.3       23 UNK        -0.0205 
    127 H127       -1.7251  -11.2790  -47.5510 H         1 UNK         0.0600 
    128 H128       -1.0541   -9.8694  -48.3767 H         1 UNK         0.0600 
    129 H129       -0.3133  -10.4556  -46.8830 H         1 UNK         0.0600 
    130 H130       -1.1859  -13.1892  -48.5465 H         1 UNK         0.3000 
    131 H131        0.9108  -13.4003  -50.4881 H         1 UNK         0.0600 
    132 H132       -0.0550  -16.0592  -49.7681 H         1 UNK         0.0800 
    133 H133       -1.4145  -14.9972  -49.6845 H         1 UNK         0.0800 
    134 H134        0.9281  -16.0860  -53.4887 H         1 UNK         0.0800 
    135 H135        1.7379  -15.7088  -51.9896 H         1 UNK         0.0800 
    136 H136       -1.1305  -17.8668  -53.1406 H         1 UNK         0.1150 
    137 H137        0.2775  -21.3283  -51.0492 H         1 UNK         0.1150 
    138 H138        2.4408  -17.6358  -50.7820 H         1 UNK         0.1150 
    139 H139        2.2610  -21.2966  -49.7942 H         1 UNK         0.0800 
    140 H140        3.4632  -20.2425  -50.4844 H         1 UNK         0.0800 
    141 H141        1.1322  -18.7726  -46.7742 H         1 UNK         0.0800 
    142 H142        0.3765  -19.1386  -48.2819 H         1 UNK         0.0800 
    143 H143        1.6409  -21.5141  -46.8915 H         1 UNK         0.0600 
    144 H144       -0.1910  -19.8970  -45.3759 H         1 UNK         0.3000 
    145 H145       -1.3980  -22.3937  -43.2250 H         1 UNK         0.0600 
    146 H146       -0.3392  -20.9367  -41.4630 H         1 UNK         0.0600 
    147 H147        0.7847  -22.0897  -42.1702 H         1 UNK         0.0600 
    148 H148        0.8467  -20.4050  -42.6558 H         1 UNK         0.0600 
    149 H149       -1.5296  -19.5201  -43.1952 H         1 UNK         0.3000 
    150 H150       -4.4287  -19.3628  -45.3584 H         1 UNK         0.0600 
    151 H151       -5.1868  -19.8615  -43.0171 H         1 UNK         0.0600 
    152 H152       -5.2710  -18.1443  -43.3804 H         1 UNK         0.0600 
    153 H153       -3.9559  -18.7706  -42.3876 H         1 UNK         0.0600 
    154 H154       -3.1212  -17.2159  -44.1819 H         1 UNK         0.3000 
    155 H155       -0.5019  -16.6040  -46.4542 H         1 UNK         0.0600 
    156 H156       -3.2359  -15.2338  -46.3131 H         1 UNK         0.0600 
    157 H157       -2.4625  -15.8572  -47.7565 H         1 UNK         0.0600 
    158 H158       -1.7414  -14.5025  -46.8920 H         1 UNK         0.0600 
    159 H159       -0.0751  -15.8718  -44.4187 H         1 UNK         0.3000 
    160 H160       -0.8193  -14.0342  -42.4013 H         1 UNK         0.0600 
    161 H161       -2.5023  -16.1521  -40.9575 H         1 UNK         0.0600 
    162 H162       -2.9320  -14.4620  -41.1912 H         1 UNK         0.0600 
    163 H163       -1.5721  -14.8823  -40.1643 H         1 UNK         0.0600 
    164 H164        0.9187  -15.3199  -41.9925 H         1 UNK         0.3000 
    165 H165        1.4644  -18.7032  -41.1498 H         1 UNK         0.0600 
    166 H166        2.6351  -16.9834  -43.3989 H         1 UNK         0.0600 
    167 H167        3.3153  -18.4663  -42.7402 H         1 UNK         0.0600 
    168 H168        1.8245  -18.5196  -43.6696 H         1 UNK         0.0600 
    169 H169        2.6686  -15.9735  -41.2120 H         1 UNK         0.3000 
    170 H170        2.7684  -15.7489  -37.6880 H         1 UNK         0.0600 
    171 H171        4.8534  -17.0556  -38.1214 H         1 UNK         0.0600 
    172 H172        5.1388  -16.1386  -39.5958 H         1 UNK         0.0600 
    173 H173        5.1927  -15.3350  -38.0261 H         1 UNK         0.0600 
    174 H174        3.7688  -14.1081  -39.8365 H         1 UNK         0.3000 
    175 H175        0.7838  -12.5393  -40.7216 H         1 UNK         0.0600 
    176 H176        2.8244  -11.2248  -38.8519 H         1 UNK         0.0600 
    177 H177        1.6893  -10.3864  -39.9112 H         1 UNK         0.0600 
    178 H178        1.0934  -11.3244  -38.5528 H         1 UNK         0.0600 
    179 H179        3.3053  -11.5786  -41.3017 H         1 UNK         0.3000 
    180 H180        3.8814  -11.8604  -43.5872 H         1 UNK         0.0600 
    181 H181        5.6073  -14.1952  -42.5733 H         1 UNK         0.0600 
    182 H182        5.6102  -12.5652  -41.9109 H         1 UNK         0.0600 
    183 H183        6.1834  -12.8413  -43.5456 H         1 UNK         0.0600 
    184 H184        4.6042  -14.3246  -44.8135 H         1 UNK         0.3000 
    185 H185        3.7803  -14.4384  -47.1289 H         1 UNK         0.0600 
    186 H186        2.6919  -16.7222  -47.0564 H         1 UNK         0.0600 
    187 H187        3.5471  -16.3678  -45.5689 H         1 UNK         0.0600 
    188 H188        1.7917  -16.2425  -45.6199 H         1 UNK         0.0600 
    189 H189        1.0029  -13.6961  -47.0803 H         1 UNK         0.3000 
    190 H190       -1.7324  -20.4243  -47.3640 H         1 UNK         0.3000 
    191 H191       -2.3022  -21.8864  -49.7108 H         1 UNK         0.0600 
    192 H192       -3.6715  -19.9934  -48.8855 H         1 UNK         0.0600 
    193 H193       -4.6652  -21.4292  -49.1091 H         1 UNK         0.0600 
    194 H194       -4.1860  -20.9372  -47.4879 H         1 UNK         0.0600 
    195 H195       -2.7314  -22.8000  -46.2567 H         1 UNK         0.3000 
    196 H196       -3.8989  -25.3343  -46.6941 H         1 UNK         0.0600 
    197 H197       -3.2060  -25.7865  -44.3450 H         1 UNK         0.0600 
    198 H198       -3.9052  -24.1819  -44.4958 H         1 UNK         0.0600 
    199 H199       -2.1575  -24.3752  -44.3636 H         1 UNK         0.0600 
    200 H200       -0.4302  -24.4092  -46.4136 H         1 UNK         0.3000 
    201 H201        0.6366  -27.0393  -46.6549 H         1 UNK         0.0600 
    202 H202        1.9448  -25.1461  -45.7533 H         1 UNK         0.0600 
    203 H203        1.8832  -24.3160  -47.3061 H         1 UNK         0.0600 
    204 H204        2.7688  -25.8280  -47.1471 H         1 UNK         0.0600 
    205 H205       -0.1634  -24.5566  -49.1010 H         1 UNK         0.3000 
    206 H206        0.7391  -26.0917  -51.3760 H         1 UNK         0.0600 
    207 H207        0.6137  -23.6235  -51.4071 H         1 UNK         0.0600 
    208 H208       -0.4373  -24.2850  -52.6481 H         1 UNK         0.0600 
    209 H209       -1.1315  -23.6728  -51.1528 H         1 UNK         0.0600 
    210 H210       -2.0952  -26.2302  -49.4440 H         1 UNK         0.3000 
    211 H211       -4.0451  -27.2466  -49.4544 H         1 UNK         0.0600 
    212 H212       -3.0602  -28.9832  -51.7815 H         1 UNK         0.0600 
    213 H213       -4.4297  -29.3172  -50.7321 H         1 UNK         0.0600 
    214 H214       -2.8022  -29.3298  -50.0719 H         1 UNK         0.0600 
    215 H215       -3.9414  -24.8110  -50.5331 H         1 UNK         0.3000 
    216 H216       -5.5550  -24.7691  -53.0511 H         1 UNK         0.0600 
    217 H217       -3.3074  -23.6494  -53.1113 H         1 UNK         0.0600 
    218 H218       -3.7685  -22.6625  -51.7249 H         1 UNK         0.0600 
    219 H219       -4.5998  -22.4674  -53.2603 H         1 UNK         0.0600 
    220 H220       -7.2667  -23.2636  -53.1831 H         1 UNK         0.3000 
    221 H221       -8.7817  -22.7094  -50.7324 H         1 UNK         0.0600 
    222 H222       -9.3657  -22.2030  -53.7013 H         1 UNK         0.0600 
    223 H223       -9.9509  -23.5590  -52.7391 H         1 UNK         0.0600 
    224 H224      -10.4922  -21.9276  -52.3777 H         1 UNK         0.0600 
    225 H225       -7.0309  -21.3571  -49.8810 H         1 UNK         0.3000 
    226 H226       -6.1200  -19.4396  -49.2311 H         1 UNK         0.0600 
    227 H227       -8.4229  -18.4661  -49.2281 H         1 UNK         0.0600 
    228 H228       -7.1969  -17.2684  -49.5875 H         1 UNK         0.0600 
    229 H229       -8.2025  -17.9122  -50.8827 H         1 UNK         0.0600 
    230 H230       -6.2182  -17.0947  -51.4502 H         1 UNK         0.3000 
    231 H231       -3.5487  -17.6207  -52.4100 H         1 UNK         0.0600 
    232 H232       -3.7091  -15.3093  -53.2663 H         1 UNK         0.0600 
    233 H233       -4.2874  -15.3870  -51.6146 H         1 UNK         0.0600 
    234 H234       -5.4403  -15.2794  -52.9467 H         1 UNK         0.0600 
    235 H235       -5.7528  -19.3719  -53.5068 H         1 UNK         0.3000 
    236 H236       -6.2890  -18.8187  -56.2276 H         1 UNK         0.0600 
    237 H237       -7.6275  -20.4120  -54.9455 H         1 UNK         0.0600 
    238 H238       -6.8974  -21.2775  -56.2820 H         1 UNK         0.0600 
    239 H239       -6.2309  -21.4514  -54.6631 H         1 UNK         0.0600 
    240 H240       -3.3216  -19.7835  -54.8360 H         1 UNK         0.3000 
    241 H241       -2.0811  -21.1236  -57.0240 H         1 UNK         0.0600 
    242 H242       -2.9110  -17.6774  -56.6793 H         1 UNK         0.3800 
    243 H243       -1.9790  -17.1634  -58.0640 H         1 UNK         0.3800 
    244 H244       -0.6582  -19.3692  -54.9696 H         1 UNK         0.0800 
    245 H245        0.0361  -20.6405  -55.9236 H         1 UNK         0.0800 
    246 H246       -2.5243  -19.8517  -53.0131 H         1 UNK         0.0800 
    247 H247       -2.1035  -21.1312  -51.9138 H         1 UNK         0.0800 
@<TRIPOS>BOND
     1    1    2 1    
     2    1  127 1    
     3    1  128 1    
     4    1  129 1    
     5    2    3 2    
     6    2    4 am   BACKBONE|DICT|INTERRES
     7    4    5 1    
     8    4  130 1    
     9    5    6 1    
    10    5   65 1    
    11    5  131 1    
    12    6    7 1    
    13    6  132 1    
    14    6  133 1    
    15    7    8 1    
    16    8    9 1    
    17    8  134 1    
    18    8  135 1    
    19    9   10 ar   
    20    9   14 ar   
    21   10   11 ar   
    22   10  136 1    
    23   11   12 ar   
    24   11  126 1    
    25   12   13 ar   
    26   12  137 1    
    27   13   14 ar   
    28   13   15 1    
    29   14  138 1    
    30   15   16 1    
    31   15  139 1    
    32   15  140 1    
    33   16   17 1    
    34   17   18 1    
    35   17  141 1    
    36   17  142 1    
    37   18   19 1    
    38   18   67 1    
    39   18  143 1    
    40   19   20 am   BACKBONE|DICT|INTERRES
    41   19  144 1    
    42   20   21 2    
    43   20   22 1    
    44   22   23 1    
    45   22   24 1    
    46   22  145 1    
    47   23  146 1    
    48   23  147 1    
    49   23  148 1    
    50   24   25 am   BACKBONE|DICT|INTERRES
    51   24  149 1    
    52   25   26 2    
    53   25   27 1    
    54   27   28 1    
    55   27   29 1    
    56   27  150 1    
    57   28  151 1    
    58   28  152 1    
    59   28  153 1    
    60   29   30 am   BACKBONE|DICT|INTERRES
    61   29  154 1    
    62   30   31 2    
    63   30   32 1    
    64   32   33 1    
    65   32   34 1    
    66   32  155 1    
    67   33  156 1    
    68   33  157 1    
    69   33  158 1    
    70   34   35 am   BACKBONE|DICT|INTERRES
    71   34  159 1    
    72   35   36 2    
    73   35   37 1    
    74   37   38 1    
    75   37   39 1    
    76   37  160 1    
    77   38  161 1    
    78   38  162 1    
    79   38  163 1    
    80   39   40 am   BACKBONE|DICT|INTERRES
    81   39  164 1    
    82   40   41 2    
    83   40   42 1    
    84   42   43 1    
    85   42   44 1    
    86   42  165 1    
    87   43  166 1    
    88   43  167 1    
    89   43  168 1    
    90   44   45 am   BACKBONE|DICT|INTERRES
    91   44  169 1    
    92   45   46 2    
    93   45   47 1    
    94   47   48 1    
    95   47   49 1    
    96   47  170 1    
    97   48  171 1    
    98   48  172 1    
    99   48  173 1    
   100   49   50 am   BACKBONE|DICT|INTERRES
   101   49  174 1    
   102   50   51 2    
   103   50   52 1    
   104   52   53 1    
   105   52   54 1    
   106   52  175 1    
   107   53  176 1    
   108   53  177 1    
   109   53  178 1    
   110   54   55 am   BACKBONE|DICT|INTERRES
   111   54  179 1    
   112   55   56 2    
   113   55   57 1    
   114   57   58 1    
   115   57   59 1    
   116   57  180 1    
   117   58  181 1    
   118   58  182 1    
   119   58  183 1    
   120   59   60 am   BACKBONE|DICT|INTERRES
   121   59  184 1    
   122   60   61 2    
   123   60   62 1    
   124   62   63 1    
   125   62   64 1    
   126   62  185 1    
   127   63  186 1    
   128   63  187 1    
   129   63  188 1    
   130   64   65 am   BACKBONE|DICT|INTERRES
   131   64  189 1    
   132   65   66 2    
   133   67   68 2    
   134   67   69 am   BACKBONE|DICT|INTERRES
   135   69   70 1    
   136   69  190 1    
   137   70   71 1    
   138   70   72 1    
   139   70  191 1    
   140   71  192 1    
   141   71  193 1    
   142   71  194 1    
   143   72   73 2    
   144   72   74 am   BACKBONE|DICT|INTERRES
   145   74   75 1    
   146   74  195 1    
   147   75   76 1    
   148   75   77 1    
   149   75  196 1    
   150   76  197 1    
   151   76  198 1    
   152   76  199 1    
   153   77   78 2    
   154   77   79 am   BACKBONE|DICT|INTERRES
   155   79   80 1    
   156   79  200 1    
   157   80   81 1    
   158   80   82 1    
   159   80  201 1    
   160   81  202 1    
   161   81  203 1    
   162   81  204 1    
   163   82   83 2    
   164   82   84 am   BACKBONE|DICT|INTERRES
   165   84   85 1    
   166   84  205 1    
   167   85   86 1    
   168   85   87 1    
   169   85  206 1    
   170   86  207 1    
   171   86  208 1    
   172   86  209 1    
   173   87   88 2    
   174   87   89 am   BACKBONE|DICT|INTERRES
   175   89   90 1    
   176   89  210 1    
   177   90   91 1    
   178   90   92 1    
   179   90  211 1    
   180   91  212 1    
   181   91  213 1    
   182   91  214 1    
   183   92   93 2    
   184   92   94 am   BACKBONE|DICT|INTERRES
   185   94   95 1    
   186   94  215 1    
   187   95   96 1    
   188   95   97 1    
   189   95  216 1    
   190   96  217 1    
   191   96  218 1    
   192   96  219 1    
   193   97   98 2    
   194   97   99 am   BACKBONE|DICT|INTERRES
   195   99  100 1    
   196   99  220 1    
   197  100  101 1    
   198  100  102 1    
   199  100  221 1    
   200  101  222 1    
   201  101  223 1    
   202  101  224 1    
   203  102  103 2    
   204  102  104 am   BACKBONE|DICT|INTERRES
   205  104  105 1    
   206  104  225 1    
   207  105  106 1    
   208  105  107 1    
   209  105  226 1    
   210  106  227 1    
   211  106  228 1    
   212  106  229 1    
   213  107  108 2    
   214  107  109 am   BACKBONE|DICT|INTERRES
   215  109  110 1    
   216  109  230 1    
   217  110  111 1    
   218  110  112 1    
   219  110  231 1    
   220  111  232 1    
   221  111  233 1    
   222  111  234 1    
   223  112  113 2    
   224  112  114 am   BACKBONE|DICT|INTERRES
   225  114  115 1    
   226  114  235 1    
   227  115  116 1    
   228  115  117 1    
   229  115  236 1    
   230  116  237 1    
   231  116  238 1    
   232  116  239 1    
   233  117  118 2    
   234  117  119 am   BACKBONE|DICT|INTERRES
   235  119  120 1    
   236  119  240 1    
   237  120  121 1    
   238  120  124 1    
   239  120  241 1    
   240  121  122 am   BACKBONE|DICT|INTERRES
   241  121  123 2    
   242  122  242 1    
   243  122  243 1    
   244  124  125 1    
   245  124  244 1    
   246  124  245 1    
   247  125  126 1    
   248  126  246 1    
   249  126  247 1    
@<TRIPOS>SUBSTRUCTURE
     1 UNK         1 GROUP             0       ****    0 ROOT    
