@<TRIPOS>MOLECULE
3R540
247   249    1
SMALL
USER_CHARGES


@<TRIPOS>ATOM
      1 CA         -1.6983  -14.7358  -49.1152 C.3       0 UNK        -0.1800 
      2 C          -0.8800  -14.9263  -47.8475 C.2       0 UNK         0.5000 
      3 O          -1.2743  -14.4434  -46.7836 O.2       0 UNK        -0.5000 
      4 N           0.2310  -15.6679  -47.9397 N.am      1 UNK        -0.5000 
      5 CA          1.2002  -15.9892  -46.8769 C.3       1 UNK         0.1400 
      6 C6          2.5585  -16.4496  -47.4743 C.3       23 UNK        -0.0398 
      7 S7          2.4125  -17.8258  -48.6622 S.3       23 UNK        -0.2404 
      8 C8          4.1429  -18.3987  -48.7540 C.3       23 UNK        -0.0205 
      9 C9          4.3267  -19.5865  -49.6954 C.ar      23 UNK        -0.0193 
     10 C10         3.7392  -19.5857  -50.9647 C.ar      23 UNK        -0.1150 
     11 C11         3.9120  -20.6644  -51.8335 C.ar      23 UNK        -0.0193 
     12 C12         4.6985  -21.7476  -51.4348 C.ar      23 UNK        -0.1150 
     13 C13         5.3199  -21.7534  -50.1829 C.ar      23 UNK        -0.0193 
     14 C14         5.1224  -20.6739  -49.3145 C.ar      23 UNK        -0.1150 
     15 C15         6.2596  -22.8936  -49.8070 C.3       23 UNK        -0.0205 
     16 S16         5.5980  -23.9969  -48.5177 S.3       23 UNK        -0.2404 
     17 C17         4.1221  -24.7170  -49.3185 C.3       23 UNK        -0.0398 
     18 CA          2.8411  -24.4692  -48.4868 C.3       11 UNK         0.1400 
     19 N           2.6191  -23.0416  -48.2352 N.am      11 UNK        -0.5000 
     20 C           1.8508  -22.5543  -47.2556 C.2       10 UNK         0.5000 
     21 O           1.2015  -23.2558  -46.4789 O.2       10 UNK        -0.5000 
     22 CA          1.7870  -21.0212  -47.1465 C.3       10 UNK         0.1400 
     23 CB          0.3361  -20.5348  -47.2790 C.3       10 UNK        -0.1800 
     24 N           2.3783  -20.4912  -45.9135 N.am      10 UNK        -0.5000 
     25 C           3.6296  -20.7242  -45.4861 C.2       9 UNK         0.5000 
     26 O           4.4264  -21.4529  -46.0758 O.2       9 UNK        -0.5000 
     27 CA          4.1092  -20.0151  -44.2067 C.3       9 UNK         0.1400 
     28 CB          5.2893  -19.0772  -44.5198 C.3       9 UNK        -0.1800 
     29 N           3.0669  -19.2267  -43.5508 N.am      9 UNK        -0.5000 
     30 C           2.7529  -19.2855  -42.2517 C.2       8 UNK         0.5000 
     31 O           3.2147  -20.1146  -41.4658 O.2       8 UNK        -0.5000 
     32 CA          1.8400  -18.1566  -41.7470 C.3       8 UNK         0.1400 
     33 CB          1.5457  -18.2218  -40.2363 C.3       8 UNK        -0.1800 
     34 N           2.4892  -16.8912  -42.0807 N.am      8 UNK        -0.5000 
     35 C           1.8632  -15.7555  -42.3954 C.2       7 UNK         0.5000 
     36 O           0.6430  -15.5959  -42.2977 O.2       7 UNK        -0.5000 
     37 CA          2.7352  -14.6155  -42.9544 C.3       7 UNK         0.1400 
     38 CB          3.8846  -15.1190  -43.8549 C.3       7 UNK        -0.1800 
     39 N           1.8418  -13.7365  -43.6952 N.am      7 UNK        -0.5000 
     40 C           2.0689  -12.4871  -44.1110 C.2       6 UNK         0.5000 
     41 O           3.1528  -11.9119  -44.0099 O.2       6 UNK        -0.5000 
     42 CA          0.8627  -11.7483  -44.7274 C.3       6 UNK         0.1400 
     43 CB          0.9491  -11.7427  -46.2613 C.3       6 UNK        -0.1800 
     44 N          -0.4219  -12.3286  -44.3213 N.am      6 UNK        -0.5000 
     45 C          -0.9563  -12.1975  -43.0962 C.2       5 UNK         0.5000 
     46 O          -0.4350  -11.5296  -42.2014 O.2       5 UNK        -0.5000 
     47 CA         -2.2720  -12.9570  -42.8192 C.3       5 UNK         0.1400 
     48 CB         -3.1272  -12.2979  -41.7171 C.3       5 UNK        -0.1800 
     49 N          -3.0697  -13.2028  -44.0241 N.am      5 UNK        -0.5000 
     50 C          -3.6221  -12.2943  -44.8446 C.2       4 UNK         0.5000 
     51 O          -3.5653  -11.0783  -44.6586 O.2       4 UNK        -0.5000 
     52 CA         -4.3382  -12.8308  -46.0998 C.3       4 UNK         0.1400 
     53 CB         -3.7677  -12.1881  -47.3760 C.3       4 UNK        -0.1800 
     54 N          -4.2235  -14.2882  -46.2092 N.am      4 UNK        -0.5000 
     55 C          -5.1714  -15.1533  -45.8258 C.2       3 UNK         0.5000 
     56 O          -6.2667  -14.8147  -45.3768 O.2       3 UNK        -0.5000 
     57 CA         -4.8414  -16.6513  -45.9491 C.3       3 UNK         0.1400 
     58 CB         -5.2136  -17.1647  -47.3445 C.3       3 UNK        -0.1800 
     59 N          -3.4422  -16.9926  -45.6816 N.am      3 UNK        -0.5000 
     60 C          -2.8398  -16.9030  -44.4868 C.2       2 UNK         0.5000 
     61 O          -3.3508  -16.3848  -43.4953 O.2       2 UNK        -0.5000 
     62 CA         -1.4094  -17.4521  -44.4160 C.3       2 UNK         0.1400 
     63 CB         -1.4068  -18.9889  -44.5274 C.3       2 UNK        -0.1800 
     64 N          -0.6398  -16.8151  -45.4782 N.am      2 UNK        -0.5000 
     65 C           0.6574  -16.9308  -45.7682 C.2       1 UNK         0.5000 
     66 O           1.4158  -17.7085  -45.1884 O.2       1 UNK        -0.5000 
     67 C           1.6174  -25.1400  -49.1467 C.2       11 UNK         0.5000 
     68 O           1.4483  -26.3531  -49.0240 O.2       11 UNK        -0.5000 
     69 N           0.7791  -24.3379  -49.8164 N.am      12 UNK        -0.5000 
     70 CA         -0.4407  -24.7617  -50.5032 C.3       12 UNK         0.1400 
     71 CB         -0.6257  -23.8839  -51.7513 C.3       12 UNK        -0.1800 
     72 C          -1.6937  -24.7151  -49.6058 C.2       12 UNK         0.5000 
     73 O          -2.7998  -24.8509  -50.1265 O.2       12 UNK        -0.5000 
     74 N          -1.5310  -24.5252  -48.2876 N.am      13 UNK        -0.5000 
     75 CA         -2.6014  -24.3778  -47.2923 C.3       13 UNK         0.1400 
     76 CB         -2.0169  -23.7490  -46.0161 C.3       13 UNK        -0.1800 
     77 C          -3.4220  -25.6568  -47.0007 C.2       13 UNK         0.5000 
     78 O          -3.7129  -25.9588  -45.8420 O.2       13 UNK        -0.5000 
     79 N          -3.8331  -26.3605  -48.0608 N.am      14 UNK        -0.5000 
     80 CA         -4.8884  -27.3746  -48.0400 C.3       14 UNK         0.1400 
     81 CB         -4.7809  -28.2295  -49.3117 C.3       14 UNK        -0.1800 
     82 C          -6.2855  -26.7272  -47.9377 C.2       14 UNK         0.5000 
     83 O          -7.2192  -27.3575  -47.4404 O.2       14 UNK        -0.5000 
     84 N          -6.3884  -25.4724  -48.3900 N.am      15 UNK        -0.5000 
     85 CA         -7.5370  -24.5880  -48.2766 C.3       15 UNK         0.1400 
     86 CB         -8.4898  -24.8190  -49.4619 C.3       15 UNK        -0.1800 
     87 C          -7.0068  -23.1479  -48.2714 C.2       15 UNK         0.5000 
     88 O          -5.9072  -22.8998  -48.7779 O.2       15 UNK        -0.5000 
     89 N          -7.8048  -22.2128  -47.7411 N.am      16 UNK        -0.5000 
     90 CA         -7.4810  -20.7827  -47.7118 C.3       16 UNK         0.1400 
     91 CB         -8.5224  -20.0306  -46.8709 C.3       16 UNK        -0.1800 
     92 C          -7.3733  -20.1704  -49.1199 C.2       16 UNK         0.5000 
     93 O          -6.4881  -19.3524  -49.3605 O.2       16 UNK        -0.5000 
     94 N          -8.2351  -20.6227  -50.0414 N.am      17 UNK        -0.5000 
     95 CA         -8.2104  -20.2342  -51.4522 C.3       17 UNK         0.1400 
     96 CB         -9.4537  -20.7967  -52.1568 C.3       17 UNK        -0.1800 
     97 C          -6.9267  -20.6891  -52.1708 C.2       17 UNK         0.5000 
     98 O          -6.3903  -19.9403  -52.9856 O.2       17 UNK        -0.5000 
     99 N          -6.4399  -21.8904  -51.8306 N.am      18 UNK        -0.5000 
    100 CA        -5.2001  -22.4562  -52.3599 C.3       18 UNK         0.1400 
    101 CB        -5.1640  -23.9644  -52.0781 C.3       18 UNK        -0.1800 
    102 C         -3.9534  -21.7385  -51.8108 C.2       18 UNK         0.5000 
    103 O         -3.0250  -21.4765  -52.5751 O.2       18 UNK        -0.5000 
    104 N         -3.9767  -21.3766  -50.5189 N.am      19 UNK        -0.5000 
    105 CA        -2.9573  -20.5403  -49.8818 C.3       19 UNK         0.1400 
    106 CB        -3.1829  -20.4969  -48.3633 C.3       19 UNK        -0.1800 
    107 C         -2.9062  -19.1182  -50.4707 C.2       19 UNK         0.5000 
    108 O         -1.8172  -18.6261  -50.7642 O.2       19 UNK        -0.5000 
    109 N         -4.0804  -18.5011  -50.6695 N.am      20 UNK        -0.5000 
    110 CA        -4.2366  -17.1821  -51.2886 C.3       20 UNK         0.1400 
    111 CB        -5.7009  -16.7307  -51.1787 C.3       20 UNK        -0.1800 
    112 C         -3.7712  -17.1380  -52.7562 C.2       20 UNK         0.5000 
    113 O         -3.2084  -16.1296  -53.1830 O.2       20 UNK        -0.5000 
    114 N         -3.9945  -18.2343  -53.4939 N.am      21 UNK        -0.5000 
    115 CA        -3.5598  -18.4125  -54.8802 C.3       21 UNK         0.1400 
    116 CB        -4.3068  -19.6059  -55.4954 C.3       21 UNK        -0.1800 
    117 C         -2.0369  -18.5928  -55.0382 C.2       21 UNK         0.5000 
    118 O         -1.5285  -18.4067  -56.1458 O.2       21 UNK        -0.5000 
    119 N         -1.3311  -18.9408  -53.9531 N.am      22 UNK        -0.5000 
    120 CA         0.1283  -19.1263  -53.8996 C.3       22 UNK         0.1400 
    121 C          0.9181  -17.7812  -53.9683 C.2       22 UNK         0.5000 
    122 N          0.7200  -16.9837  -55.0088 N.am      22 UNK        -0.7600 
    123 O          1.7084  -17.4445  -53.0921 O.2       22 UNK        -0.5000 
    124 C124        0.5471  -20.0600  -52.7215 C.3       23 UNK        -0.0398 
    125 S125        1.6486  -21.4148  -53.2594 S.3       23 UNK        -0.2404 
    126 C126        3.2940  -20.6403  -53.2220 C.3       23 UNK        -0.0205 
    127 H127       -1.3463  -15.3769  -49.9241 H         1 UNK         0.0600 
    128 H128       -1.6371  -13.6995  -49.4468 H         1 UNK         0.0600 
    129 H129       -2.7451  -14.9720  -48.9258 H         1 UNK         0.0600 
    130 H130        0.4615  -16.0780  -48.8346 H         1 UNK         0.3000 
    131 H131        1.4038  -15.0545  -46.3526 H         1 UNK         0.0600 
    132 H132        3.2656  -16.7277  -46.6926 H         1 UNK         0.0800 
    133 H133        3.0206  -15.6124  -47.9989 H         1 UNK         0.0800 
    134 H134        4.7754  -17.5788  -49.0961 H         1 UNK         0.0800 
    135 H135        4.4784  -18.6590  -47.7491 H         1 UNK         0.0800 
    136 H136        3.1495  -18.7370  -51.2804 H         1 UNK         0.1150 
    137 H137        4.8514  -22.5733  -52.1158 H         1 UNK         0.1150 
    138 H138        5.6071  -20.6757  -48.3480 H         1 UNK         0.1150 
    139 H139        6.5146  -23.4895  -50.6848 H         1 UNK         0.0800 
    140 H140        7.1994  -22.4701  -49.4500 H         1 UNK         0.0800 
    141 H141        4.2983  -25.7881  -49.4332 H         1 UNK         0.0800 
    142 H142        4.0111  -24.3194  -50.3281 H         1 UNK         0.0800 
    143 H143        2.9798  -24.9575  -47.5194 H         1 UNK         0.0600 
    144 H144        3.1752  -22.4040  -48.7883 H         1 UNK         0.3000 
    145 H145        2.3519  -20.6056  -47.9793 H         1 UNK         0.0600 
    146 H146        0.2777  -19.4480  -47.3110 H         1 UNK         0.0600 
    147 H147       -0.1190  -20.9092  -48.1966 H         1 UNK         0.0600 
    148 H148       -0.2727  -20.8790  -46.4448 H         1 UNK         0.0600 
    149 H149        1.8075  -19.8422  -45.3895 H         1 UNK         0.3000 
    150 H150        4.4654  -20.8024  -43.5396 H         1 UNK         0.0600 
    151 H151        4.9911  -18.2687  -45.1884 H         1 UNK         0.0600 
    152 H152        6.1082  -19.6158  -44.9983 H         1 UNK         0.0600 
    153 H153        5.6874  -18.6285  -43.6096 H         1 UNK         0.0600 
    154 H154        2.5903  -18.5367  -44.1310 H         1 UNK         0.3000 
    155 H155        0.8974  -18.2433  -42.2909 H         1 UNK         0.0600 
    156 H156        2.4575  -18.1300  -39.6452 H         1 UNK         0.0600 
    157 H157        1.0719  -19.1676  -39.9710 H         1 UNK         0.0600 
    158 H158        0.8685  -17.4233  -39.9329 H         1 UNK         0.0600 
    159 H159        3.4906  -16.9457  -42.2060 H         1 UNK         0.3000 
    160 H160        3.1482  -14.0622  -42.1090 H         1 UNK         0.0600 
    161 H161        3.5166  -15.7815  -44.6360 H         1 UNK         0.0600 
    162 H162        4.6284  -15.6699  -43.2789 H         1 UNK         0.0600 
    163 H163        4.4108  -14.2961  -44.3379 H         1 UNK         0.0600 
    164 H164        0.8943  -14.0900  -43.7420 H         1 UNK         0.3000 
    165 H165        0.8983  -10.7128  -44.3823 H         1 UNK         0.0600 
    166 H166        1.8664  -11.2579  -46.5978 H         1 UNK         0.0600 
    167 H167        0.9441  -12.7515  -46.6714 H         1 UNK         0.0600 
    168 H168        0.1133  -11.1987  -46.7018 H         1 UNK         0.0600 
    169 H169       -0.9085  -12.8866  -45.0114 H         1 UNK         0.3000 
    170 H170       -1.9729  -13.9410  -42.4545 H         1 UNK         0.0600 
    171 H171       -2.5858  -12.2609  -40.7711 H         1 UNK         0.0600 
    172 H172       -3.4040  -11.2753  -41.9744 H         1 UNK         0.0600 
    173 H173       -4.0442  -12.8605  -41.5414 H         1 UNK         0.0600 
    174 H174       -3.2088  -14.1778  -44.2524 H         1 UNK         0.3000 
    175 H175       -5.3876  -12.5397  -46.0223 H         1 UNK         0.0600 
    176 H176       -4.2224  -12.6122  -48.2714 H         1 UNK         0.0600 
    177 H177       -3.9631  -11.1153  -47.3914 H         1 UNK         0.0600 
    178 H178       -2.6885  -12.3199  -47.4506 H         1 UNK         0.0600 
    179 H179       -3.3298  -14.6351  -46.5350 H         1 UNK         0.3000 
    180 H180       -5.4575  -17.1809  -45.2192 H         1 UNK         0.0600 
    181 H181       -4.5885  -16.7205  -48.1196 H         1 UNK         0.0600 
    182 H182       -6.2530  -16.9381  -47.5858 H         1 UNK         0.0600 
    183 H183       -5.1003  -18.2454  -47.3994 H         1 UNK         0.0600 
    184 H184       -2.9390  -17.4332  -46.4368 H         1 UNK         0.3000 
    185 H185       -0.9854  -17.1679  -43.4539 H         1 UNK         0.0600 
    186 H186       -2.0453  -19.4333  -43.7632 H         1 UNK         0.0600 
    187 H187       -1.7778  -19.3229  -45.4959 H         1 UNK         0.0600 
    188 H188       -0.4094  -19.4029  -44.3852 H         1 UNK         0.0600 
    189 H189       -1.1250  -16.0666  -45.9659 H         1 UNK         0.3000 
    190 H190        0.9953  -23.3528  -49.8545 H         1 UNK         0.3000 
    191 H191       -0.3294  -25.7954  -50.8366 H         1 UNK         0.0600 
    192 H192        0.2327  -23.9652  -52.4177 H         1 UNK         0.0600 
    193 H193       -1.5038  -24.1833  -52.3248 H         1 UNK         0.0600 
    194 H194       -0.7509  -22.8336  -51.4878 H         1 UNK         0.0600 
    195 H195       -0.5881  -24.4511  -47.9324 H         1 UNK         0.3000 
    196 H196       -3.3240  -23.6689  -47.6993 H         1 UNK         0.0600 
    197 H197       -2.7942  -23.5525  -45.2768 H         1 UNK         0.0600 
    198 H198       -1.5387  -22.7956  -46.2326 H         1 UNK         0.0600 
    199 H199       -1.2744  -24.3995  -45.5527 H         1 UNK         0.0600 
    200 H200       -3.5422  -26.0191  -48.9749 H         1 UNK         0.3000 
    201 H201       -4.7475  -28.0213  -47.1715 H         1 UNK         0.0600 
    202 H202       -5.5451  -29.0077  -49.3249 H         1 UNK         0.0600 
    203 H203       -4.9075  -27.6277  -50.2128 H         1 UNK         0.0600 
    204 H204       -3.8115  -28.7243  -49.3725 H         1 UNK         0.0600 
    205 H205       -5.5621  -25.0115  -48.7501 H         1 UNK         0.3000 
    206 H206       -8.0555  -24.7767  -47.3343 H         1 UNK         0.0600 
    207 H207       -8.8652  -25.8424  -49.4711 H         1 UNK         0.0600 
    208 H208       -9.3554  -24.1579  -49.4068 H         1 UNK         0.0600 
    209 H209       -7.9952  -24.6377  -50.4170 H         1 UNK         0.0600 
    210 H210       -8.6926  -22.4854  -47.3439 H         1 UNK         0.3000 
    211 H211       -6.5089  -20.6683  -47.2278 H         1 UNK         0.0600 
    212 H212       -9.5254  -20.1263  -47.2886 H         1 UNK         0.0600 
    213 H213       -8.2870  -18.9665  -46.8208 H         1 UNK         0.0600 
    214 H214       -8.5470  -20.4047  -45.8473 H         1 UNK         0.0600 
    215 H215       -8.9335  -21.2952  -49.7624 H         1 UNK         0.3000 
    216 H216       -8.2516  -19.1441  -51.5032 H         1 UNK         0.0600 
    217 H217       -9.4692  -20.5086  -53.2089 H         1 UNK         0.0600 
    218 H218      -10.3694  -20.4166  -51.7037 H         1 UNK         0.0600 
    219 H219       -9.4843  -21.8862  -52.1141 H         1 UNK         0.0600 
    220 H220       -6.9109  -22.4193  -51.1129 H         1 UNK         0.3000 
    221 H221       -5.2022  -22.3229  -53.4439 H         1 UNK         0.0600 
    222 H222       -5.2153  -24.1784  -51.0113 H         1 UNK         0.0600 
    223 H223       -5.9967  -24.4758  -52.5609 H         1 UNK         0.0600 
    224 H224       -4.2440  -24.4097  -52.4589 H         1 UNK         0.0600 
    225 H225       -4.7564  -21.6765  -49.9435 H         1 UNK         0.3000 
    226 H226       -1.9840  -21.0012  -50.0627 H         1 UNK         0.0600 
    227 H227       -2.5461  -19.7495  -47.8887 H         1 UNK         0.0600 
    228 H228       -4.2157  -20.2581  -48.1155 H         1 UNK         0.0600 
    229 H229       -2.9463  -21.4545  -47.9060 H         1 UNK         0.0600 
    230 H230       -4.9337  -18.9517  -50.3471 H         1 UNK         0.3000 
    231 H231       -3.6208  -16.4781  -50.7267 H         1 UNK         0.0600 
    232 H232       -6.3706  -17.4125  -51.7034 H         1 UNK         0.0600 
    233 H233       -5.8377  -15.7384  -51.6100 H         1 UNK         0.0600 
    234 H234       -6.0259  -16.6797  -50.1403 H         1 UNK         0.0600 
    235 H235       -4.5310  -18.9933  -53.0884 H         1 UNK         0.3000 
    236 H236       -3.8379  -17.5169  -55.4394 H         1 UNK         0.0600 
    237 H237       -5.3846  -19.4442  -55.4852 H         1 UNK         0.0600 
    238 H238       -4.0138  -19.7598  -56.5347 H         1 UNK         0.0600 
    239 H239       -4.1000  -20.5303  -54.9557 H         1 UNK         0.0600 
    240 H240       -1.8226  -19.0422  -53.0750 H         1 UNK         0.3000 
    241 H241        0.3909  -19.6427  -54.8249 H         1 UNK         0.0600 
    242 H242        0.0426  -17.2498  -55.7151 H         1 UNK         0.3800 
    243 H243        1.2144  -16.1084  -55.0770 H         1 UNK         0.3800 
    244 H244       -0.3337  -20.5473  -52.3016 H         1 UNK         0.0800 
    245 H245        0.9841  -19.5210  -51.8806 H         1 UNK         0.0800 
    246 H246        3.2413  -19.6191  -53.5994 H         1 UNK         0.0800 
    247 H247        3.9421  -21.1779  -53.9157 H         1 UNK         0.0800 
@<TRIPOS>BOND
     1    1    2 1    
     2    1  127 1    
     3    1  128 1    
     4    1  129 1    
     5    2    3 2    
     6    2    4 am   BACKBONE|DICT|INTERRES
     7    4    5 1    
     8    4  130 1    
     9    5    6 1    
    10    5   65 1    
    11    5  131 1    
    12    6    7 1    
    13    6  132 1    
    14    6  133 1    
    15    7    8 1    
    16    8    9 1    
    17    8  134 1    
    18    8  135 1    
    19    9   10 ar   
    20    9   14 ar   
    21   10   11 ar   
    22   10  136 1    
    23   11   12 ar   
    24   11  126 1    
    25   12   13 ar   
    26   12  137 1    
    27   13   14 ar   
    28   13   15 1    
    29   14  138 1    
    30   15   16 1    
    31   15  139 1    
    32   15  140 1    
    33   16   17 1    
    34   17   18 1    
    35   17  141 1    
    36   17  142 1    
    37   18   19 1    
    38   18   67 1    
    39   18  143 1    
    40   19   20 am   BACKBONE|DICT|INTERRES
    41   19  144 1    
    42   20   21 2    
    43   20   22 1    
    44   22   23 1    
    45   22   24 1    
    46   22  145 1    
    47   23  146 1    
    48   23  147 1    
    49   23  148 1    
    50   24   25 am   BACKBONE|DICT|INTERRES
    51   24  149 1    
    52   25   26 2    
    53   25   27 1    
    54   27   28 1    
    55   27   29 1    
    56   27  150 1    
    57   28  151 1    
    58   28  152 1    
    59   28  153 1    
    60   29   30 am   BACKBONE|DICT|INTERRES
    61   29  154 1    
    62   30   31 2    
    63   30   32 1    
    64   32   33 1    
    65   32   34 1    
    66   32  155 1    
    67   33  156 1    
    68   33  157 1    
    69   33  158 1    
    70   34   35 am   BACKBONE|DICT|INTERRES
    71   34  159 1    
    72   35   36 2    
    73   35   37 1    
    74   37   38 1    
    75   37   39 1    
    76   37  160 1    
    77   38  161 1    
    78   38  162 1    
    79   38  163 1    
    80   39   40 am   BACKBONE|DICT|INTERRES
    81   39  164 1    
    82   40   41 2    
    83   40   42 1    
    84   42   43 1    
    85   42   44 1    
    86   42  165 1    
    87   43  166 1    
    88   43  167 1    
    89   43  168 1    
    90   44   45 am   BACKBONE|DICT|INTERRES
    91   44  169 1    
    92   45   46 2    
    93   45   47 1    
    94   47   48 1    
    95   47   49 1    
    96   47  170 1    
    97   48  171 1    
    98   48  172 1    
    99   48  173 1    
   100   49   50 am   BACKBONE|DICT|INTERRES
   101   49  174 1    
   102   50   51 2    
   103   50   52 1    
   104   52   53 1    
   105   52   54 1    
   106   52  175 1    
   107   53  176 1    
   108   53  177 1    
   109   53  178 1    
   110   54   55 am   BACKBONE|DICT|INTERRES
   111   54  179 1    
   112   55   56 2    
   113   55   57 1    
   114   57   58 1    
   115   57   59 1    
   116   57  180 1    
   117   58  181 1    
   118   58  182 1    
   119   58  183 1    
   120   59   60 am   BACKBONE|DICT|INTERRES
   121   59  184 1    
   122   60   61 2    
   123   60   62 1    
   124   62   63 1    
   125   62   64 1    
   126   62  185 1    
   127   63  186 1    
   128   63  187 1    
   129   63  188 1    
   130   64   65 am   BACKBONE|DICT|INTERRES
   131   64  189 1    
   132   65   66 2    
   133   67   68 2    
   134   67   69 am   BACKBONE|DICT|INTERRES
   135   69   70 1    
   136   69  190 1    
   137   70   71 1    
   138   70   72 1    
   139   70  191 1    
   140   71  192 1    
   141   71  193 1    
   142   71  194 1    
   143   72   73 2    
   144   72   74 am   BACKBONE|DICT|INTERRES
   145   74   75 1    
   146   74  195 1    
   147   75   76 1    
   148   75   77 1    
   149   75  196 1    
   150   76  197 1    
   151   76  198 1    
   152   76  199 1    
   153   77   78 2    
   154   77   79 am   BACKBONE|DICT|INTERRES
   155   79   80 1    
   156   79  200 1    
   157   80   81 1    
   158   80   82 1    
   159   80  201 1    
   160   81  202 1    
   161   81  203 1    
   162   81  204 1    
   163   82   83 2    
   164   82   84 am   BACKBONE|DICT|INTERRES
   165   84   85 1    
   166   84  205 1    
   167   85   86 1    
   168   85   87 1    
   169   85  206 1    
   170   86  207 1    
   171   86  208 1    
   172   86  209 1    
   173   87   88 2    
   174   87   89 am   BACKBONE|DICT|INTERRES
   175   89   90 1    
   176   89  210 1    
   177   90   91 1    
   178   90   92 1    
   179   90  211 1    
   180   91  212 1    
   181   91  213 1    
   182   91  214 1    
   183   92   93 2    
   184   92   94 am   BACKBONE|DICT|INTERRES
   185   94   95 1    
   186   94  215 1    
   187   95   96 1    
   188   95   97 1    
   189   95  216 1    
   190   96  217 1    
   191   96  218 1    
   192   96  219 1    
   193   97   98 2    
   194   97   99 am   BACKBONE|DICT|INTERRES
   195   99  100 1    
   196   99  220 1    
   197  100  101 1    
   198  100  102 1    
   199  100  221 1    
   200  101  222 1    
   201  101  223 1    
   202  101  224 1    
   203  102  103 2    
   204  102  104 am   BACKBONE|DICT|INTERRES
   205  104  105 1    
   206  104  225 1    
   207  105  106 1    
   208  105  107 1    
   209  105  226 1    
   210  106  227 1    
   211  106  228 1    
   212  106  229 1    
   213  107  108 2    
   214  107  109 am   BACKBONE|DICT|INTERRES
   215  109  110 1    
   216  109  230 1    
   217  110  111 1    
   218  110  112 1    
   219  110  231 1    
   220  111  232 1    
   221  111  233 1    
   222  111  234 1    
   223  112  113 2    
   224  112  114 am   BACKBONE|DICT|INTERRES
   225  114  115 1    
   226  114  235 1    
   227  115  116 1    
   228  115  117 1    
   229  115  236 1    
   230  116  237 1    
   231  116  238 1    
   232  116  239 1    
   233  117  118 2    
   234  117  119 am   BACKBONE|DICT|INTERRES
   235  119  120 1    
   236  119  240 1    
   237  120  121 1    
   238  120  124 1    
   239  120  241 1    
   240  121  122 am   BACKBONE|DICT|INTERRES
   241  121  123 2    
   242  122  242 1    
   243  122  243 1    
   244  124  125 1    
   245  124  244 1    
   246  124  245 1    
   247  125  126 1    
   248  126  246 1    
   249  126  247 1    
@<TRIPOS>SUBSTRUCTURE
     1 UNK         1 GROUP             0       ****    0 ROOT    
