@<TRIPOS>MOLECULE
3R540
247   249    1
SMALL
USER_CHARGES


@<TRIPOS>ATOM
      1 CA         -0.2591  -13.2033  -49.9234 C.3       0 UNK        -0.1800 
      2 C          -0.5095  -14.3636  -48.9644 C.2       0 UNK         0.5000 
      3 O          -1.6246  -14.8739  -48.9113 O.2       0 UNK        -0.5000 
      4 N           0.4764  -14.8261  -48.1923 N.am      1 UNK        -0.5000 
      5 CA          1.8567  -14.3435  -48.1222 C.3       1 UNK         0.1400 
      6 C6          2.7988  -15.3851  -47.4635 C.3       23 UNK        -0.0398 
      7 S7          2.5458  -17.0804  -48.0898 S.3       23 UNK        -0.2404 
      8 C8          3.4057  -17.0299  -49.6879 C.3       23 UNK        -0.0205 
      9 C9          2.9343  -18.1679  -50.5783 C.ar      23 UNK        -0.0193 
     10 C10         2.1247  -17.9121  -51.6903 C.ar      23 UNK        -0.1150 
     11 C11         1.6880  -18.9564  -52.5130 C.ar      23 UNK        -0.0193 
     12 C12         2.0823  -20.2666  -52.2094 C.ar      23 UNK        -0.1150 
     13 C13         2.8639  -20.5378  -51.0829 C.ar      23 UNK        -0.0193 
     14 C14         3.2971  -19.4829  -50.2782 C.ar      23 UNK        -0.1150 
     15 C15         3.2352  -21.9710  -50.7344 C.3       23 UNK        -0.0205 
     16 S16         1.7936  -22.9267  -50.1652 S.3       23 UNK        -0.2404 
     17 C17         1.3785  -22.1169  -48.5818 C.3       23 UNK        -0.0398 
     18 CA          0.6578  -23.0870  -47.6111 C.3       11 UNK         0.1400 
     19 N           0.8682  -22.7239  -46.2072 N.am      11 UNK        -0.5000 
     20 C           0.6096  -23.5330  -45.1719 C.2       10 UNK         0.5000 
     21 O           0.1493  -24.6654  -45.3086 O.2       10 UNK        -0.5000 
     22 CA          0.8294  -22.9929  -43.7474 C.3       10 UNK         0.1400 
     23 CB          1.6588  -23.9614  -42.8814 C.3       10 UNK        -0.1800 
     24 N           1.3485  -21.6256  -43.6774 N.am      10 UNK        -0.5000 
     25 C           2.5771  -21.1639  -43.9513 C.2       9 UNK         0.5000 
     26 O           3.4936  -21.8592  -44.3883 O.2       9 UNK        -0.5000 
     27 CA          2.8158  -19.6568  -43.7081 C.3       9 UNK         0.1400 
     28 CB          2.9734  -18.9213  -45.0462 C.3       9 UNK        -0.1800 
     29 N           1.7372  -19.0173  -42.9479 N.am      9 UNK        -0.5000 
     30 C           1.4865  -19.2143  -41.6450 C.2       8 UNK         0.5000 
     31 O           2.2145  -19.8666  -40.8969 O.2       8 UNK        -0.5000 
     32 CA          0.1635  -18.6379  -41.1111 C.3       8 UNK         0.1400 
     33 CB          0.3429  -17.1772  -40.6744 C.3       8 UNK        -0.1800 
     34 N          -0.9070  -18.7292  -42.1095 N.am      8 UNK        -0.5000 
     35 C          -1.5598  -19.8595  -42.4191 C.2       7 UNK         0.5000 
     36 O          -1.3480  -20.9394  -41.8700 O.2       7 UNK        -0.5000 
     37 CA         -2.5932  -19.7883  -43.5585 C.3       7 UNK         0.1400 
     38 CB         -3.9723  -19.3842  -43.0190 C.3       7 UNK        -0.1800 
     39 N          -2.1953  -18.8581  -44.6153 N.am      7 UNK        -0.5000 
     40 C          -1.2517  -19.1115  -45.5324 C.2       6 UNK         0.5000 
     41 O          -0.6955  -20.2043  -45.6501 O.2       6 UNK        -0.5000 
     42 CA         -0.8539  -17.9550  -46.4715 C.3       6 UNK         0.1400 
     43 CB         -1.5480  -18.1125  -47.8319 C.3       6 UNK        -0.1800 
     44 N          -1.1106  -16.6145  -45.9212 N.am      6 UNK        -0.5000 
     45 C          -0.5319  -16.1329  -44.8090 C.2       5 UNK         0.5000 
     46 O           0.2934  -16.7784  -44.1611 O.2       5 UNK        -0.5000 
     47 CA         -0.9621  -14.7380  -44.3105 C.3       5 UNK         0.1400 
     48 CB          0.1446  -14.0484  -43.4921 C.3       5 UNK        -0.1800 
     49 N          -1.3766  -13.8422  -45.3910 N.am      5 UNK        -0.5000 
     50 C          -2.6421  -13.6512  -45.7888 C.2       4 UNK         0.5000 
     51 O          -3.5797  -14.3376  -45.3800 O.2       4 UNK        -0.5000 
     52 CA         -2.9077  -12.5211  -46.8122 C.3       4 UNK         0.1400 
     53 CB         -4.3329  -11.9397  -46.6940 C.3       4 UNK        -0.1800 
     54 N          -1.9025  -11.4469  -46.8058 N.am      4 UNK        -0.5000 
     55 C          -1.6421  -10.5862  -45.8099 C.2       3 UNK         0.5000 
     56 O          -2.1921  -10.6182  -44.7081 O.2       3 UNK        -0.5000 
     57 CA         -0.5556   -9.5387  -46.1058 C.3       3 UNK         0.1400 
     58 CB         -0.3240   -8.5513  -44.9449 C.3       3 UNK        -0.1800 
     59 N           0.6868  -10.2321  -46.4224 N.am      3 UNK        -0.5000 
     60 C           1.6834   -9.7842  -47.1888 C.2       2 UNK         0.5000 
     61 O           1.6591   -8.7039  -47.7794 O.2       2 UNK        -0.5000 
     62 CA          2.9251  -10.6944  -47.3119 C.3       2 UNK         0.1400 
     63 CB          3.6852  -10.7775  -45.9733 C.3       2 UNK        -0.1800 
     64 N           2.6696  -12.0384  -47.8558 N.am      2 UNK        -0.5000 
     65 C           1.9040  -13.0142  -47.3476 C.2       1 UNK         0.5000 
     66 O           1.2342  -12.9049  -46.3191 O.2       1 UNK        -0.5000 
     67 C          -0.8438  -23.2365  -47.9395 C.2       11 UNK         0.5000 
     68 O          -1.2213  -24.1491  -48.6787 O.2       11 UNK        -0.5000 
     69 N          -1.6890  -22.3693  -47.3602 N.am      12 UNK        -0.5000 
     70 CA         -3.1452  -22.4774  -47.4796 C.3       12 UNK         0.1400 
     71 CB         -3.8176  -21.1268  -47.2016 C.3       12 UNK        -0.1800 
     72 C          -3.7191  -23.5829  -46.5787 C.2       12 UNK         0.5000 
     73 O          -4.6637  -24.2560  -46.9879 O.2       12 UNK        -0.5000 
     74 N          -3.1153  -23.7812  -45.3972 N.am      13 UNK        -0.5000 
     75 CA         -3.4997  -24.8107  -44.4256 C.3       13 UNK         0.1400 
     76 CB         -2.7738  -24.5603  -43.0950 C.3       13 UNK        -0.1800 
     77 C          -3.2285  -26.2390  -44.9355 C.2       13 UNK         0.5000 
     78 O          -4.0464  -27.1321  -44.7146 O.2       13 UNK        -0.5000 
     79 N          -2.1084  -26.4140  -45.6501 N.am      14 UNK        -0.5000 
     80 CA         -1.7282  -27.6462  -46.3448 C.3       14 UNK         0.1400 
     81 CB         -0.2246  -27.5830  -46.6600 C.3       14 UNK        -0.1800 
     82 C          -2.5310  -27.8969  -47.6389 C.2       14 UNK         0.5000 
     83 O          -2.3895  -28.9669  -48.2318 O.2       14 UNK        -0.5000 
     84 N          -3.3292  -26.9059  -48.0662 N.am      15 UNK        -0.5000 
     85 CA         -4.1275  -26.8616  -49.2951 C.3       15 UNK         0.1400 
     86 CB         -5.2135  -27.9570  -49.3001 C.3       15 UNK        -0.1800 
     87 C          -3.2748  -26.8477  -50.5817 C.2       15 UNK         0.5000 
     88 O          -3.7647  -27.2296  -51.6453 O.2       15 UNK        -0.5000 
     89 N          -2.0225  -26.3843  -50.4700 N.am      16 UNK        -0.5000 
     90 CA         -1.1093  -26.1859  -51.5924 C.3       16 UNK         0.1400 
     91 CB          0.3409  -26.2462  -51.0901 C.3       16 UNK        -0.1800 
     92 C          -1.4175  -24.8590  -52.3047 C.2       16 UNK         0.5000 
     93 O          -1.5632  -24.8447  -53.5274 O.2       16 UNK        -0.5000 
     94 N          -1.5695  -23.7835  -51.5188 N.am      17 UNK        -0.5000 
     95 CA         -2.0854  -22.4967  -51.9888 C.3       17 UNK         0.1400 
     96 CB         -1.5934  -21.3647  -51.0712 C.3       17 UNK        -0.1800 
     97 C          -3.6211  -22.5012  -52.0405 C.2       17 UNK         0.5000 
     98 O          -4.2039  -21.9124  -52.9493 O.2       17 UNK        -0.5000 
     99 N          -4.2345  -23.1556  -51.0410 N.am      18 UNK        -0.5000 
    100 CA        -5.6739  -23.3376  -50.7986 C.3       18 UNK         0.1400 
    101 CB        -6.3107  -24.1608  -51.9352 C.3       18 UNK        -0.1800 
    102 C         -6.4791  -22.0500  -50.5076 C.2       18 UNK         0.5000 
    103 O         -7.6685  -22.1480  -50.2028 O.2       18 UNK        -0.5000 
    104 N         -5.8386  -20.8794  -50.5738 N.am      19 UNK        -0.5000 
    105 CA        -6.4140  -19.5554  -50.3769 C.3       19 UNK         0.1400 
    106 CB        -7.3166  -19.1873  -51.5719 C.3       19 UNK        -0.1800 
    107 C         -5.2675  -18.5444  -50.2416 C.2       19 UNK         0.5000 
    108 O         -4.1207  -18.8644  -50.5724 O.2       19 UNK        -0.5000 
    109 N         -5.6036  -17.3298  -49.7881 N.am      20 UNK        -0.5000 
    110 CA        -4.6986  -16.1808  -49.7577 C.3       20 UNK         0.1400 
    111 CB        -5.3870  -14.9994  -49.0591 C.3       20 UNK        -0.1800 
    112 C         -4.2463  -15.7894  -51.1763 C.2       20 UNK         0.5000 
    113 O         -5.0528  -15.8196  -52.1103 O.2       20 UNK        -0.5000 
    114 N         -2.9535  -15.4705  -51.3069 N.am      21 UNK        -0.5000 
    115 CA        -2.2346  -15.1252  -52.5397 C.3       21 UNK         0.1400 
    116 CB        -2.7070  -13.7512  -53.0596 C.3       21 UNK        -0.1800 
    117 C         -2.2979  -16.2115  -53.6386 C.2       21 UNK         0.5000 
    118 O         -2.0905  -15.8940  -54.8108 O.2       21 UNK        -0.5000 
    119 N         -2.5986  -17.4611  -53.2514 N.am      22 UNK        -0.5000 
    120 CA        -2.9301  -18.5823  -54.1482 C.3       22 UNK         0.1400 
    121 C         -4.2468  -18.3705  -54.9632 C.2       22 UNK         0.5000 
    122 N         -5.1586  -17.5015  -54.5379 N.am      22 UNK        -0.7600 
    123 O         -4.4667  -19.0168  -55.9842 O.2       22 UNK        -0.5000 
    124 C124       -1.7224  -19.0445  -55.0192 C.3       23 UNK        -0.0398 
    125 S125       -0.4703  -19.9146  -54.0233 S.3       23 UNK        -0.2404 
    126 C126        0.8021  -18.6441  -53.7208 C.3       23 UNK        -0.0205 
    127 H127        0.0723  -12.3116  -49.3937 H         1 UNK         0.0600 
    128 H128        0.4881  -13.4719  -50.6698 H         1 UNK         0.0600 
    129 H129       -1.1775  -12.9443  -50.4482 H         1 UNK         0.0600 
    130 H130        0.2769  -15.6005  -47.5774 H         1 UNK         0.3000 
    131 H131        2.2088  -14.1696  -49.1401 H         1 UNK         0.0600 
    132 H132        2.6345  -15.4239  -46.3843 H         1 UNK         0.0800 
    133 H133        3.8441  -15.1039  -47.6025 H         1 UNK         0.0800 
    134 H134        4.4818  -17.1055  -49.5257 H         1 UNK         0.0800 
    135 H135        3.2297  -16.0714  -50.1768 H         1 UNK         0.0800 
    136 H136        1.8327  -16.8960  -51.9152 H         1 UNK         0.1150 
    137 H137        1.7606  -21.0886  -52.8327 H         1 UNK         0.1150 
    138 H138        3.9062  -19.6821  -49.4075 H         1 UNK         0.1150 
    139 H139        3.6513  -22.4558  -51.6185 H         1 UNK         0.0800 
    140 H140        4.0161  -22.0015  -49.9730 H         1 UNK         0.0800 
    141 H141        2.3136  -21.7768  -48.1343 H         1 UNK         0.0800 
    142 H142        0.7913  -21.2157  -48.7700 H         1 UNK         0.0800 
    143 H143        1.1046  -24.0763  -47.7362 H         1 UNK         0.0600 
    144 H144        1.1638  -21.7785  -46.0106 H         1 UNK         0.3000 
    145 H145       -0.1637  -22.9371  -43.3025 H         1 UNK         0.0600 
    146 H146        1.7791  -23.5790  -41.8677 H         1 UNK         0.0600 
    147 H147        1.1689  -24.9329  -42.8042 H         1 UNK         0.0600 
    148 H148        2.6515  -24.1324  -43.2980 H         1 UNK         0.0600 
    149 H149        0.6782  -20.9423  -43.3553 H         1 UNK         0.3000 
    150 H150        3.7444  -19.5535  -43.1434 H         1 UNK         0.0600 
    151 H151        3.8300  -19.3003  -45.6049 H         1 UNK         0.0600 
    152 H152        3.1291  -17.8524  -44.8978 H         1 UNK         0.0600 
    153 H153        2.0929  -19.0477  -45.6752 H         1 UNK         0.0600 
    154 H154        1.1288  -18.3880  -43.4641 H         1 UNK         0.3000 
    155 H155       -0.1295  -19.2193  -40.2341 H         1 UNK         0.0600 
    156 H156       -0.5955  -16.7483  -40.3226 H         1 UNK         0.0600 
    157 H157        0.7147  -16.5580  -41.4896 H         1 UNK         0.0600 
    158 H158        1.0618  -17.1034  -39.8575 H         1 UNK         0.0600 
    159 H159       -1.0877  -17.8961  -42.6500 H         1 UNK         0.3000 
    160 H160       -2.6789  -20.7899  -43.9849 H         1 UNK         0.0600 
    161 H161       -3.9604  -18.3824  -42.5877 H         1 UNK         0.0600 
    162 H162       -4.3043  -20.0733  -42.2413 H         1 UNK         0.0600 
    163 H163       -4.7236  -19.4011  -43.8089 H         1 UNK         0.0600 
    164 H164       -2.6297  -17.9471  -44.6113 H         1 UNK         0.3000 
    165 H165        0.2196  -18.0440  -46.6344 H         1 UNK         0.0600 
    166 H166       -2.6244  -17.9589  -47.7553 H         1 UNK         0.0600 
    167 H167       -1.1532  -17.4095  -48.5634 H         1 UNK         0.0600 
    168 H168       -1.3857  -19.1101  -48.2427 H         1 UNK         0.0600 
    169 H169       -1.8020  -16.0464  -46.3920 H         1 UNK         0.3000 
    170 H170       -1.8048  -14.8962  -43.6347 H         1 UNK         0.0600 
    171 H171        0.3037  -14.5584  -42.5431 H         1 UNK         0.0600 
    172 H172        1.0986  -14.0429  -44.0192 H         1 UNK         0.0600 
    173 H173       -0.1170  -13.0159  -43.2594 H         1 UNK         0.0600 
    174 H174       -0.6321  -13.2928  -45.8073 H         1 UNK         0.3000 
    175 H175       -2.8482  -12.9798  -47.7965 H         1 UNK         0.0600 
    176 H176       -4.5032  -11.1586  -47.4349 H         1 UNK         0.0600 
    177 H177       -5.0865  -12.7101  -46.8607 H         1 UNK         0.0600 
    178 H178       -4.5182  -11.5140  -45.7076 H         1 UNK         0.0600 
    179 H179       -1.3765  -11.3385  -47.6606 H         1 UNK         0.3000 
    180 H180       -0.8873   -8.9734  -46.9793 H         1 UNK         0.0600 
    181 H181        0.4122   -7.7929  -45.2115 H         1 UNK         0.0600 
    182 H182       -1.2458   -8.0297  -44.6848 H         1 UNK         0.0600 
    183 H183        0.0318   -9.0623  -44.0495 H         1 UNK         0.0600 
    184 H184        0.7853  -11.1730  -46.0455 H         1 UNK         0.3000 
    185 H185        3.5910  -10.2101  -48.0282 H         1 UNK         0.0600 
    186 H186        4.6218  -11.3233  -46.0870 H         1 UNK         0.0600 
    187 H187        3.9333   -9.7815  -45.6041 H         1 UNK         0.0600 
    188 H188        3.1016  -11.2750  -45.1982 H         1 UNK         0.0600 
    189 H189        3.1496  -12.2243  -48.7257 H         1 UNK         0.3000 
    190 H190       -1.3160  -21.6399  -46.7579 H         1 UNK         0.3000 
    191 H191       -3.3873  -22.7460  -48.5071 H         1 UNK         0.0600 
    192 H192       -4.8974  -21.1962  -47.3398 H         1 UNK         0.0600 
    193 H193       -3.4578  -20.3599  -47.8863 H         1 UNK         0.0600 
    194 H194       -3.6429  -20.7875  -46.1825 H         1 UNK         0.0600 
    195 H195       -2.3218  -23.2065  -45.1617 H         1 UNK         0.3000 
    196 H196       -4.5734  -24.7169  -44.2491 H         1 UNK         0.0600 
    197 H197       -3.1431  -25.2351  -42.3219 H         1 UNK         0.0600 
    198 H198       -2.9304  -23.5417  -42.7387 H         1 UNK         0.0600 
    199 H199       -1.7006  -24.7282  -43.1826 H         1 UNK         0.0600 
    200 H200       -1.4413  -25.6491  -45.7078 H         1 UNK         0.3000 
    201 H201       -1.9061  -28.4922  -45.6780 H         1 UNK         0.0600 
    202 H202        0.3641  -27.4634  -45.7503 H         1 UNK         0.0600 
    203 H203        0.0110  -26.7490  -47.3230 H         1 UNK         0.0600 
    204 H204        0.1161  -28.4973  -47.1475 H         1 UNK         0.0600 
    205 H205       -3.3890  -26.0782  -47.4882 H         1 UNK         0.3000 
    206 H206       -4.6423  -25.9021  -49.2731 H         1 UNK         0.0600 
    207 H207       -5.7955  -27.9384  -48.3786 H         1 UNK         0.0600 
    208 H208       -5.9114  -27.8112  -50.1254 H         1 UNK         0.0600 
    209 H209       -4.7859  -28.9539  -49.4082 H         1 UNK         0.0600 
    210 H210       -1.7139  -26.0323  -49.5721 H         1 UNK         0.3000 
    211 H211       -1.2450  -26.9937  -52.3150 H         1 UNK         0.0600 
    212 H212        0.5157  -25.5483  -50.2723 H         1 UNK         0.0600 
    213 H213        1.0449  -26.0055  -51.8877 H         1 UNK         0.0600 
    214 H214        0.5862  -27.2445  -50.7278 H         1 UNK         0.0600 
    215 H215       -1.3946  -23.8842  -50.5231 H         1 UNK         0.3000 
    216 H216       -1.7146  -22.3103  -52.9977 H         1 UNK         0.0600 
    217 H217       -1.9592  -20.3973  -51.4168 H         1 UNK         0.0600 
    218 H218       -0.5062  -21.3072  -51.0628 H         1 UNK         0.0600 
    219 H219       -1.9358  -21.4852  -50.0455 H         1 UNK         0.0600 
    220 H220       -3.6311  -23.5973  -50.3650 H         1 UNK         0.3000 
    221 H221       -5.7472  -23.9298  -49.8861 H         1 UNK         0.0600 
    222 H222       -6.3161  -23.6129  -52.8778 H         1 UNK         0.0600 
    223 H223       -5.7736  -25.0961  -52.0936 H         1 UNK         0.0600 
    224 H224       -7.3447  -24.4177  -51.7025 H         1 UNK         0.0600 
    225 H225       -4.8589  -20.8599  -50.8275 H         1 UNK         0.3000 
    226 H226       -6.9943  -19.5512  -49.4522 H         1 UNK         0.0600 
    227 H227       -7.7296  -18.1837  -51.4640 H         1 UNK         0.0600 
    228 H228       -6.7624  -19.2135  -52.5113 H         1 UNK         0.0600 
    229 H229       -8.1605  -19.8707  -51.6638 H         1 UNK         0.0600 
    230 H230       -6.5705  -17.1401  -49.5698 H         1 UNK         0.3000 
    231 H231       -3.8215  -16.4620  -49.1728 H         1 UNK         0.0600 
    232 H232       -4.7295  -14.1299  -49.0316 H         1 UNK         0.0600 
    233 H233       -5.6431  -15.2445  -48.0281 H         1 UNK         0.0600 
    234 H234       -6.3013  -14.7031  -49.5748 H         1 UNK         0.0600 
    235 H235       -2.3967  -15.4349  -50.4548 H         1 UNK         0.3000 
    236 H236       -1.1832  -15.0356  -52.2640 H         1 UNK         0.0600 
    237 H237       -3.7241  -13.7977  -53.4502 H         1 UNK         0.0600 
    238 H238       -2.6885  -12.9976  -52.2731 H         1 UNK         0.0600 
    239 H239       -2.0641  -13.3933  -53.8645 H         1 UNK         0.0600 
    240 H240       -2.7673  -17.6317  -52.2691 H         1 UNK         0.3000 
    241 H241       -3.1826  -19.4093  -53.4842 H         1 UNK         0.0600 
    242 H242       -6.0049  -17.3797  -55.0702 H         1 UNK         0.3800 
    243 H243       -5.0163  -16.9522  -53.6952 H         1 UNK         0.3800 
    244 H244       -1.2682  -18.2175  -55.5646 H         1 UNK         0.0800 
    245 H245       -2.0431  -19.7583  -55.7791 H         1 UNK         0.0800 
    246 H246        1.4281  -18.5456  -54.6083 H         1 UNK         0.0800 
    247 H247        0.3091  -17.6826  -53.5763 H         1 UNK         0.0800 
@<TRIPOS>BOND
     1    1    2 1    
     2    1  127 1    
     3    1  128 1    
     4    1  129 1    
     5    2    3 2    
     6    2    4 am   BACKBONE|DICT|INTERRES
     7    4    5 1    
     8    4  130 1    
     9    5    6 1    
    10    5   65 1    
    11    5  131 1    
    12    6    7 1    
    13    6  132 1    
    14    6  133 1    
    15    7    8 1    
    16    8    9 1    
    17    8  134 1    
    18    8  135 1    
    19    9   10 ar   
    20    9   14 ar   
    21   10   11 ar   
    22   10  136 1    
    23   11   12 ar   
    24   11  126 1    
    25   12   13 ar   
    26   12  137 1    
    27   13   14 ar   
    28   13   15 1    
    29   14  138 1    
    30   15   16 1    
    31   15  139 1    
    32   15  140 1    
    33   16   17 1    
    34   17   18 1    
    35   17  141 1    
    36   17  142 1    
    37   18   19 1    
    38   18   67 1    
    39   18  143 1    
    40   19   20 am   BACKBONE|DICT|INTERRES
    41   19  144 1    
    42   20   21 2    
    43   20   22 1    
    44   22   23 1    
    45   22   24 1    
    46   22  145 1    
    47   23  146 1    
    48   23  147 1    
    49   23  148 1    
    50   24   25 am   BACKBONE|DICT|INTERRES
    51   24  149 1    
    52   25   26 2    
    53   25   27 1    
    54   27   28 1    
    55   27   29 1    
    56   27  150 1    
    57   28  151 1    
    58   28  152 1    
    59   28  153 1    
    60   29   30 am   BACKBONE|DICT|INTERRES
    61   29  154 1    
    62   30   31 2    
    63   30   32 1    
    64   32   33 1    
    65   32   34 1    
    66   32  155 1    
    67   33  156 1    
    68   33  157 1    
    69   33  158 1    
    70   34   35 am   BACKBONE|DICT|INTERRES
    71   34  159 1    
    72   35   36 2    
    73   35   37 1    
    74   37   38 1    
    75   37   39 1    
    76   37  160 1    
    77   38  161 1    
    78   38  162 1    
    79   38  163 1    
    80   39   40 am   BACKBONE|DICT|INTERRES
    81   39  164 1    
    82   40   41 2    
    83   40   42 1    
    84   42   43 1    
    85   42   44 1    
    86   42  165 1    
    87   43  166 1    
    88   43  167 1    
    89   43  168 1    
    90   44   45 am   BACKBONE|DICT|INTERRES
    91   44  169 1    
    92   45   46 2    
    93   45   47 1    
    94   47   48 1    
    95   47   49 1    
    96   47  170 1    
    97   48  171 1    
    98   48  172 1    
    99   48  173 1    
   100   49   50 am   BACKBONE|DICT|INTERRES
   101   49  174 1    
   102   50   51 2    
   103   50   52 1    
   104   52   53 1    
   105   52   54 1    
   106   52  175 1    
   107   53  176 1    
   108   53  177 1    
   109   53  178 1    
   110   54   55 am   BACKBONE|DICT|INTERRES
   111   54  179 1    
   112   55   56 2    
   113   55   57 1    
   114   57   58 1    
   115   57   59 1    
   116   57  180 1    
   117   58  181 1    
   118   58  182 1    
   119   58  183 1    
   120   59   60 am   BACKBONE|DICT|INTERRES
   121   59  184 1    
   122   60   61 2    
   123   60   62 1    
   124   62   63 1    
   125   62   64 1    
   126   62  185 1    
   127   63  186 1    
   128   63  187 1    
   129   63  188 1    
   130   64   65 am   BACKBONE|DICT|INTERRES
   131   64  189 1    
   132   65   66 2    
   133   67   68 2    
   134   67   69 am   BACKBONE|DICT|INTERRES
   135   69   70 1    
   136   69  190 1    
   137   70   71 1    
   138   70   72 1    
   139   70  191 1    
   140   71  192 1    
   141   71  193 1    
   142   71  194 1    
   143   72   73 2    
   144   72   74 am   BACKBONE|DICT|INTERRES
   145   74   75 1    
   146   74  195 1    
   147   75   76 1    
   148   75   77 1    
   149   75  196 1    
   150   76  197 1    
   151   76  198 1    
   152   76  199 1    
   153   77   78 2    
   154   77   79 am   BACKBONE|DICT|INTERRES
   155   79   80 1    
   156   79  200 1    
   157   80   81 1    
   158   80   82 1    
   159   80  201 1    
   160   81  202 1    
   161   81  203 1    
   162   81  204 1    
   163   82   83 2    
   164   82   84 am   BACKBONE|DICT|INTERRES
   165   84   85 1    
   166   84  205 1    
   167   85   86 1    
   168   85   87 1    
   169   85  206 1    
   170   86  207 1    
   171   86  208 1    
   172   86  209 1    
   173   87   88 2    
   174   87   89 am   BACKBONE|DICT|INTERRES
   175   89   90 1    
   176   89  210 1    
   177   90   91 1    
   178   90   92 1    
   179   90  211 1    
   180   91  212 1    
   181   91  213 1    
   182   91  214 1    
   183   92   93 2    
   184   92   94 am   BACKBONE|DICT|INTERRES
   185   94   95 1    
   186   94  215 1    
   187   95   96 1    
   188   95   97 1    
   189   95  216 1    
   190   96  217 1    
   191   96  218 1    
   192   96  219 1    
   193   97   98 2    
   194   97   99 am   BACKBONE|DICT|INTERRES
   195   99  100 1    
   196   99  220 1    
   197  100  101 1    
   198  100  102 1    
   199  100  221 1    
   200  101  222 1    
   201  101  223 1    
   202  101  224 1    
   203  102  103 2    
   204  102  104 am   BACKBONE|DICT|INTERRES
   205  104  105 1    
   206  104  225 1    
   207  105  106 1    
   208  105  107 1    
   209  105  226 1    
   210  106  227 1    
   211  106  228 1    
   212  106  229 1    
   213  107  108 2    
   214  107  109 am   BACKBONE|DICT|INTERRES
   215  109  110 1    
   216  109  230 1    
   217  110  111 1    
   218  110  112 1    
   219  110  231 1    
   220  111  232 1    
   221  111  233 1    
   222  111  234 1    
   223  112  113 2    
   224  112  114 am   BACKBONE|DICT|INTERRES
   225  114  115 1    
   226  114  235 1    
   227  115  116 1    
   228  115  117 1    
   229  115  236 1    
   230  116  237 1    
   231  116  238 1    
   232  116  239 1    
   233  117  118 2    
   234  117  119 am   BACKBONE|DICT|INTERRES
   235  119  120 1    
   236  119  240 1    
   237  120  121 1    
   238  120  124 1    
   239  120  241 1    
   240  121  122 am   BACKBONE|DICT|INTERRES
   241  121  123 2    
   242  122  242 1    
   243  122  243 1    
   244  124  125 1    
   245  124  244 1    
   246  124  245 1    
   247  125  126 1    
   248  126  246 1    
   249  126  247 1    
@<TRIPOS>SUBSTRUCTURE
     1 UNK         1 GROUP             0       ****    0 ROOT    
