@<TRIPOS>MOLECULE
3R540
247   249    1
SMALL
USER_CHARGES


@<TRIPOS>ATOM
      1 CA          4.0582  -16.8796  -46.3753 C.3       0 UNK        -0.1800 
      2 C           3.6066  -15.4303  -46.2815 C.2       0 UNK         0.5000 
      3 O           3.6992  -14.8307  -45.2120 O.2       0 UNK        -0.5000 
      4 N           3.1489  -14.8551  -47.4021 N.am      1 UNK        -0.5000 
      5 CA          2.6080  -13.4895  -47.5191 C.3       1 UNK         0.1400 
      6 C6          2.0682  -13.1966  -48.9426 C.3       23 UNK        -0.0398 
      7 S7          0.7942  -14.3924  -49.4709 S.3       23 UNK        -0.2404 
      8 C8          1.6866  -15.3782  -50.7149 C.3       23 UNK        -0.0205 
      9 C9          1.1840  -16.8130  -50.7282 C.ar      23 UNK        -0.0193 
     10 C10         0.0264  -17.1527  -51.4351 C.ar      23 UNK        -0.1150 
     11 C11        -0.4544  -18.4666  -51.4238 C.ar      23 UNK        -0.0193 
     12 C12         0.2424  -19.4439  -50.7058 C.ar      23 UNK        -0.1150 
     13 C13         1.4125  -19.1209  -50.0123 C.ar      23 UNK        -0.0193 
     14 C14         1.8778  -17.8037  -50.0282 C.ar      23 UNK        -0.1150 
     15 C15         2.1810  -20.1955  -49.2585 C.3       23 UNK        -0.0205 
     16 S16         2.0971  -19.9318  -47.4610 S.3       23 UNK        -0.2404 
     17 C17         2.4701  -21.5978  -46.8254 C.3       23 UNK        -0.0398 
     18 CA          1.2389  -22.4182  -46.3648 C.3       11 UNK         0.1400 
     19 N           0.5707  -21.8833  -45.1736 N.am      11 UNK        -0.5000 
     20 C          -0.2469  -22.6231  -44.4077 C.2       10 UNK         0.5000 
     21 O          -0.4970  -23.8093  -44.6316 O.2       10 UNK        -0.5000 
     22 CA         -0.9251  -21.9289  -43.2135 C.3       10 UNK         0.1400 
     23 CB          0.0654  -21.7189  -42.0584 C.3       10 UNK        -0.1800 
     24 N          -1.5525  -20.6580  -43.5716 N.am      10 UNK        -0.5000 
     25 C          -2.5782  -20.5340  -44.4261 C.2       9 UNK         0.5000 
     26 O          -3.1114  -21.4841  -44.9984 O.2       9 UNK        -0.5000 
     27 CA         -3.0714  -19.1056  -44.7200 C.3       9 UNK         0.1400 
     28 CB         -4.0021  -18.6066  -43.6048 C.3       9 UNK        -0.1800 
     29 N          -1.9759  -18.1557  -44.9091 N.am      9 UNK        -0.5000 
     30 C          -1.0571  -18.2493  -45.8809 C.2       8 UNK         0.5000 
     31 O          -1.0612  -19.1289  -46.7378 O.2       8 UNK        -0.5000 
     32 CA          0.0821  -17.2178  -45.8583 C.3       8 UNK         0.1400 
     33 CB         -0.4155  -15.8604  -46.3693 C.3       8 UNK        -0.1800 
     34 N           0.6723  -17.0676  -44.5279 N.am      8 UNK        -0.5000 
     35 C           1.2365  -18.0573  -43.8180 C.2       7 UNK         0.5000 
     36 O           1.3834  -19.2088  -44.2273 O.2       7 UNK        -0.5000 
     37 CA          1.6507  -17.7169  -42.3774 C.3       7 UNK         0.1400 
     38 CB          3.0062  -16.9952  -42.3411 C.3       7 UNK        -0.1800 
     39 N           0.6351  -16.9085  -41.7031 N.am      7 UNK        -0.5000 
     40 C          -0.5801  -17.3589  -41.3576 C.2       6 UNK         0.5000 
     41 O          -0.9518  -18.5208  -41.5217 O.2       6 UNK        -0.5000 
     42 CA         -1.5558  -16.3242  -40.7675 C.3       6 UNK         0.1400 
     43 CB         -1.3043  -16.1377  -39.2638 C.3       6 UNK        -0.1800 
     44 N          -1.4636  -15.0270  -41.4393 N.am      6 UNK        -0.5000 
     45 C          -1.8341  -14.8041  -42.7087 C.2       5 UNK         0.5000 
     46 O          -2.3558  -15.6582  -43.4241 O.2       5 UNK        -0.5000 
     47 CA         -1.5263  -13.4078  -43.2871 C.3       5 UNK         0.1400 
     48 CB         -2.6948  -12.4460  -43.0267 C.3       5 UNK        -0.1800 
     49 N          -0.2899  -12.8290  -42.7510 N.am      5 UNK        -0.5000 
     50 C           0.9293  -13.3480  -42.9457 C.2       4 UNK         0.5000 
     51 O           1.1402  -14.3425  -43.6406 O.2       4 UNK        -0.5000 
     52 CA          2.0759  -12.7064  -42.1556 C.3       4 UNK         0.1400 
     53 CB          2.0362  -13.2141  -40.6974 C.3       4 UNK        -0.1800 
     54 N           3.3631  -13.0302  -42.7712 N.am      4 UNK        -0.5000 
     55 C           4.5326  -12.4751  -42.4240 C.2       3 UNK         0.5000 
     56 O           4.6406  -11.5707  -41.5944 O.2       3 UNK        -0.5000 
     57 CA          5.7967  -13.0054  -43.1157 C.3       3 UNK         0.1400 
     58 CB          6.0558  -14.4813  -42.7668 C.3       3 UNK        -0.1800 
     59 N           5.7019  -12.8457  -44.5631 N.am      3 UNK        -0.5000 
     60 C           6.1748  -11.7919  -45.2439 C.2       2 UNK         0.5000 
     61 O           6.7589  -10.8451  -44.7149 O.2       2 UNK        -0.5000 
     62 CA          5.9883  -11.7886  -46.7753 C.3       2 UNK         0.1400 
     63 CB          7.2884  -12.2162  -47.4741 C.3       2 UNK        -0.1800 
     64 N           4.9044  -12.6593  -47.2281 N.am      2 UNK        -0.5000 
     65 C           3.6000  -12.3861  -47.0921 C.2       1 UNK         0.5000 
     66 O           3.1695  -11.3258  -46.6369 O.2       1 UNK        -0.5000 
     67 C           0.2428  -22.7142  -47.5051 C.2       11 UNK         0.5000 
     68 O           0.4071  -23.7237  -48.1884 O.2       11 UNK        -0.5000 
     69 N          -0.7927  -21.8759  -47.6676 N.am      12 UNK        -0.5000 
     70 CA         -1.8716  -22.0874  -48.6318 C.3       12 UNK         0.1400 
     71 CB         -2.7751  -20.8521  -48.7040 C.3       12 UNK        -0.1800 
     72 C          -2.6997  -23.3431  -48.3234 C.2       12 UNK         0.5000 
     73 O          -3.0112  -24.0921  -49.2469 O.2       12 UNK        -0.5000 
     74 N          -3.0016  -23.5827  -47.0395 N.am      13 UNK        -0.5000 
     75 CA         -3.6747  -24.7934  -46.5681 C.3       13 UNK         0.1400 
     76 CB         -4.0257  -24.6510  -45.0797 C.3       13 UNK        -0.1800 
     77 C          -2.8432  -26.0648  -46.8186 C.2       13 UNK         0.5000 
     78 O          -3.3977  -27.0697  -47.2643 O.2       13 UNK        -0.5000 
     79 N          -1.5270  -25.9857  -46.5735 N.am      14 UNK        -0.5000 
     80 CA         -0.5685  -27.0605  -46.8419 C.3       14 UNK         0.1400 
     81 CB          0.7837  -26.7119  -46.2016 C.3       14 UNK        -0.1800 
     82 C          -0.4040  -27.3583  -48.3461 C.2       14 UNK         0.5000 
     83 O          -0.3182  -28.5253  -48.7294 O.2       14 UNK        -0.5000 
     84 N          -0.3871  -26.3022  -49.1703 N.am      15 UNK        -0.5000 
     85 CA         -0.2966  -26.3707  -50.6311 C.3       15 UNK         0.1400 
     86 CB          0.1538  -24.9989  -51.1601 C.3       15 UNK        -0.1800 
     87 C          -1.6094  -26.7957  -51.3208 C.2       15 UNK         0.5000 
     88 O          -1.5804  -27.1104  -52.5112 O.2       15 UNK        -0.5000 
     89 N          -2.7269  -26.7711  -50.5795 N.am      16 UNK        -0.5000 
     90 CA         -4.1072  -26.9680  -51.0358 C.3       16 UNK         0.1400 
     91 CB         -4.3255  -28.3986  -51.5717 C.3       16 UNK        -0.1800 
     92 C          -4.5640  -25.8639  -52.0156 C.2       16 UNK         0.5000 
     93 O          -5.2590  -26.1430  -52.9949 O.2       16 UNK        -0.5000 
     94 N          -4.1564  -24.6247  -51.7184 N.am      17 UNK        -0.5000 
     95 CA         -4.5564  -23.3961  -52.3945 C.3       17 UNK         0.1400 
     96 CB         -3.3096  -22.5059  -52.5747 C.3       17 UNK        -0.1800 
     97 C          -5.6940  -22.7263  -51.5938 C.2       17 UNK         0.5000 
     98 O          -6.5917  -23.4261  -51.1198 O.2       17 UNK        -0.5000 
     99 N          -5.6554  -21.3909  -51.4753 N.am      18 UNK        -0.5000 
    100 CA        -6.6631  -20.5222  -50.8545 C.3       18 UNK         0.1400 
    101 CB        -6.7916  -20.7959  -49.3403 C.3       18 UNK        -0.1800 
    102 C         -8.0149  -20.5586  -51.6011 C.2       18 UNK         0.5000 
    103 O         -9.0737  -20.4935  -50.9734 O.2       18 UNK        -0.5000 
    104 N         -7.9456  -20.6702  -52.9333 N.am      19 UNK        -0.5000 
    105 CA        -9.0796  -20.7497  -53.8504 C.3       19 UNK         0.1400 
    106 CB        -9.8693  -22.0628  -53.6628 C.3       19 UNK        -0.1800 
    107 C         -8.5741  -20.6002  -55.2908 C.2       19 UNK         0.5000 
    108 O         -8.8872  -19.6067  -55.9469 O.2       19 UNK        -0.5000 
    109 N         -7.7827  -21.5825  -55.7504 N.am      20 UNK        -0.5000 
    110 CA        -7.1647  -21.6021  -57.0832 C.3       20 UNK         0.1400 
    111 CB        -6.5970  -23.0036  -57.3555 C.3       20 UNK        -0.1800 
    112 C         -6.0671  -20.5320  -57.2380 C.2       20 UNK         0.5000 
    113 O         -5.9146  -19.9482  -58.3116 O.2       20 UNK        -0.5000 
    114 N         -5.3599  -20.2782  -56.1359 N.am      21 UNK        -0.5000 
    115 CA        -4.4915  -19.1376  -55.8968 C.3       21 UNK         0.1400 
    116 CB        -3.0230  -19.5715  -56.0295 C.3       21 UNK        -0.1800 
    117 C         -4.7986  -18.6592  -54.4716 C.2       21 UNK         0.5000 
    118 O         -5.2283  -19.4773  -53.6508 O.2       21 UNK        -0.5000 
    119 N         -4.5625  -17.3662  -54.2161 N.am      22 UNK        -0.5000 
    120 CA        -4.7933  -16.6479  -52.9476 C.3       22 UNK         0.1400 
    121 C         -6.2104  -16.8375  -52.3158 C.2       22 UNK         0.5000 
    122 N         -6.3626  -16.7335  -51.0015 N.am      22 UNK        -0.7600 
    123 O         -7.2004  -17.0103  -53.0229 O.2       22 UNK        -0.5000 
    124 C124       -3.5870  -16.7398  -51.9648 C.3       23 UNK        -0.0398 
    125 S125       -3.2319  -18.4057  -51.3029 S.3       23 UNK        -0.2404 
    126 C126       -1.7089  -18.8448  -52.2006 C.3       23 UNK        -0.0205 
    127 H127        5.0961  -16.9695  -46.0557 H         1 UNK         0.0600 
    128 H128        3.9798  -17.2660  -47.3911 H         1 UNK         0.0600 
    129 H129        3.4477  -17.5063  -45.7266 H         1 UNK         0.0600 
    130 H130        3.0895  -15.4083  -48.2431 H         1 UNK         0.3000 
    131 H131        1.7715  -13.4197  -46.8221 H         1 UNK         0.0600 
    132 H132        1.6116  -12.2056  -48.9743 H         1 UNK         0.0800 
    133 H133        2.8810  -13.1742  -49.6706 H         1 UNK         0.0800 
    134 H134        1.5542  -14.9238  -51.6979 H         1 UNK         0.0800 
    135 H135        2.7586  -15.3663  -50.5141 H         1 UNK         0.0800 
    136 H136       -0.5007  -16.3877  -51.9851 H         1 UNK         0.1150 
    137 H137       -0.1228  -20.4606  -50.6943 H         1 UNK         0.1150 
    138 H138        2.7784  -17.5532  -49.4871 H         1 UNK         0.1150 
    139 H139        1.7869  -21.1817  -49.5072 H         1 UNK         0.0800 
    140 H140        3.2248  -20.1908  -49.5751 H         1 UNK         0.0800 
    141 H141        3.1562  -21.4809  -45.9855 H         1 UNK         0.0800 
    142 H142        3.0294  -22.1538  -47.5796 H         1 UNK         0.0800 
    143 H143        1.6412  -23.3903  -46.0705 H         1 UNK         0.0600 
    144 H144        0.7428  -20.9074  -44.9425 H         1 UNK         0.3000 
    145 H145       -1.7152  -22.5928  -42.8563 H         1 UNK         0.0600 
    146 H146       -0.4346  -21.3083  -41.1810 H         1 UNK         0.0600 
    147 H147        0.5223  -22.6633  -41.7602 H         1 UNK         0.0600 
    148 H148        0.8704  -21.0376  -42.3327 H         1 UNK         0.0600 
    149 H149       -1.1882  -19.8265  -43.1194 H         1 UNK         0.3000 
    150 H150       -3.6434  -19.1384  -45.6494 H         1 UNK         0.0600 
    151 H151       -4.8380  -19.2917  -43.4581 H         1 UNK         0.0600 
    152 H152       -4.4204  -17.6300  -43.8490 H         1 UNK         0.0600 
    153 H153       -3.4789  -18.5168  -42.6526 H         1 UNK         0.0600 
    154 H154       -1.9339  -17.3704  -44.2662 H         1 UNK         0.3000 
    155 H155        0.8696  -17.5558  -46.5313 H         1 UNK         0.0600 
    156 H156       -1.2541  -15.4842  -45.7865 H         1 UNK         0.0600 
    157 H157       -0.7500  -15.9404  -47.4040 H         1 UNK         0.0600 
    158 H158        0.3749  -15.1146  -46.3344 H         1 UNK         0.0600 
    159 H159        0.6617  -16.1326  -44.1298 H         1 UNK         0.3000 
    160 H160        1.7553  -18.6558  -41.8296 H         1 UNK         0.0600 
    161 H161        2.9692  -16.0374  -42.8575 H         1 UNK         0.0600 
    162 H162        3.7790  -17.5941  -42.8245 H         1 UNK         0.0600 
    163 H163        3.3295  -16.8106  -41.3167 H         1 UNK         0.0600 
    164 H164        0.8416  -15.9292  -41.5835 H         1 UNK         0.3000 
    165 H165       -2.5698  -16.7074  -40.9003 H         1 UNK         0.0600 
    166 H166       -2.0374  -15.4622  -38.8226 H         1 UNK         0.0600 
    167 H167       -1.3809  -17.0888  -38.7352 H         1 UNK         0.0600 
    168 H168       -0.3114  -15.7314  -39.0667 H         1 UNK         0.0600 
    169 H169       -1.0582  -14.2669  -40.9145 H         1 UNK         0.3000 
    170 H170       -1.4069  -13.5144  -44.3670 H         1 UNK         0.0600 
    171 H171       -3.6249  -12.8434  -43.4354 H         1 UNK         0.0600 
    172 H172       -2.8500  -12.2781  -41.9603 H         1 UNK         0.0600 
    173 H173       -2.5217  -11.4784  -43.4982 H         1 UNK         0.0600 
    174 H174       -0.3915  -12.0150  -42.1618 H         1 UNK         0.3000 
    175 H175        1.9404  -11.6232  -42.1743 H         1 UNK         0.0600 
    176 H176        2.2384  -14.2843  -40.6409 H         1 UNK         0.0600 
    177 H177        2.7699  -12.7058  -40.0725 H         1 UNK         0.0600 
    178 H178        1.0621  -13.0384  -40.2397 H         1 UNK         0.0600 
    179 H179        3.3269  -13.7358  -43.5043 H         1 UNK         0.3000 
    180 H180        6.6466  -12.4336  -42.7366 H         1 UNK         0.0600 
    181 H181        5.2680  -15.1377  -43.1341 H         1 UNK         0.0600 
    182 H182        6.1193  -14.6204  -41.6869 H         1 UNK         0.0600 
    183 H183        6.9980  -14.8240  -43.1944 H         1 UNK         0.0600 
    184 H184        5.1554  -13.5486  -45.0503 H         1 UNK         0.3000 
    185 H185        5.7603  -10.7641  -47.0774 H         1 UNK         0.0600 
    186 H186        8.1180  -11.5691  -47.1864 H         1 UNK         0.0600 
    187 H187        7.5658  -13.2393  -47.2169 H         1 UNK         0.0600 
    188 H188        7.1923  -12.1558  -48.5584 H         1 UNK         0.0600 
    189 H189        5.1693  -13.5577  -47.6050 H         1 UNK         0.3000 
    190 H190       -0.8374  -21.0218  -47.1168 H         1 UNK         0.3000 
    191 H191       -1.4132  -22.2261  -49.6124 H         1 UNK         0.0600 
    192 H192       -2.2034  -19.9653  -48.9755 H         1 UNK         0.0600 
    193 H193       -3.5485  -20.9805  -49.4607 H         1 UNK         0.0600 
    194 H194       -3.2692  -20.6542  -47.7525 H         1 UNK         0.0600 
    195 H195       -2.7608  -22.8907  -46.3356 H         1 UNK         0.3000 
    196 H196       -4.6076  -24.8931  -47.1269 H         1 UNK         0.0600 
    197 H197       -4.5298  -25.5444  -44.7092 H         1 UNK         0.0600 
    198 H198       -4.6958  -23.8074  -44.9134 H         1 UNK         0.0600 
    199 H199       -3.1368  -24.4964  -44.4677 H         1 UNK         0.0600 
    200 H200       -1.1571  -25.1307  -46.1725 H         1 UNK         0.3000 
    201 H201       -0.9436  -27.9679  -46.3640 H         1 UNK         0.0600 
    202 H202        0.6817  -26.5482  -45.1286 H         1 UNK         0.0600 
    203 H203        1.2168  -25.8116  -46.6370 H         1 UNK         0.0600 
    204 H204        1.5012  -27.5213  -46.3414 H         1 UNK         0.0600 
    205 H205       -0.3821  -25.3698  -48.7648 H         1 UNK         0.3000 
    206 H206        0.4656  -27.1062  -50.8959 H         1 UNK         0.0600 
    207 H207        1.1129  -24.7059  -50.7327 H         1 UNK         0.0600 
    208 H208        0.2734  -25.0144  -52.2441 H         1 UNK         0.0600 
    209 H209       -0.5719  -24.2206  -50.9214 H         1 UNK         0.0600 
    210 H210       -2.6318  -26.4598  -49.6217 H         1 UNK         0.3000 
    211 H211       -4.7311  -26.8556  -50.1478 H         1 UNK         0.0600 
    212 H212       -3.7921  -28.5708  -52.5066 H         1 UNK         0.0600 
    213 H213       -5.3830  -28.5845  -51.7625 H         1 UNK         0.0600 
    214 H214       -3.9904  -29.1443  -50.8507 H         1 UNK         0.0600 
    215 H215       -3.6474  -24.4936  -50.8448 H         1 UNK         0.3000 
    216 H216       -4.9517  -23.6271  -53.3856 H         1 UNK         0.0600 
    217 H217       -2.9123  -22.1660  -51.6181 H         1 UNK         0.0600 
    218 H218       -3.5308  -21.6263  -53.1795 H         1 UNK         0.0600 
    219 H219       -2.5142  -23.0486  -53.0861 H         1 UNK         0.0600 
    220 H220       -4.9195  -20.8868  -51.9555 H         1 UNK         0.3000 
    221 H221       -6.2845  -19.5073  -50.9666 H         1 UNK         0.0600 
    222 H222       -7.2198  -21.7777  -49.1378 H         1 UNK         0.0600 
    223 H223       -5.8242  -20.7427  -48.8431 H         1 UNK         0.0600 
    224 H224       -7.4367  -20.0559  -48.8656 H         1 UNK         0.0600 
    225 H225       -7.0285  -20.5887  -53.3565 H         1 UNK         0.3000 
    226 H226       -9.7460  -19.9094  -53.6457 H         1 UNK         0.0600 
    227 H227      -10.3872  -22.0822  -52.7041 H         1 UNK         0.0600 
    228 H228      -10.6294  -22.1768  -54.4368 H         1 UNK         0.0600 
    229 H229       -9.2206  -22.9382  -53.7043 H         1 UNK         0.0600 
    230 H230       -7.6003  -22.3776  -55.1559 H         1 UNK         0.3000 
    231 H231       -7.9398  -21.3953  -57.8241 H         1 UNK         0.0600 
    232 H232       -5.8286  -23.2764  -56.6310 H         1 UNK         0.0600 
    233 H233       -6.1460  -23.0553  -58.3474 H         1 UNK         0.0600 
    234 H234       -7.3803  -23.7608  -57.3162 H         1 UNK         0.0600 
    235 H235       -5.5981  -20.7769  -55.2904 H         1 UNK         0.3000 
    236 H236       -4.7128  -18.3340  -56.6024 H         1 UNK         0.0600 
    237 H237       -2.8154  -19.9533  -57.0292 H         1 UNK         0.0600 
    238 H238       -2.3499  -18.7315  -55.8545 H         1 UNK         0.0600 
    239 H239       -2.7673  -20.3532  -55.3130 H         1 UNK         0.0600 
    240 H240       -4.2306  -16.7884  -54.9743 H         1 UNK         0.3000 
    241 H241       -4.8226  -15.6029  -53.2582 H         1 UNK         0.0600 
    242 H242       -7.2879  -16.8112  -50.6105 H         1 UNK         0.3800 
    243 H243       -5.5754  -16.5925  -50.3891 H         1 UNK         0.3800 
    244 H244       -2.7015  -16.3610  -52.4728 H         1 UNK         0.0800 
    245 H245       -3.7270  -16.0629  -51.1215 H         1 UNK         0.0800 
    246 H246       -1.6990  -18.3771  -53.1859 H         1 UNK         0.0800 
    247 H247       -1.7198  -19.9196  -52.3849 H         1 UNK         0.0800 
@<TRIPOS>BOND
     1    1    2 1    
     2    1  127 1    
     3    1  128 1    
     4    1  129 1    
     5    2    3 2    
     6    2    4 am   BACKBONE|DICT|INTERRES
     7    4    5 1    
     8    4  130 1    
     9    5    6 1    
    10    5   65 1    
    11    5  131 1    
    12    6    7 1    
    13    6  132 1    
    14    6  133 1    
    15    7    8 1    
    16    8    9 1    
    17    8  134 1    
    18    8  135 1    
    19    9   10 ar   
    20    9   14 ar   
    21   10   11 ar   
    22   10  136 1    
    23   11   12 ar   
    24   11  126 1    
    25   12   13 ar   
    26   12  137 1    
    27   13   14 ar   
    28   13   15 1    
    29   14  138 1    
    30   15   16 1    
    31   15  139 1    
    32   15  140 1    
    33   16   17 1    
    34   17   18 1    
    35   17  141 1    
    36   17  142 1    
    37   18   19 1    
    38   18   67 1    
    39   18  143 1    
    40   19   20 am   BACKBONE|DICT|INTERRES
    41   19  144 1    
    42   20   21 2    
    43   20   22 1    
    44   22   23 1    
    45   22   24 1    
    46   22  145 1    
    47   23  146 1    
    48   23  147 1    
    49   23  148 1    
    50   24   25 am   BACKBONE|DICT|INTERRES
    51   24  149 1    
    52   25   26 2    
    53   25   27 1    
    54   27   28 1    
    55   27   29 1    
    56   27  150 1    
    57   28  151 1    
    58   28  152 1    
    59   28  153 1    
    60   29   30 am   BACKBONE|DICT|INTERRES
    61   29  154 1    
    62   30   31 2    
    63   30   32 1    
    64   32   33 1    
    65   32   34 1    
    66   32  155 1    
    67   33  156 1    
    68   33  157 1    
    69   33  158 1    
    70   34   35 am   BACKBONE|DICT|INTERRES
    71   34  159 1    
    72   35   36 2    
    73   35   37 1    
    74   37   38 1    
    75   37   39 1    
    76   37  160 1    
    77   38  161 1    
    78   38  162 1    
    79   38  163 1    
    80   39   40 am   BACKBONE|DICT|INTERRES
    81   39  164 1    
    82   40   41 2    
    83   40   42 1    
    84   42   43 1    
    85   42   44 1    
    86   42  165 1    
    87   43  166 1    
    88   43  167 1    
    89   43  168 1    
    90   44   45 am   BACKBONE|DICT|INTERRES
    91   44  169 1    
    92   45   46 2    
    93   45   47 1    
    94   47   48 1    
    95   47   49 1    
    96   47  170 1    
    97   48  171 1    
    98   48  172 1    
    99   48  173 1    
   100   49   50 am   BACKBONE|DICT|INTERRES
   101   49  174 1    
   102   50   51 2    
   103   50   52 1    
   104   52   53 1    
   105   52   54 1    
   106   52  175 1    
   107   53  176 1    
   108   53  177 1    
   109   53  178 1    
   110   54   55 am   BACKBONE|DICT|INTERRES
   111   54  179 1    
   112   55   56 2    
   113   55   57 1    
   114   57   58 1    
   115   57   59 1    
   116   57  180 1    
   117   58  181 1    
   118   58  182 1    
   119   58  183 1    
   120   59   60 am   BACKBONE|DICT|INTERRES
   121   59  184 1    
   122   60   61 2    
   123   60   62 1    
   124   62   63 1    
   125   62   64 1    
   126   62  185 1    
   127   63  186 1    
   128   63  187 1    
   129   63  188 1    
   130   64   65 am   BACKBONE|DICT|INTERRES
   131   64  189 1    
   132   65   66 2    
   133   67   68 2    
   134   67   69 am   BACKBONE|DICT|INTERRES
   135   69   70 1    
   136   69  190 1    
   137   70   71 1    
   138   70   72 1    
   139   70  191 1    
   140   71  192 1    
   141   71  193 1    
   142   71  194 1    
   143   72   73 2    
   144   72   74 am   BACKBONE|DICT|INTERRES
   145   74   75 1    
   146   74  195 1    
   147   75   76 1    
   148   75   77 1    
   149   75  196 1    
   150   76  197 1    
   151   76  198 1    
   152   76  199 1    
   153   77   78 2    
   154   77   79 am   BACKBONE|DICT|INTERRES
   155   79   80 1    
   156   79  200 1    
   157   80   81 1    
   158   80   82 1    
   159   80  201 1    
   160   81  202 1    
   161   81  203 1    
   162   81  204 1    
   163   82   83 2    
   164   82   84 am   BACKBONE|DICT|INTERRES
   165   84   85 1    
   166   84  205 1    
   167   85   86 1    
   168   85   87 1    
   169   85  206 1    
   170   86  207 1    
   171   86  208 1    
   172   86  209 1    
   173   87   88 2    
   174   87   89 am   BACKBONE|DICT|INTERRES
   175   89   90 1    
   176   89  210 1    
   177   90   91 1    
   178   90   92 1    
   179   90  211 1    
   180   91  212 1    
   181   91  213 1    
   182   91  214 1    
   183   92   93 2    
   184   92   94 am   BACKBONE|DICT|INTERRES
   185   94   95 1    
   186   94  215 1    
   187   95   96 1    
   188   95   97 1    
   189   95  216 1    
   190   96  217 1    
   191   96  218 1    
   192   96  219 1    
   193   97   98 2    
   194   97   99 am   BACKBONE|DICT|INTERRES
   195   99  100 1    
   196   99  220 1    
   197  100  101 1    
   198  100  102 1    
   199  100  221 1    
   200  101  222 1    
   201  101  223 1    
   202  101  224 1    
   203  102  103 2    
   204  102  104 am   BACKBONE|DICT|INTERRES
   205  104  105 1    
   206  104  225 1    
   207  105  106 1    
   208  105  107 1    
   209  105  226 1    
   210  106  227 1    
   211  106  228 1    
   212  106  229 1    
   213  107  108 2    
   214  107  109 am   BACKBONE|DICT|INTERRES
   215  109  110 1    
   216  109  230 1    
   217  110  111 1    
   218  110  112 1    
   219  110  231 1    
   220  111  232 1    
   221  111  233 1    
   222  111  234 1    
   223  112  113 2    
   224  112  114 am   BACKBONE|DICT|INTERRES
   225  114  115 1    
   226  114  235 1    
   227  115  116 1    
   228  115  117 1    
   229  115  236 1    
   230  116  237 1    
   231  116  238 1    
   232  116  239 1    
   233  117  118 2    
   234  117  119 am   BACKBONE|DICT|INTERRES
   235  119  120 1    
   236  119  240 1    
   237  120  121 1    
   238  120  124 1    
   239  120  241 1    
   240  121  122 am   BACKBONE|DICT|INTERRES
   241  121  123 2    
   242  122  242 1    
   243  122  243 1    
   244  124  125 1    
   245  124  244 1    
   246  124  245 1    
   247  125  126 1    
   248  126  246 1    
   249  126  247 1    
@<TRIPOS>SUBSTRUCTURE
     1 UNK         1 GROUP             0       ****    0 ROOT    
