@<TRIPOS>MOLECULE
3R540
247   249    1
SMALL
USER_CHARGES


@<TRIPOS>ATOM
      1 CA         -5.5114   -9.8680  -43.6131 C.3       0 UNK        -0.1800 
      2 C          -4.6205   -9.7782  -44.8444 C.2       0 UNK         0.5000 
      3 O          -4.6363   -8.7620  -45.5402 O.2       0 UNK        -0.5000 
      4 N          -3.8535  -10.8391  -45.1198 N.am      1 UNK        -0.5000 
      5 CA         -2.8744  -10.9108  -46.2080 C.3       1 UNK         0.1400 
      6 C6         -2.5389  -12.3773  -46.5816 C.3       23 UNK        -0.0398 
      7 S7         -1.9299  -13.3937  -45.1885 S.3       23 UNK        -0.2404 
      8 C8         -3.0236  -14.8461  -45.2727 C.3       23 UNK        -0.0205 
      9 C9         -2.6930  -15.7309  -46.4654 C.ar      23 UNK        -0.0193 
     10 C10        -3.5275  -15.7599  -47.5867 C.ar      23 UNK        -0.1150 
     11 C11        -3.2297  -16.5725  -48.6865 C.ar      23 UNK        -0.0193 
     12 C12        -2.0689  -17.3575  -48.6480 C.ar      23 UNK        -0.1150 
     13 C13        -1.2259  -17.3383  -47.5327 C.ar      23 UNK        -0.0193 
     14 C14        -1.5462  -16.5261  -46.4435 C.ar      23 UNK        -0.1150 
     15 C15         0.0539  -18.1618  -47.5079 C.3       23 UNK        -0.0205 
     16 S16        -0.2028  -19.9151  -47.9068 S.3       23 UNK        -0.2404 
     17 C17        -1.4418  -20.3969  -46.6590 C.3       23 UNK        -0.0398 
     18 CA         -1.3935  -21.9110  -46.3661 C.3       11 UNK         0.1400 
     19 N          -0.0859  -22.3424  -45.8537 N.am      11 UNK        -0.5000 
     20 C           0.3173  -23.6175  -45.7549 C.2       10 UNK         0.5000 
     21 O          -0.3904  -24.5812  -46.0504 O.2       10 UNK        -0.5000 
     22 CA          1.7277  -23.8495  -45.1912 C.3       10 UNK         0.1400 
     23 CB          2.7935  -23.6126  -46.2727 C.3       10 UNK        -0.1800 
     24 N           1.9788  -22.9689  -44.0505 N.am      10 UNK        -0.5000 
     25 C           1.6447  -23.2602  -42.7852 C.2       9 UNK         0.5000 
     26 O           1.1707  -24.3420  -42.4379 O.2       9 UNK        -0.5000 
     27 CA          1.8600  -22.1605  -41.7245 C.3       9 UNK         0.1400 
     28 CB          3.2347  -22.3194  -41.0578 C.3       9 UNK        -0.1800 
     29 N           1.7422  -20.8009  -42.2546 N.am      9 UNK        -0.5000 
     30 C           0.6153  -20.2652  -42.7435 C.2       8 UNK         0.5000 
     31 O          -0.4660  -20.8502  -42.7607 O.2       8 UNK        -0.5000 
     32 CA          0.7201  -18.8604  -43.3677 C.3       8 UNK         0.1400 
     33 CB          0.3678  -17.7860  -42.3305 C.3       8 UNK        -0.1800 
     34 N           2.0184  -18.5535  -43.9816 N.am      8 UNK        -0.5000 
     35 C           2.6117  -19.2783  -44.9448 C.2       7 UNK         0.5000 
     36 O           2.1537  -20.3464  -45.3546 O.2       7 UNK        -0.5000 
     37 CA          3.9210  -18.7403  -45.5539 C.3       7 UNK         0.1400 
     38 CB          3.8802  -18.7951  -47.0906 C.3       7 UNK        -0.1800 
     39 N           4.1921  -17.3616  -45.1459 N.am      7 UNK        -0.5000 
     40 C           5.1469  -16.9755  -44.2882 C.2       6 UNK         0.5000 
     41 O           5.9227  -17.7562  -43.7360 O.2       6 UNK        -0.5000 
     42 CA          5.2582  -15.4654  -43.9830 C.3       6 UNK         0.1400 
     43 CB          6.4029  -14.8389  -44.7933 C.3       6 UNK        -0.1800 
     44 N           4.0275  -14.7189  -44.2516 N.am      6 UNK        -0.5000 
     45 C           2.8799  -14.8688  -43.5741 C.2       5 UNK         0.5000 
     46 O           2.7686  -15.6007  -42.5912 O.2       5 UNK        -0.5000 
     47 CA          1.6375  -14.1247  -44.1072 C.3       5 UNK         0.1400 
     48 CB          1.3975  -12.8451  -43.2931 C.3       5 UNK        -0.1800 
     49 N           1.7047  -13.7881  -45.5329 N.am      5 UNK        -0.5000 
     50 C           1.8559  -14.6741  -46.5314 C.2       4 UNK         0.5000 
     51 O           1.9450  -15.8870  -46.3463 O.2       4 UNK        -0.5000 
     52 CA          1.9997  -14.1274  -47.9668 C.3       4 UNK         0.1400 
     53 CB          0.6812  -14.2803  -48.7387 C.3       4 UNK        -0.1800 
     54 N           2.4324  -12.7297  -48.0291 N.am      4 UNK        -0.5000 
     55 C           3.5946  -12.2539  -47.5585 C.2       3 UNK         0.5000 
     56 O           4.4711  -12.9640  -47.0636 O.2       3 UNK        -0.5000 
     57 CA          3.7933  -10.7249  -47.6031 C.3       3 UNK         0.1400 
     58 CB          4.6613  -10.3338  -48.8087 C.3       3 UNK        -0.1800 
     59 N           2.5518   -9.9395  -47.6359 N.am      3 UNK        -0.5000 
     60 C           1.5823   -9.9597  -46.7085 C.2       2 UNK         0.5000 
     61 O           1.5998  -10.7193  -45.7397 O.2       2 UNK        -0.5000 
     62 CA          0.3956   -8.9886  -46.8945 C.3       2 UNK         0.1400 
     63 CB          0.5030   -8.0964  -48.1485 C.3       2 UNK        -0.1800 
     64 N          -0.8658   -9.7267  -46.9550 N.am      2 UNK        -0.5000 
     65 C          -1.6055  -10.0824  -45.8960 C.2       1 UNK         0.5000 
     66 O          -1.3260   -9.7840  -44.7310 O.2       1 UNK        -0.5000 
     67 C          -2.5774  -22.3450  -45.4734 C.2       11 UNK         0.5000 
     68 O          -3.7042  -22.4180  -45.9652 O.2       11 UNK        -0.5000 
     69 N          -2.3002  -22.6977  -44.2085 N.am      12 UNK        -0.5000 
     70 CA         -3.2190  -23.3116  -43.2435 C.3       12 UNK         0.1400 
     71 CB         -2.4767  -23.5160  -41.9136 C.3       12 UNK        -0.1800 
     72 C          -3.8562  -24.6401  -43.7097 C.2       12 UNK         0.5000 
     73 O          -4.8684  -25.0506  -43.1409 O.2       12 UNK        -0.5000 
     74 N          -3.2909  -25.2679  -44.7530 N.am      13 UNK        -0.5000 
     75 CA         -3.8794  -26.3895  -45.4901 C.3       13 UNK         0.1400 
     76 CB         -2.8399  -26.9163  -46.4925 C.3       13 UNK        -0.1800 
     77 C          -5.1941  -26.0382  -46.2251 C.2       13 UNK         0.5000 
     78 O          -5.9333  -26.9544  -46.5881 O.2       13 UNK        -0.5000 
     79 N          -5.4595  -24.7362  -46.4229 N.am      14 UNK        -0.5000 
     80 CA         -6.6061  -24.1471  -47.1187 C.3       14 UNK         0.1400 
     81 CB         -7.9355  -24.5245  -46.4277 C.3       14 UNK        -0.1800 
     82 C          -6.5844  -24.4488  -48.6309 C.2       14 UNK         0.5000 
     83 O          -5.5220  -24.7599  -49.1742 O.2       14 UNK        -0.5000 
     84 N          -7.7385  -24.2922  -49.2978 N.am      15 UNK        -0.5000 
     85 CA         -7.9600  -24.5044  -50.7358 C.3       15 UNK         0.1400 
     86 CB         -7.8842  -26.0088  -51.0721 C.3       15 UNK        -0.1800 
     87 C          -7.0284  -23.6481  -51.6212 C.2       15 UNK         0.5000 
     88 O          -6.4639  -24.1522  -52.5925 O.2       15 UNK        -0.5000 
     89 N          -6.8506  -22.3760  -51.2315 N.am      16 UNK        -0.5000 
     90 CA         -5.9330  -21.3948  -51.8256 C.3       16 UNK         0.1400 
     91 CB         -6.4063  -20.9830  -53.2332 C.3       16 UNK        -0.1800 
     92 C          -4.4663  -21.8753  -51.7954 C.2       16 UNK         0.5000 
     93 O          -3.7651  -21.8143  -52.8083 O.2       16 UNK        -0.5000 
     94 N          -4.0526  -22.3697  -50.6200 N.am      17 UNK        -0.5000 
     95 CA         -2.7463  -22.9570  -50.3150 C.3       17 UNK         0.1400 
     96 CB         -1.6279  -21.9102  -50.4847 C.3       17 UNK        -0.1800 
     97 C          -2.4994  -24.2519  -51.1133 C.2       17 UNK         0.5000 
     98 O          -1.4721  -24.3867  -51.7772 O.2       17 UNK        -0.5000 
     99 N          -3.4700  -25.1733  -51.0392 N.am      18 UNK        -0.5000 
    100 CA        -3.5115  -26.4751  -51.7117 C.3       18 UNK         0.1400 
    101 CB        -2.4475  -27.4238  -51.1213 C.3       18 UNK        -0.1800 
    102 C         -3.4370  -26.3506  -53.2486 C.2       18 UNK         0.5000 
    103 O         -2.6200  -27.0132  -53.8908 O.2       18 UNK        -0.5000 
    104 N         -4.2990  -25.4842  -53.7994 N.am      19 UNK        -0.5000 
    105 CA        -4.4714  -25.1661  -55.2201 C.3       19 UNK         0.1400 
    106 CB        -4.9319  -26.4061  -56.0149 C.3       19 UNK        -0.1800 
    107 C         -3.2643  -24.4525  -55.8664 C.2       19 UNK         0.5000 
    108 O         -3.1378  -24.4615  -57.0920 O.2       19 UNK        -0.5000 
    109 N         -2.4201  -23.8074  -55.0495 N.am      20 UNK        -0.5000 
    110 CA        -1.2885  -22.9904  -55.4995 C.3       20 UNK         0.1400 
    111 CB        -0.1984  -23.0053  -54.4175 C.3       20 UNK        -0.1800 
    112 C         -1.6929  -21.5406  -55.8374 C.2       20 UNK         0.5000 
    113 O         -0.8290  -20.7515  -56.2238 O.2       20 UNK        -0.5000 
    114 N         -2.9767  -21.1986  -55.6448 N.am      21 UNK        -0.5000 
    115 CA        -3.5829  -19.8723  -55.8101 C.3       21 UNK         0.1400 
    116 CB        -3.5740  -19.4477  -57.2935 C.3       21 UNK        -0.1800 
    117 C         -2.9535  -18.8179  -54.8739 C.2       21 UNK         0.5000 
    118 O         -2.8187  -17.6544  -55.2567 O.2       21 UNK        -0.5000 
    119 N         -2.5466  -19.2647  -53.6766 N.am      22 UNK        -0.5000 
    120 CA        -1.7699  -18.5087  -52.6776 C.3       22 UNK         0.1400 
    121 C         -0.3305  -18.1114  -53.1369 C.2       22 UNK         0.5000 
    122 N          0.2131  -18.6751  -54.2108 N.am      22 UNK        -0.7600 
    123 O          0.3280  -17.3027  -52.4891 O.2       22 UNK        -0.5000 
    124 C124       -2.5651  -17.3176  -52.0704 C.3       23 UNK        -0.0398 
    125 S125       -4.0095  -17.8896  -51.1090 S.3       23 UNK        -0.2404 
    126 C126       -4.1852  -16.5426  -49.8845 C.3       23 UNK        -0.0205 
    127 H127       -6.5572   -9.7505  -43.8968 H         1 UNK         0.0600 
    128 H128       -5.2569   -9.0769  -42.9078 H         1 UNK         0.0600 
    129 H129       -5.4029  -10.8257  -43.1033 H         1 UNK         0.0600 
    130 H130       -3.8481  -11.6278  -44.4890 H         1 UNK         0.3000 
    131 H131       -3.3354  -10.4564  -47.0880 H         1 UNK         0.0600 
    132 H132       -3.4329  -12.8424  -46.9978 H         1 UNK         0.0800 
    133 H133       -1.8014  -12.4111  -47.3832 H         1 UNK         0.0800 
    134 H134       -2.9074  -15.4255  -44.3557 H         1 UNK         0.0800 
    135 H135       -4.0656  -14.5236  -45.2989 H         1 UNK         0.0800 
    136 H136       -4.4160  -15.1443  -47.6048 H         1 UNK         0.1150 
    137 H137       -1.8037  -17.9930  -49.4785 H         1 UNK         0.1150 
    138 H138       -0.8922  -16.4947  -45.5830 H         1 UNK         0.1150 
    139 H139        0.7593  -17.7376  -48.2228 H         1 UNK         0.0800 
    140 H140        0.5288  -18.0982  -46.5303 H         1 UNK         0.0800 
    141 H141       -2.4227  -20.1077  -47.0417 H         1 UNK         0.0800 
    142 H142       -1.2870  -19.8258  -45.7443 H         1 UNK         0.0800 
    143 H143       -1.5384  -22.4274  -47.3170 H         1 UNK         0.0600 
    144 H144        0.5771  -21.6060  -45.6340 H         1 UNK         0.3000 
    145 H145        1.7992  -24.8919  -44.8732 H         1 UNK         0.0600 
    146 H146        3.7956  -23.7923  -45.8832 H         1 UNK         0.0600 
    147 H147        2.6463  -24.2877  -47.1165 H         1 UNK         0.0600 
    148 H148        2.7633  -22.5941  -46.6610 H         1 UNK         0.0600 
    149 H149        2.3036  -22.0341  -44.2713 H         1 UNK         0.3000 
    150 H150        1.0915  -22.2892  -40.9593 H         1 UNK         0.0600 
    151 H151        3.3474  -23.3154  -40.6275 H         1 UNK         0.0600 
    152 H152        3.3666  -21.6007  -40.2488 H         1 UNK         0.0600 
    153 H153        4.0469  -22.1761  -41.7716 H         1 UNK         0.0600 
    154 H154        2.5868  -20.2494  -42.2882 H         1 UNK         0.3000 
    155 H155       -0.0263  -18.8073  -44.1600 H         1 UNK         0.0600 
    156 H156       -0.5818  -18.0075  -41.8413 H         1 UNK         0.0600 
    157 H157        0.2650  -16.8076  -42.7980 H         1 UNK         0.0600 
    158 H158        1.1294  -17.7117  -41.5534 H         1 UNK         0.0600 
    159 H159        2.4643  -17.6960  -43.6841 H         1 UNK         0.3000 
    160 H160        4.7187  -19.4043  -45.2160 H         1 UNK         0.0600 
    161 H161        3.0884  -18.1641  -47.4943 H         1 UNK         0.0600 
    162 H162        3.7048  -19.8109  -47.4475 H         1 UNK         0.0600 
    163 H163        4.8245  -18.4606  -47.5202 H         1 UNK         0.0600 
    164 H164        3.5629  -16.6644  -45.5342 H         1 UNK         0.3000 
    165 H165        5.4921  -15.3611  -42.9215 H         1 UNK         0.0600 
    166 H166        6.5339  -13.7858  -44.5436 H         1 UNK         0.0600 
    167 H167        7.3490  -15.3416  -44.5886 H         1 UNK         0.0600 
    168 H168        6.2189  -14.9081  -45.8663 H         1 UNK         0.0600 
    169 H169        4.0363  -14.1093  -45.0599 H         1 UNK         0.3000 
    170 H170        0.7772  -14.7822  -43.9721 H         1 UNK         0.0600 
    171 H171        1.2827  -13.0714  -42.2324 H         1 UNK         0.0600 
    172 H172        2.2282  -12.1455  -43.3933 H         1 UNK         0.0600 
    173 H173        0.4906  -12.3332  -43.6156 H         1 UNK         0.0600 
    174 H174        1.6552  -12.7999  -45.7575 H         1 UNK         0.3000 
    175 H175        2.7601  -14.7298  -48.4679 H         1 UNK         0.0600 
    176 H176       -0.1322  -13.7408  -48.2555 H         1 UNK         0.0600 
    177 H177        0.7724  -13.9131  -49.7609 H         1 UNK         0.0600 
    178 H178        0.3856  -15.3274  -48.7999 H         1 UNK         0.0600 
    179 H179        1.7732  -12.0687  -48.4115 H         1 UNK         0.3000 
    180 H180        4.3292  -10.4474  -46.6931 H         1 UNK         0.0600 
    181 H181        4.1613  -10.5554  -49.7523 H         1 UNK         0.0600 
    182 H182        5.6073  -10.8772  -48.8029 H         1 UNK         0.0600 
    183 H183        4.9005   -9.2703  -48.7955 H         1 UNK         0.0600 
    184 H184        2.4565   -9.2945  -48.4070 H         1 UNK         0.3000 
    185 H185        0.3897   -8.3300  -46.0235 H         1 UNK         0.0600 
    186 H186        1.4065   -7.4856  -48.1260 H         1 UNK         0.0600 
    187 H187        0.5110   -8.6807  -49.0696 H         1 UNK         0.0600 
    188 H188       -0.3401   -7.4074  -48.2057 H         1 UNK         0.0600 
    189 H189       -1.1612  -10.0171  -47.8757 H         1 UNK         0.3000 
    190 H190       -1.3628  -22.5197  -43.8698 H         1 UNK         0.3000 
    191 H191       -4.0351  -22.6061  -43.0772 H         1 UNK         0.0600 
    192 H192       -2.1234  -22.5686  -41.5070 H         1 UNK         0.0600 
    193 H193       -3.1294  -23.9636  -41.1629 H         1 UNK         0.0600 
    194 H194       -1.6147  -24.1731  -42.0334 H         1 UNK         0.0600 
    195 H195       -2.4360  -24.8842  -45.1372 H         1 UNK         0.3000 
    196 H196       -4.1042  -27.1824  -44.7742 H         1 UNK         0.0600 
    197 H197       -3.2205  -27.7834  -47.0339 H         1 UNK         0.0600 
    198 H198       -1.9239  -27.2244  -45.9879 H         1 UNK         0.0600 
    199 H199       -2.5765  -26.1583  -47.2317 H         1 UNK         0.0600 
    200 H200       -4.7585  -24.0621  -46.1309 H         1 UNK         0.3000 
    201 H201       -6.4804  -23.0677  -47.0246 H         1 UNK         0.0600 
    202 H202       -7.8687  -24.3858  -45.3484 H         1 UNK         0.0600 
    203 H203       -8.2113  -25.5632  -46.6129 H         1 UNK         0.0600 
    204 H204       -8.7571  -23.8986  -46.7766 H         1 UNK         0.0600 
    205 H205       -8.5546  -24.0148  -48.7705 H         1 UNK         0.3000 
    206 H206       -8.9757  -24.1689  -50.9497 H         1 UNK         0.0600 
    207 H207       -8.5769  -26.5843  -50.4581 H         1 UNK         0.0600 
    208 H208       -8.1471  -26.1921  -52.1146 H         1 UNK         0.0600 
    209 H209       -6.8835  -26.4103  -50.9114 H         1 UNK         0.0600 
    210 H210       -7.3560  -22.0634  -50.4147 H         1 UNK         0.3000 
    211 H211       -5.9777  -20.5070  -51.1931 H         1 UNK         0.0600 
    212 H212       -6.2706  -21.7832  -53.9618 H         1 UNK         0.0600 
    213 H213       -5.8474  -20.1149  -53.5805 H         1 UNK         0.0600 
    214 H214       -7.4603  -20.7059  -53.2306 H         1 UNK         0.0600 
    215 H215       -4.7317  -22.4285  -49.8754 H         1 UNK         0.3000 
    216 H216       -2.7779  -23.2430  -49.2628 H         1 UNK         0.0600 
    217 H217       -0.6882  -22.2714  -50.0660 H         1 UNK         0.0600 
    218 H218       -1.8854  -20.9831  -49.9745 H         1 UNK         0.0600 
    219 H219       -1.4480  -21.6681  -51.5311 H         1 UNK         0.0600 
    220 H220       -4.2721  -24.9681  -50.4438 H         1 UNK         0.3000 
    221 H221       -4.4897  -26.9024  -51.4874 H         1 UNK         0.0600 
    222 H222       -1.4344  -27.0793  -51.3310 H         1 UNK         0.0600 
    223 H223       -2.5550  -27.5104  -50.0399 H         1 UNK         0.0600 
    224 H224       -2.5448  -28.4266  -51.5384 H         1 UNK         0.0600 
    225 H225       -4.9451  -24.9908  -53.1848 H         1 UNK         0.3000 
    226 H226       -5.2871  -24.4425  -55.2544 H         1 UNK         0.0600 
    227 H227       -5.7937  -26.8784  -55.5433 H         1 UNK         0.0600 
    228 H228       -5.2288  -26.1341  -57.0284 H         1 UNK         0.0600 
    229 H229       -4.1417  -27.1526  -56.0971 H         1 UNK         0.0600 
    230 H230       -2.5865  -23.8380  -54.0516 H         1 UNK         0.3000 
    231 H231       -0.8657  -23.4295  -56.4053 H         1 UNK         0.0600 
    232 H232       -0.5319  -22.5065  -53.5082 H         1 UNK         0.0600 
    233 H233        0.7021  -22.4934  -54.7590 H         1 UNK         0.0600 
    234 H234        0.0871  -24.0246  -54.1569 H         1 UNK         0.0600 
    235 H235       -3.5738  -21.9000  -55.2294 H         1 UNK         0.3000 
    236 H236       -4.6251  -19.9703  -55.5090 H         1 UNK         0.0600 
    237 H237       -4.0195  -20.2158  -57.9257 H         1 UNK         0.0600 
    238 H238       -4.1496  -18.5333  -57.4415 H         1 UNK         0.0600 
    239 H239       -2.5634  -19.2590  -57.6565 H         1 UNK         0.0600 
    240 H240       -2.7470  -20.2319  -53.4405 H         1 UNK         0.3000 
    241 H241       -1.5897  -19.2139  -51.8663 H         1 UNK         0.0600 
    242 H242        1.1475  -18.4121  -54.4799 H         1 UNK         0.3800 
    243 H243       -0.2993  -19.3382  -54.7799 H         1 UNK         0.3800 
    244 H244       -1.9307  -16.7213  -51.4138 H         1 UNK         0.0800 
    245 H245       -2.9047  -16.6328  -52.8476 H         1 UNK         0.0800 
    246 H246       -4.0836  -15.5834  -50.3939 H         1 UNK         0.0800 
    247 H247       -5.2091  -16.5807  -49.5098 H         1 UNK         0.0800 
@<TRIPOS>BOND
     1    1    2 1    
     2    1  127 1    
     3    1  128 1    
     4    1  129 1    
     5    2    3 2    
     6    2    4 am   BACKBONE|DICT|INTERRES
     7    4    5 1    
     8    4  130 1    
     9    5    6 1    
    10    5   65 1    
    11    5  131 1    
    12    6    7 1    
    13    6  132 1    
    14    6  133 1    
    15    7    8 1    
    16    8    9 1    
    17    8  134 1    
    18    8  135 1    
    19    9   10 ar   
    20    9   14 ar   
    21   10   11 ar   
    22   10  136 1    
    23   11   12 ar   
    24   11  126 1    
    25   12   13 ar   
    26   12  137 1    
    27   13   14 ar   
    28   13   15 1    
    29   14  138 1    
    30   15   16 1    
    31   15  139 1    
    32   15  140 1    
    33   16   17 1    
    34   17   18 1    
    35   17  141 1    
    36   17  142 1    
    37   18   19 1    
    38   18   67 1    
    39   18  143 1    
    40   19   20 am   BACKBONE|DICT|INTERRES
    41   19  144 1    
    42   20   21 2    
    43   20   22 1    
    44   22   23 1    
    45   22   24 1    
    46   22  145 1    
    47   23  146 1    
    48   23  147 1    
    49   23  148 1    
    50   24   25 am   BACKBONE|DICT|INTERRES
    51   24  149 1    
    52   25   26 2    
    53   25   27 1    
    54   27   28 1    
    55   27   29 1    
    56   27  150 1    
    57   28  151 1    
    58   28  152 1    
    59   28  153 1    
    60   29   30 am   BACKBONE|DICT|INTERRES
    61   29  154 1    
    62   30   31 2    
    63   30   32 1    
    64   32   33 1    
    65   32   34 1    
    66   32  155 1    
    67   33  156 1    
    68   33  157 1    
    69   33  158 1    
    70   34   35 am   BACKBONE|DICT|INTERRES
    71   34  159 1    
    72   35   36 2    
    73   35   37 1    
    74   37   38 1    
    75   37   39 1    
    76   37  160 1    
    77   38  161 1    
    78   38  162 1    
    79   38  163 1    
    80   39   40 am   BACKBONE|DICT|INTERRES
    81   39  164 1    
    82   40   41 2    
    83   40   42 1    
    84   42   43 1    
    85   42   44 1    
    86   42  165 1    
    87   43  166 1    
    88   43  167 1    
    89   43  168 1    
    90   44   45 am   BACKBONE|DICT|INTERRES
    91   44  169 1    
    92   45   46 2    
    93   45   47 1    
    94   47   48 1    
    95   47   49 1    
    96   47  170 1    
    97   48  171 1    
    98   48  172 1    
    99   48  173 1    
   100   49   50 am   BACKBONE|DICT|INTERRES
   101   49  174 1    
   102   50   51 2    
   103   50   52 1    
   104   52   53 1    
   105   52   54 1    
   106   52  175 1    
   107   53  176 1    
   108   53  177 1    
   109   53  178 1    
   110   54   55 am   BACKBONE|DICT|INTERRES
   111   54  179 1    
   112   55   56 2    
   113   55   57 1    
   114   57   58 1    
   115   57   59 1    
   116   57  180 1    
   117   58  181 1    
   118   58  182 1    
   119   58  183 1    
   120   59   60 am   BACKBONE|DICT|INTERRES
   121   59  184 1    
   122   60   61 2    
   123   60   62 1    
   124   62   63 1    
   125   62   64 1    
   126   62  185 1    
   127   63  186 1    
   128   63  187 1    
   129   63  188 1    
   130   64   65 am   BACKBONE|DICT|INTERRES
   131   64  189 1    
   132   65   66 2    
   133   67   68 2    
   134   67   69 am   BACKBONE|DICT|INTERRES
   135   69   70 1    
   136   69  190 1    
   137   70   71 1    
   138   70   72 1    
   139   70  191 1    
   140   71  192 1    
   141   71  193 1    
   142   71  194 1    
   143   72   73 2    
   144   72   74 am   BACKBONE|DICT|INTERRES
   145   74   75 1    
   146   74  195 1    
   147   75   76 1    
   148   75   77 1    
   149   75  196 1    
   150   76  197 1    
   151   76  198 1    
   152   76  199 1    
   153   77   78 2    
   154   77   79 am   BACKBONE|DICT|INTERRES
   155   79   80 1    
   156   79  200 1    
   157   80   81 1    
   158   80   82 1    
   159   80  201 1    
   160   81  202 1    
   161   81  203 1    
   162   81  204 1    
   163   82   83 2    
   164   82   84 am   BACKBONE|DICT|INTERRES
   165   84   85 1    
   166   84  205 1    
   167   85   86 1    
   168   85   87 1    
   169   85  206 1    
   170   86  207 1    
   171   86  208 1    
   172   86  209 1    
   173   87   88 2    
   174   87   89 am   BACKBONE|DICT|INTERRES
   175   89   90 1    
   176   89  210 1    
   177   90   91 1    
   178   90   92 1    
   179   90  211 1    
   180   91  212 1    
   181   91  213 1    
   182   91  214 1    
   183   92   93 2    
   184   92   94 am   BACKBONE|DICT|INTERRES
   185   94   95 1    
   186   94  215 1    
   187   95   96 1    
   188   95   97 1    
   189   95  216 1    
   190   96  217 1    
   191   96  218 1    
   192   96  219 1    
   193   97   98 2    
   194   97   99 am   BACKBONE|DICT|INTERRES
   195   99  100 1    
   196   99  220 1    
   197  100  101 1    
   198  100  102 1    
   199  100  221 1    
   200  101  222 1    
   201  101  223 1    
   202  101  224 1    
   203  102  103 2    
   204  102  104 am   BACKBONE|DICT|INTERRES
   205  104  105 1    
   206  104  225 1    
   207  105  106 1    
   208  105  107 1    
   209  105  226 1    
   210  106  227 1    
   211  106  228 1    
   212  106  229 1    
   213  107  108 2    
   214  107  109 am   BACKBONE|DICT|INTERRES
   215  109  110 1    
   216  109  230 1    
   217  110  111 1    
   218  110  112 1    
   219  110  231 1    
   220  111  232 1    
   221  111  233 1    
   222  111  234 1    
   223  112  113 2    
   224  112  114 am   BACKBONE|DICT|INTERRES
   225  114  115 1    
   226  114  235 1    
   227  115  116 1    
   228  115  117 1    
   229  115  236 1    
   230  116  237 1    
   231  116  238 1    
   232  116  239 1    
   233  117  118 2    
   234  117  119 am   BACKBONE|DICT|INTERRES
   235  119  120 1    
   236  119  240 1    
   237  120  121 1    
   238  120  124 1    
   239  120  241 1    
   240  121  122 am   BACKBONE|DICT|INTERRES
   241  121  123 2    
   242  122  242 1    
   243  122  243 1    
   244  124  125 1    
   245  124  244 1    
   246  124  245 1    
   247  125  126 1    
   248  126  246 1    
   249  126  247 1    
@<TRIPOS>SUBSTRUCTURE
     1 UNK         1 GROUP             0       ****    0 ROOT    
