@<TRIPOS>MOLECULE
3R540
247   249    1
SMALL
USER_CHARGES


@<TRIPOS>ATOM
      1 CA          7.4335  -15.4105  -50.4969 C.3       0 UNK        -0.1800 
      2 C           6.1221  -15.4570  -51.2684 C.2       0 UNK         0.5000 
      3 O           5.9663  -14.7286  -52.2483 O.2       0 UNK        -0.5000 
      4 N           5.1885  -16.3100  -50.8259 N.am      1 UNK        -0.5000 
      5 CA          3.8532  -16.5236  -51.4015 C.3       1 UNK         0.1400 
      6 C6          3.8751  -17.1991  -52.8033 C.3       23 UNK        -0.0398 
      7 S7          4.4889  -18.9212  -52.7097 S.3       23 UNK        -0.2404 
      8 C8          2.9474  -19.9053  -52.7668 C.3       23 UNK        -0.0205 
      9 C9          1.9108  -19.4052  -51.7713 C.ar      23 UNK        -0.0193 
     10 C10         0.7674  -18.7425  -52.2253 C.ar      23 UNK        -0.1150 
     11 C11        -0.1225  -18.1633  -51.3187 C.ar      23 UNK        -0.0193 
     12 C12         0.1334  -18.2696  -49.9517 C.ar      23 UNK        -0.1150 
     13 C13         1.2442  -18.9706  -49.4746 C.ar      23 UNK        -0.0193 
     14 C14         2.1258  -19.5491  -50.3974 C.ar      23 UNK        -0.1150 
     15 C15         1.4363  -19.0479  -47.9606 C.3       23 UNK        -0.0205 
     16 S16         2.7709  -20.1450  -47.3707 S.3       23 UNK        -0.2404 
     17 C17         2.1615  -20.5378  -45.6957 C.3       23 UNK        -0.0398 
     18 CA          1.6428  -21.9915  -45.5577 C.3       11 UNK         0.1400 
     19 N           1.7020  -22.4353  -44.1639 N.am      11 UNK        -0.5000 
     20 C           1.6652  -23.7083  -43.7476 C.2       10 UNK         0.5000 
     21 O           1.5903  -24.6741  -44.5077 O.2       10 UNK        -0.5000 
     22 CA          1.6778  -23.9288  -42.2215 C.3       10 UNK         0.1400 
     23 CB          3.1069  -24.2006  -41.7297 C.3       10 UNK        -0.1800 
     24 N           1.1226  -22.7975  -41.4710 N.am      10 UNK        -0.5000 
     25 C          -0.1527  -22.3931  -41.5194 C.2       9 UNK         0.5000 
     26 O          -1.0102  -22.9445  -42.2078 O.2       9 UNK        -0.5000 
     27 CA         -0.5227  -21.1335  -40.7185 C.3       9 UNK         0.1400 
     28 CB         -0.5895  -21.4109  -39.2052 C.3       9 UNK        -0.1800 
     29 N           0.3244  -19.9777  -41.0308 N.am      9 UNK        -0.5000 
     30 C           1.6149  -19.7567  -40.7409 C.2       8 UNK         0.5000 
     31 O           2.3356  -20.5591  -40.1467 O.2       8 UNK        -0.5000 
     32 CA          2.2031  -18.4148  -41.2153 C.3       8 UNK         0.1400 
     33 CB          2.8089  -18.5592  -42.6180 C.3       8 UNK        -0.1800 
     34 N           1.1939  -17.3557  -41.2434 N.am      8 UNK        -0.5000 
     35 C           0.8229  -16.6330  -40.1777 C.2       7 UNK         0.5000 
     36 O           1.3591  -16.7139  -39.0720 O.2       7 UNK        -0.5000 
     37 CA         -0.3666  -15.6756  -40.3789 C.3       7 UNK         0.1400 
     38 CB          0.1100  -14.3204  -40.9235 C.3       7 UNK        -0.1800 
     39 N          -1.3792  -16.2389  -41.2753 N.am      7 UNK        -0.5000 
     40 C          -2.2012  -17.2443  -40.9347 C.2       6 UNK         0.5000 
     41 O          -2.2263  -17.7503  -39.8128 O.2       6 UNK        -0.5000 
     42 CA         -3.1459  -17.7985  -42.0200 C.3       6 UNK         0.1400 
     43 CB         -4.5609  -17.2272  -41.8447 C.3       6 UNK        -0.1800 
     44 N          -2.7005  -17.5414  -43.3894 N.am      6 UNK        -0.5000 
     45 C          -1.6003  -18.0519  -43.9579 C.2       5 UNK         0.5000 
     46 O          -0.8108  -18.7990  -43.3803 O.2       5 UNK        -0.5000 
     47 CA         -1.3218  -17.6228  -45.4088 C.3       5 UNK         0.1400 
     48 CB         -2.0179  -18.5860  -46.3786 C.3       5 UNK        -0.1800 
     49 N          -1.7505  -16.2567  -45.7171 N.am      5 UNK        -0.5000 
     50 C          -1.3241  -15.1395  -45.1150 C.2       4 UNK         0.5000 
     51 O          -0.5494  -15.1451  -44.1568 O.2       4 UNK        -0.5000 
     52 CA         -1.8649  -13.8051  -45.6787 C.3       4 UNK         0.1400 
     53 CB         -1.2634  -12.5797  -44.9669 C.3       4 UNK        -0.1800 
     54 N          -1.6438  -13.6632  -47.1212 N.am      4 UNK        -0.5000 
     55 C          -2.3104  -14.3022  -48.0927 C.2       3 UNK         0.5000 
     56 O          -3.2185  -15.1059  -47.8765 O.2       3 UNK        -0.5000 
     57 CA         -1.8858  -14.0221  -49.5479 C.3       3 UNK         0.1400 
     58 CB         -2.8468  -13.0193  -50.2031 C.3       3 UNK        -0.1800 
     59 N          -0.5075  -13.5457  -49.7122 N.am      3 UNK        -0.5000 
     60 C           0.5865  -14.2604  -49.4174 C.2       2 UNK         0.5000 
     61 O           0.5565  -15.3578  -48.8579 O.2       2 UNK        -0.5000 
     62 CA          1.9436  -13.6268  -49.7713 C.3       2 UNK         0.1400 
     63 CB          2.4922  -12.8324  -48.5760 C.3       2 UNK        -0.1800 
     64 N           2.9000  -14.6735  -50.1249 N.am      2 UNK        -0.5000 
     65 C           2.9810  -15.2507  -51.3314 C.2       1 UNK         0.5000 
     66 O           2.4138  -14.8170  -52.3354 O.2       1 UNK        -0.5000 
     67 C           0.2421  -22.1748  -46.1899 C.2       11 UNK         0.5000 
     68 O           0.1278  -22.0998  -47.4116 O.2       11 UNK        -0.5000 
     69 N          -0.8027  -22.4407  -45.3871 N.am      12 UNK        -0.5000 
     70 CA         -2.1749  -22.6501  -45.8633 C.3       12 UNK         0.1400 
     71 CB         -3.1219  -22.8396  -44.6718 C.3       12 UNK        -0.1800 
     72 C          -2.3256  -23.8088  -46.8676 C.2       12 UNK         0.5000 
     73 O          -3.1752  -23.7212  -47.7546 O.2       12 UNK        -0.5000 
     74 N          -1.4796  -24.8409  -46.7426 N.am      13 UNK        -0.5000 
     75 CA         -1.3911  -25.9576  -47.6835 C.3       13 UNK         0.1400 
     76 CB         -0.5221  -27.0685  -47.0749 C.3       13 UNK        -0.1800 
     77 C          -0.8459  -25.5235  -49.0574 C.2       13 UNK         0.5000 
     78 O          -1.4292  -25.8782  -50.0823 O.2       13 UNK        -0.5000 
     79 N           0.2323  -24.7248  -49.0518 N.am      14 UNK        -0.5000 
     80 CA          0.8479  -24.1379  -50.2478 C.3       14 UNK         0.1400 
     81 CB          2.1945  -23.4999  -49.8713 C.3       14 UNK        -0.1800 
     82 C          -0.0661  -23.1053  -50.9323 C.2       14 UNK         0.5000 
     83 O          -0.0603  -22.9958  -52.1581 O.2       14 UNK        -0.5000 
     84 N          -0.8695  -22.4094  -50.1201 N.am      15 UNK        -0.5000 
     85 CA         -1.8800  -21.4418  -50.5349 C.3       15 UNK         0.1400 
     86 CB         -2.2201  -20.5600  -49.3298 C.3       15 UNK        -0.1800 
     87 C          -3.1665  -22.0731  -51.1072 C.2       15 UNK         0.5000 
     88 O          -4.0768  -21.3229  -51.4593 O.2       15 UNK        -0.5000 
     89 N          -3.2285  -23.4116  -51.1818 N.am      16 UNK        -0.5000 
     90 CA         -4.3373  -24.2276  -51.6841 C.3       16 UNK         0.1400 
     91 CB         -4.6250  -23.9301  -53.1720 C.3       16 UNK        -0.1800 
     92 C          -5.5856  -24.1348  -50.7847 C.2       16 UNK         0.5000 
     93 O          -6.6774  -23.8286  -51.2639 O.2       16 UNK        -0.5000 
     94 N          -5.3826  -24.4218  -49.4915 N.am      17 UNK        -0.5000 
     95 CA         -6.3576  -24.3766  -48.3970 C.3       17 UNK         0.1400 
     96 CB         -7.5886  -25.2687  -48.6693 C.3       17 UNK        -0.1800 
     97 C          -6.7045  -22.9278  -48.0048 C.2       17 UNK         0.5000 
     98 O          -7.8803  -22.5735  -47.9092 O.2       17 UNK        -0.5000 
     99 N          -5.6407  -22.1508  -47.7535 N.am      18 UNK        -0.5000 
    100 CA        -5.5943  -20.7543  -47.3105 C.3       18 UNK         0.1400 
    101 CB        -6.3620  -20.5403  -45.9918 C.3       18 UNK        -0.1800 
    102 C         -6.0316  -19.7494  -48.3939 C.2       18 UNK         0.5000 
    103 O         -7.1780  -19.7677  -48.8416 O.2       18 UNK        -0.5000 
    104 N         -5.0959  -18.8640  -48.7642 N.am      19 UNK        -0.5000 
    105 CA        -5.1983  -17.6915  -49.6473 C.3       19 UNK         0.1400 
    106 CB        -6.1406  -16.6401  -49.0333 C.3       19 UNK        -0.1800 
    107 C         -5.5679  -17.9448  -51.1253 C.2       19 UNK         0.5000 
    108 O         -5.1739  -17.1410  -51.9689 O.2       19 UNK        -0.5000 
    109 N         -6.3106  -19.0179  -51.4209 N.am      20 UNK        -0.5000 
    110 CA        -6.9346  -19.3338  -52.7098 C.3       20 UNK         0.1400 
    111 CB        -7.6123  -20.7067  -52.6143 C.3       20 UNK        -0.1800 
    112 C         -6.0022  -19.2805  -53.9343 C.2       20 UNK         0.5000 
    113 O         -6.3975  -18.7361  -54.9668 O.2       20 UNK        -0.5000 
    114 N         -4.7719  -19.7942  -53.7936 N.am      21 UNK        -0.5000 
    115 CA        -3.7414  -19.7800  -54.8401 C.3       21 UNK         0.1400 
    116 CB        -2.5521  -20.6467  -54.3986 C.3       21 UNK        -0.1800 
    117 C         -3.2577  -18.3671  -55.2340 C.2       21 UNK         0.5000 
    118 O         -2.6936  -18.2038  -56.3166 O.2       21 UNK        -0.5000 
    119 N         -3.4919  -17.3817  -54.3605 N.am      22 UNK        -0.5000 
    120 CA        -3.1880  -15.9595  -54.5614 C.3       22 UNK         0.1400 
    121 C         -4.4154  -15.1492  -55.0764 C.2       22 UNK         0.5000 
    122 N         -5.5695  -15.7577  -55.3307 N.am      22 UNK        -0.7600 
    123 O         -4.3154  -13.9412  -55.2731 O.2       22 UNK        -0.5000 
    124 C124       -2.5849  -15.3321  -53.2752 C.3       23 UNK        -0.0398 
    125 S125       -0.9407  -16.0058  -52.8573 S.3       23 UNK        -0.2404 
    126 C126       -1.3638  -17.4354  -51.8106 C.3       23 UNK        -0.0205 
    127 H127        7.4369  -16.1073  -49.6583 H         1 UNK         0.0600 
    128 H128        7.6033  -14.4073  -50.1058 H         1 UNK         0.0600 
    129 H129        8.2645  -15.6665  -51.1542 H         1 UNK         0.0600 
    130 H130        5.3996  -16.8809  -50.0196 H         1 UNK         0.3000 
    131 H131        3.3613  -17.2115  -50.7167 H         1 UNK         0.0600 
    132 H132        2.8826  -17.2078  -53.2553 H         1 UNK         0.0800 
    133 H133        4.5052  -16.6372  -53.4932 H         1 UNK         0.0800 
    134 H134        2.5491  -19.8821  -53.7823 H         1 UNK         0.0800 
    135 H135        3.1799  -20.9493  -52.5522 H         1 UNK         0.0800 
    136 H136        0.5866  -18.6399  -53.2861 H         1 UNK         0.1150 
    137 H137       -0.5420  -17.8043  -49.2490 H         1 UNK         0.1150 
    138 H138        3.0108  -20.0703  -50.0643 H         1 UNK         0.1150 
    139 H139        1.6123  -18.0424  -47.5754 H         1 UNK         0.0800 
    140 H140        0.4968  -19.3867  -47.5276 H         1 UNK         0.0800 
    141 H141        1.4067  -19.8163  -45.3787 H         1 UNK         0.0800 
    142 H142        3.0132  -20.3889  -45.0308 H         1 UNK         0.0800 
    143 H143        2.3185  -22.6401  -46.1198 H         1 UNK         0.0600 
    144 H144        1.7458  -21.7137  -43.4603 H         1 UNK         0.3000 
    145 H145        1.0663  -24.8085  -42.0105 H         1 UNK         0.0600 
    146 H146        3.1192  -24.4344  -40.6649 H         1 UNK         0.0600 
    147 H147        3.5464  -25.0506  -42.2535 H         1 UNK         0.0600 
    148 H148        3.7584  -23.3408  -41.8918 H         1 UNK         0.0600 
    149 H149        1.7644  -22.2547  -40.8997 H         1 UNK         0.3000 
    150 H150       -1.5265  -20.8471  -41.0366 H         1 UNK         0.0600 
    151 H151       -1.3099  -22.2006  -38.9884 H         1 UNK         0.0600 
    152 H152       -0.9067  -20.5224  -38.6588 H         1 UNK         0.0600 
    153 H153        0.3712  -21.7289  -38.8001 H         1 UNK         0.0600 
    154 H154       -0.1232  -19.2983  -41.6379 H         1 UNK         0.3000 
    155 H155        3.0032  -18.1380  -40.5254 H         1 UNK         0.0600 
    156 H156        2.0405  -18.7682  -43.3610 H         1 UNK         0.0600 
    157 H157        3.5383  -19.3697  -42.6518 H         1 UNK         0.0600 
    158 H158        3.3230  -17.6463  -42.9191 H         1 UNK         0.0600 
    159 H159        0.6901  -17.2287  -42.1098 H         1 UNK         0.3000 
    160 H160       -0.8277  -15.5032  -39.4039 H         1 UNK         0.0600 
    161 H161        0.6271  -14.4261  -41.8776 H         1 UNK         0.0600 
    162 H162        0.8034  -13.8455  -40.2284 H         1 UNK         0.0600 
    163 H163       -0.7256  -13.6355  -41.0687 H         1 UNK         0.0600 
    164 H164       -1.3933  -15.8855  -42.2241 H         1 UNK         0.3000 
    165 H165       -3.1953  -18.8809  -41.8841 H         1 UNK         0.0600 
    166 H166       -5.2588  -17.6768  -42.5513 H         1 UNK         0.0600 
    167 H167       -4.9425  -17.4271  -40.8424 H         1 UNK         0.0600 
    168 H168       -4.5796  -16.1468  -41.9935 H         1 UNK         0.0600 
    169 H169       -3.2765  -16.9244  -43.9427 H         1 UNK         0.3000 
    170 H170       -0.2438  -17.6755  -45.5729 H         1 UNK         0.0600 
    171 H171       -1.6300  -19.5969  -46.2594 H         1 UNK         0.0600 
    172 H172       -3.0946  -18.6194  -46.2086 H         1 UNK         0.0600 
    173 H173       -1.8526  -18.2892  -47.4129 H         1 UNK         0.0600 
    174 H174       -2.3811  -16.1366  -46.5048 H         1 UNK         0.3000 
    175 H175       -2.9412  -13.7981  -45.4951 H         1 UNK         0.0600 
    176 H176       -0.1836  -12.5221  -45.1095 H         1 UNK         0.0600 
    177 H177       -1.7014  -11.6531  -45.3382 H         1 UNK         0.0600 
    178 H178       -1.4518  -12.6172  -43.8930 H         1 UNK         0.0600 
    179 H179       -0.8879  -13.0548  -47.3976 H         1 UNK         0.3000 
    180 H180       -1.9697  -14.9661  -50.0861 H         1 UNK         0.0600 
    181 H181       -2.8043  -12.0446  -49.7155 H         1 UNK         0.0600 
    182 H182       -3.8778  -13.3716  -50.1456 H         1 UNK         0.0600 
    183 H183       -2.6129  -12.8780  -51.2582 H         1 UNK         0.0600 
    184 H184       -0.3974  -12.6420  -50.1493 H         1 UNK         0.3000 
    185 H185        1.8159  -12.9472  -50.6167 H         1 UNK         0.0600 
    186 H186        1.8157  -12.0223  -48.3011 H         1 UNK         0.0600 
    187 H187        2.6219  -13.4645  -47.6964 H         1 UNK         0.0600 
    188 H188        3.4572  -12.3832  -48.8115 H         1 UNK         0.0600 
    189 H189        3.3809  -15.1104  -49.3526 H         1 UNK         0.3000 
    190 H190       -0.6554  -22.5202  -44.3887 H         1 UNK         0.3000 
    191 H191       -2.4778  -21.7422  -46.3838 H         1 UNK         0.0600 
    192 H192       -3.0951  -21.9769  -44.0056 H         1 UNK         0.0600 
    193 H193       -4.1532  -22.9608  -45.0056 H         1 UNK         0.0600 
    194 H194       -2.8604  -23.7233  -44.0887 H         1 UNK         0.0600 
    195 H195       -0.8082  -24.8242  -45.9878 H         1 UNK         0.3000 
    196 H196       -2.3966  -26.3564  -47.8341 H         1 UNK         0.0600 
    197 H197       -0.4391  -27.9169  -47.7555 H         1 UNK         0.0600 
    198 H198       -0.9534  -27.4397  -46.1450 H         1 UNK         0.0600 
    199 H199        0.4885  -26.7194  -46.8583 H         1 UNK         0.0600 
    200 H200        0.6083  -24.4274  -48.1636 H         1 UNK         0.3000 
    201 H201        1.0363  -24.9424  -50.9618 H         1 UNK         0.0600 
    202 H202        2.8691  -24.2312  -49.4262 H         1 UNK         0.0600 
    203 H203        2.0701  -22.6811  -49.1619 H         1 UNK         0.0600 
    204 H204        2.6913  -23.0918  -50.7524 H         1 UNK         0.0600 
    205 H205       -0.7272  -22.5112  -49.1197 H         1 UNK         0.3000 
    206 H206       -1.4401  -20.8116  -51.3088 H         1 UNK         0.0600 
    207 H207       -1.3274  -20.2810  -48.7752 H         1 UNK         0.0600 
    208 H208       -2.6999  -19.6405  -49.6606 H         1 UNK         0.0600 
    209 H209       -2.8886  -21.0714  -48.6405 H         1 UNK         0.0600 
    210 H210       -2.4320  -23.9332  -50.8394 H         1 UNK         0.3000 
    211 H211       -3.9980  -25.2629  -51.6248 H         1 UNK         0.0600 
    212 H212       -5.0100  -22.9218  -53.3243 H         1 UNK         0.0600 
    213 H213       -5.3679  -24.6227  -53.5688 H         1 UNK         0.0600 
    214 H214       -3.7246  -24.0404  -53.7759 H         1 UNK         0.0600 
    215 H215       -4.4264  -24.5717  -49.1899 H         1 UNK         0.3000 
    216 H216       -5.8475  -24.8045  -47.5326 H         1 UNK         0.0600 
    217 H217       -8.2094  -25.3504  -47.7765 H         1 UNK         0.0600 
    218 H218       -7.2903  -26.2784  -48.9507 H         1 UNK         0.0600 
    219 H219       -8.2201  -24.8699  -49.4632 H         1 UNK         0.0600 
    220 H220       -4.7352  -22.5918  -47.8853 H         1 UNK         0.3000 
    221 H221       -4.5457  -20.5647  -47.0820 H         1 UNK         0.0600 
    222 H222       -7.4368  -20.6728  -46.1176 H         1 UNK         0.0600 
    223 H223       -6.0260  -21.2327  -45.2203 H         1 UNK         0.0600 
    224 H224       -6.2042  -19.5299  -45.6127 H         1 UNK         0.0600 
    225 H225       -4.1863  -18.9653  -48.3422 H         1 UNK         0.3000 
    226 H226       -4.1982  -17.2552  -49.6620 H         1 UNK         0.0600 
    227 H227       -5.8263  -16.3714  -48.0246 H         1 UNK         0.0600 
    228 H228       -6.1412  -15.7237  -49.6249 H         1 UNK         0.0600 
    229 H229       -7.1693  -16.9977  -48.9819 H         1 UNK         0.0600 
    230 H230       -6.6031  -19.5897  -50.6345 H         1 UNK         0.3000 
    231 H231       -7.7135  -18.5857  -52.8684 H         1 UNK         0.0600 
    232 H232       -6.8809  -21.4914  -52.4232 H         1 UNK         0.0600 
    233 H233       -8.1301  -20.9570  -53.5410 H         1 UNK         0.0600 
    234 H234       -8.3482  -20.7326  -51.8104 H         1 UNK         0.0600 
    235 H235       -4.5336  -20.2429  -52.9108 H         1 UNK         0.3000 
    236 H236       -4.1746  -20.2324  -55.7343 H         1 UNK         0.0600 
    237 H237       -2.8631  -21.6686  -54.1845 H         1 UNK         0.0600 
    238 H238       -1.7935  -20.6982  -55.1805 H         1 UNK         0.0600 
    239 H239       -2.0722  -20.2458  -53.5070 H         1 UNK         0.0600 
    240 H240       -4.0219  -17.5870  -53.5196 H         1 UNK         0.3000 
    241 H241       -2.4374  -15.8661  -55.3482 H         1 UNK         0.0600 
    242 H242       -5.6789  -16.7543  -55.1881 H         1 UNK         0.3800 
    243 H243       -6.3479  -15.2159  -55.6710 H         1 UNK         0.3800 
    244 H244       -2.4504  -14.2573  -53.4060 H         1 UNK         0.0800 
    245 H245       -3.2585  -15.4456  -52.4257 H         1 UNK         0.0800 
    246 H246       -1.9729  -18.1433  -52.3686 H         1 UNK         0.0800 
    247 H247       -1.9749  -17.1028  -50.9718 H         1 UNK         0.0800 
@<TRIPOS>BOND
     1    1    2 1    
     2    1  127 1    
     3    1  128 1    
     4    1  129 1    
     5    2    3 2    
     6    2    4 am   BACKBONE|DICT|INTERRES
     7    4    5 1    
     8    4  130 1    
     9    5    6 1    
    10    5   65 1    
    11    5  131 1    
    12    6    7 1    
    13    6  132 1    
    14    6  133 1    
    15    7    8 1    
    16    8    9 1    
    17    8  134 1    
    18    8  135 1    
    19    9   10 ar   
    20    9   14 ar   
    21   10   11 ar   
    22   10  136 1    
    23   11   12 ar   
    24   11  126 1    
    25   12   13 ar   
    26   12  137 1    
    27   13   14 ar   
    28   13   15 1    
    29   14  138 1    
    30   15   16 1    
    31   15  139 1    
    32   15  140 1    
    33   16   17 1    
    34   17   18 1    
    35   17  141 1    
    36   17  142 1    
    37   18   19 1    
    38   18   67 1    
    39   18  143 1    
    40   19   20 am   BACKBONE|DICT|INTERRES
    41   19  144 1    
    42   20   21 2    
    43   20   22 1    
    44   22   23 1    
    45   22   24 1    
    46   22  145 1    
    47   23  146 1    
    48   23  147 1    
    49   23  148 1    
    50   24   25 am   BACKBONE|DICT|INTERRES
    51   24  149 1    
    52   25   26 2    
    53   25   27 1    
    54   27   28 1    
    55   27   29 1    
    56   27  150 1    
    57   28  151 1    
    58   28  152 1    
    59   28  153 1    
    60   29   30 am   BACKBONE|DICT|INTERRES
    61   29  154 1    
    62   30   31 2    
    63   30   32 1    
    64   32   33 1    
    65   32   34 1    
    66   32  155 1    
    67   33  156 1    
    68   33  157 1    
    69   33  158 1    
    70   34   35 am   BACKBONE|DICT|INTERRES
    71   34  159 1    
    72   35   36 2    
    73   35   37 1    
    74   37   38 1    
    75   37   39 1    
    76   37  160 1    
    77   38  161 1    
    78   38  162 1    
    79   38  163 1    
    80   39   40 am   BACKBONE|DICT|INTERRES
    81   39  164 1    
    82   40   41 2    
    83   40   42 1    
    84   42   43 1    
    85   42   44 1    
    86   42  165 1    
    87   43  166 1    
    88   43  167 1    
    89   43  168 1    
    90   44   45 am   BACKBONE|DICT|INTERRES
    91   44  169 1    
    92   45   46 2    
    93   45   47 1    
    94   47   48 1    
    95   47   49 1    
    96   47  170 1    
    97   48  171 1    
    98   48  172 1    
    99   48  173 1    
   100   49   50 am   BACKBONE|DICT|INTERRES
   101   49  174 1    
   102   50   51 2    
   103   50   52 1    
   104   52   53 1    
   105   52   54 1    
   106   52  175 1    
   107   53  176 1    
   108   53  177 1    
   109   53  178 1    
   110   54   55 am   BACKBONE|DICT|INTERRES
   111   54  179 1    
   112   55   56 2    
   113   55   57 1    
   114   57   58 1    
   115   57   59 1    
   116   57  180 1    
   117   58  181 1    
   118   58  182 1    
   119   58  183 1    
   120   59   60 am   BACKBONE|DICT|INTERRES
   121   59  184 1    
   122   60   61 2    
   123   60   62 1    
   124   62   63 1    
   125   62   64 1    
   126   62  185 1    
   127   63  186 1    
   128   63  187 1    
   129   63  188 1    
   130   64   65 am   BACKBONE|DICT|INTERRES
   131   64  189 1    
   132   65   66 2    
   133   67   68 2    
   134   67   69 am   BACKBONE|DICT|INTERRES
   135   69   70 1    
   136   69  190 1    
   137   70   71 1    
   138   70   72 1    
   139   70  191 1    
   140   71  192 1    
   141   71  193 1    
   142   71  194 1    
   143   72   73 2    
   144   72   74 am   BACKBONE|DICT|INTERRES
   145   74   75 1    
   146   74  195 1    
   147   75   76 1    
   148   75   77 1    
   149   75  196 1    
   150   76  197 1    
   151   76  198 1    
   152   76  199 1    
   153   77   78 2    
   154   77   79 am   BACKBONE|DICT|INTERRES
   155   79   80 1    
   156   79  200 1    
   157   80   81 1    
   158   80   82 1    
   159   80  201 1    
   160   81  202 1    
   161   81  203 1    
   162   81  204 1    
   163   82   83 2    
   164   82   84 am   BACKBONE|DICT|INTERRES
   165   84   85 1    
   166   84  205 1    
   167   85   86 1    
   168   85   87 1    
   169   85  206 1    
   170   86  207 1    
   171   86  208 1    
   172   86  209 1    
   173   87   88 2    
   174   87   89 am   BACKBONE|DICT|INTERRES
   175   89   90 1    
   176   89  210 1    
   177   90   91 1    
   178   90   92 1    
   179   90  211 1    
   180   91  212 1    
   181   91  213 1    
   182   91  214 1    
   183   92   93 2    
   184   92   94 am   BACKBONE|DICT|INTERRES
   185   94   95 1    
   186   94  215 1    
   187   95   96 1    
   188   95   97 1    
   189   95  216 1    
   190   96  217 1    
   191   96  218 1    
   192   96  219 1    
   193   97   98 2    
   194   97   99 am   BACKBONE|DICT|INTERRES
   195   99  100 1    
   196   99  220 1    
   197  100  101 1    
   198  100  102 1    
   199  100  221 1    
   200  101  222 1    
   201  101  223 1    
   202  101  224 1    
   203  102  103 2    
   204  102  104 am   BACKBONE|DICT|INTERRES
   205  104  105 1    
   206  104  225 1    
   207  105  106 1    
   208  105  107 1    
   209  105  226 1    
   210  106  227 1    
   211  106  228 1    
   212  106  229 1    
   213  107  108 2    
   214  107  109 am   BACKBONE|DICT|INTERRES
   215  109  110 1    
   216  109  230 1    
   217  110  111 1    
   218  110  112 1    
   219  110  231 1    
   220  111  232 1    
   221  111  233 1    
   222  111  234 1    
   223  112  113 2    
   224  112  114 am   BACKBONE|DICT|INTERRES
   225  114  115 1    
   226  114  235 1    
   227  115  116 1    
   228  115  117 1    
   229  115  236 1    
   230  116  237 1    
   231  116  238 1    
   232  116  239 1    
   233  117  118 2    
   234  117  119 am   BACKBONE|DICT|INTERRES
   235  119  120 1    
   236  119  240 1    
   237  120  121 1    
   238  120  124 1    
   239  120  241 1    
   240  121  122 am   BACKBONE|DICT|INTERRES
   241  121  123 2    
   242  122  242 1    
   243  122  243 1    
   244  124  125 1    
   245  124  244 1    
   246  124  245 1    
   247  125  126 1    
   248  126  246 1    
   249  126  247 1    
@<TRIPOS>SUBSTRUCTURE
     1 UNK         1 GROUP             0       ****    0 ROOT    
