@<TRIPOS>MOLECULE
3R540
247   249    1
SMALL
USER_CHARGES


@<TRIPOS>ATOM
      1 CA          2.1203  -10.2283  -49.5250 C.3       0 UNK        -0.1800 
      2 C           2.1006  -11.5511  -48.7738 C.2       0 UNK         0.5000 
      3 O           1.7966  -11.5733  -47.5832 O.2       0 UNK        -0.5000 
      4 N           2.3997  -12.6555  -49.4699 N.am      1 UNK        -0.5000 
      5 CA          2.4792  -14.0294  -48.9459 C.3       1 UNK         0.1400 
      6 C6          3.0325  -15.0082  -50.0121 C.3       23 UNK        -0.0398 
      7 S7          2.0555  -15.0208  -51.5593 S.3       23 UNK        -0.2404 
      8 C8          1.9803  -16.7971  -51.9567 C.3       23 UNK        -0.0205 
      9 C9          1.2325  -17.6284  -50.9210 C.ar      23 UNK        -0.0193 
     10 C10        -0.0749  -17.2991  -50.5474 C.ar      23 UNK        -0.1150 
     11 C11        -0.7782  -18.0979  -49.6409 C.ar      23 UNK        -0.0193 
     12 C12        -0.1689  -19.2420  -49.1201 C.ar      23 UNK        -0.1150 
     13 C13         1.1320  -19.5890  -49.4923 C.ar      23 UNK        -0.0193 
     14 C14         1.8329  -18.7703  -50.3815 C.ar      23 UNK        -0.1150 
     15 C15         1.7433  -20.8894  -48.9961 C.3       23 UNK        -0.0205 
     16 S16         1.9672  -20.9057  -47.1900 S.3       23 UNK        -0.2404 
     17 C17         2.1483  -22.7005  -46.8980 C.3       23 UNK        -0.0398 
     18 CA          0.8833  -23.4626  -46.4135 C.3       11 UNK         0.1400 
     19 N           0.6478  -23.3619  -44.9684 N.am      11 UNK        -0.5000 
     20 C          -0.0393  -24.2919  -44.2839 C.2       10 UNK         0.5000 
     21 O          -0.5297  -25.2924  -44.8082 O.2       10 UNK        -0.5000 
     22 CA         -0.2536  -24.0657  -42.7761 C.3       10 UNK         0.1400 
     23 CB          0.9549  -24.5756  -41.9776 C.3       10 UNK        -0.1800 
     24 N          -0.5148  -22.6729  -42.4204 N.am      10 UNK        -0.5000 
     25 C          -1.5440  -21.9416  -42.8667 C.2       9 UNK         0.5000 
     26 O          -2.3993  -22.3705  -43.6420 O.2       9 UNK        -0.5000 
     27 CA         -1.6125  -20.4695  -42.4118 C.3       9 UNK         0.1400 
     28 CB         -0.7514  -20.1545  -41.1680 C.3       9 UNK        -0.1800 
     29 N          -1.2773  -19.5460  -43.4999 N.am      9 UNK        -0.5000 
     30 C          -0.1636  -19.5466  -44.2484 C.2       8 UNK         0.5000 
     31 O           0.7241  -20.3976  -44.1497 O.2       8 UNK        -0.5000 
     32 CA         -0.0310  -18.4324  -45.3108 C.3       8 UNK         0.1400 
     33 CB         -0.9956  -17.2455  -45.1082 C.3       8 UNK        -0.1800 
     34 N           1.3421  -17.9472  -45.4589 N.am      8 UNK        -0.5000 
     35 C           2.1386  -17.4499  -44.5037 C.2       7 UNK         0.5000 
     36 O           1.8032  -17.3157  -43.3267 O.2       7 UNK        -0.5000 
     37 CA          3.5561  -17.0260  -44.9183 C.3       7 UNK         0.1400 
     38 CB          3.9531  -17.4066  -46.3645 C.3       7 UNK        -0.1800 
     39 N           3.6789  -15.5887  -44.7015 N.am      7 UNK        -0.5000 
     40 C           4.8308  -14.9212  -44.5744 C.2       6 UNK         0.5000 
     41 O           5.9423  -15.4492  -44.6313 O.2       6 UNK        -0.5000 
     42 CA          4.7252  -13.4098  -44.3271 C.3       6 UNK         0.1400 
     43 CB          4.1875  -12.6853  -45.5705 C.3       6 UNK        -0.1800 
     44 N           3.8546  -13.1296  -43.1877 N.am      6 UNK        -0.5000 
     45 C           4.2847  -12.9264  -41.9343 C.2       5 UNK         0.5000 
     46 O           5.4720  -12.9550  -41.6075 O.2       5 UNK        -0.5000 
     47 CA          3.2228  -12.6166  -40.8595 C.3       5 UNK         0.1400 
     48 CB          3.1449  -11.1027  -40.6075 C.3       5 UNK        -0.1800 
     49 N           1.8907  -13.1005  -41.2177 N.am      5 UNK        -0.5000 
     50 C           1.4972  -14.3789  -41.1420 C.2       4 UNK         0.5000 
     51 O           2.1870  -15.2743  -40.6543 O.2       4 UNK        -0.5000 
     52 CA          0.1010  -14.7094  -41.7110 C.3       4 UNK         0.1400 
     53 CB         -0.9288  -14.8301  -40.5774 C.3       4 UNK        -0.1800 
     54 N          -0.3884  -13.7384  -42.6979 N.am      4 UNK        -0.5000 
     55 C           0.1791  -13.4990  -43.8874 C.2       3 UNK         0.5000 
     56 O           1.2147  -14.0452  -44.2757 O.2       3 UNK        -0.5000 
     57 CA         -0.4773  -12.4108  -44.7527 C.3       3 UNK         0.1400 
     58 CB          0.3194  -11.1009  -44.6519 C.3       3 UNK        -0.1800 
     59 N          -0.5395  -12.8383  -46.1477 N.am      3 UNK        -0.5000 
     60 C          -1.4359  -13.7194  -46.6159 C.2       2 UNK         0.5000 
     61 O          -2.3752  -14.1458  -45.9428 O.2       2 UNK        -0.5000 
     62 CA         -1.2770  -14.2217  -48.0661 C.3       2 UNK         0.1400 
     63 CB         -2.3684  -13.6389  -48.9770 C.3       2 UNK        -0.1800 
     64 N           0.0307  -13.9355  -48.6509 N.am      2 UNK        -0.5000 
     65 C           1.1692  -14.5577  -48.3157 C.2       1 UNK         0.5000 
     66 O           1.2180  -15.4991  -47.5269 O.2       1 UNK        -0.5000 
     67 C          -0.3966  -23.1465  -47.2166 C.2       11 UNK         0.5000 
     68 O          -0.6254  -23.7694  -48.2523 O.2       11 UNK        -0.5000 
     69 N          -1.2305  -22.2278  -46.7034 N.am      12 UNK        -0.5000 
     70 CA         -2.5384  -21.8986  -47.2717 C.3       12 UNK         0.1400 
     71 CB         -3.0985  -20.6255  -46.6191 C.3       12 UNK        -0.1800 
     72 C          -3.5242  -23.0680  -47.1283 C.2       12 UNK         0.5000 
     73 O          -4.2399  -23.3741  -48.0807 O.2       12 UNK        -0.5000 
     74 N          -3.5051  -23.7288  -45.9618 N.am      13 UNK        -0.5000 
     75 CA         -4.2690  -24.9422  -45.6771 C.3       13 UNK         0.1400 
     76 CB         -4.1357  -25.3002  -44.1895 C.3       13 UNK        -0.1800 
     77 C          -3.8509  -26.1237  -46.5711 C.2       13 UNK         0.5000 
     78 O          -4.7215  -26.7973  -47.1217 O.2       13 UNK        -0.5000 
     79 N          -2.5352  -26.3232  -46.7445 N.am      14 UNK        -0.5000 
     80 CA         -1.9571  -27.3388  -47.6309 C.3       14 UNK         0.1400 
     81 CB         -0.4362  -27.3959  -47.4252 C.3       14 UNK        -0.1800 
     82 C          -2.2954  -27.1075  -49.1170 C.2       14 UNK         0.5000 
     83 O          -2.5608  -28.0689  -49.8389 O.2       14 UNK        -0.5000 
     84 N          -2.3176  -25.8350  -49.5342 N.am      15 UNK        -0.5000 
     85 CA         -2.7313  -25.3881  -50.8656 C.3       15 UNK         0.1400 
     86 CB         -2.1799  -23.9709  -51.0898 C.3       15 UNK        -0.1800 
     87 C          -4.2598  -25.3990  -51.0792 C.2       15 UNK         0.5000 
     88 O          -4.7079  -25.1589  -52.2026 O.2       15 UNK        -0.5000 
     89 N          -5.0300  -25.6168  -50.0004 N.am      16 UNK        -0.5000 
     90 CA         -6.4920  -25.5260  -49.9100 C.3       16 UNK         0.1400 
     91 CB         -7.1505  -26.6956  -50.6692 C.3       16 UNK        -0.1800 
     92 C          -7.0222  -24.1456  -50.3549 C.2       16 UNK         0.5000 
     93 O          -8.0737  -24.0613  -50.9925 O.2       16 UNK        -0.5000 
     94 N          -6.2369  -23.0969  -50.0640 N.am      17 UNK        -0.5000 
     95 CA         -6.3140  -21.7056  -50.5230 C.3       17 UNK         0.1400 
     96 CB         -7.6042  -21.0230  -50.0318 C.3       17 UNK        -0.1800 
     97 C          -6.1344  -21.5225  -52.0448 C.2       17 UNK         0.5000 
     98 O          -5.3885  -20.6379  -52.4645 O.2       17 UNK        -0.5000 
     99 N          -6.8254  -22.3464  -52.8392 N.am      18 UNK        -0.5000 
    100 CA        -6.9510  -22.2603  -54.2905 C.3       18 UNK         0.1400 
    101 CB        -7.9562  -23.3191  -54.7677 C.3       18 UNK        -0.1800 
    102 C         -5.6278  -22.3896  -55.0618 C.2       18 UNK         0.5000 
    103 O         -5.4142  -21.6240  -56.0022 O.2       18 UNK        -0.5000 
    104 N         -4.7599  -23.3339  -54.6662 N.am      19 UNK        -0.5000 
    105 CA        -3.5134  -23.6234  -55.3877 C.3       19 UNK         0.1400 
    106 CB        -2.9667  -24.9945  -54.9628 C.3       19 UNK        -0.1800 
    107 C         -2.4401  -22.5295  -55.2261 C.2       19 UNK         0.5000 
    108 O         -1.5863  -22.3877  -56.1021 O.2       19 UNK        -0.5000 
    109 N         -2.5134  -21.7719  -54.1251 N.am      20 UNK        -0.5000 
    110 CA        -1.6428  -20.6325  -53.8295 C.3       20 UNK         0.1400 
    111 CB        -1.2199  -20.7149  -52.3555 C.3       20 UNK        -0.1800 
    112 C         -2.3164  -19.2819  -54.1520 C.2       20 UNK         0.5000 
    113 O         -1.6559  -18.2466  -54.0621 O.2       20 UNK        -0.5000 
    114 N         -3.6027  -19.3184  -54.5355 N.am      21 UNK        -0.5000 
    115 CA        -4.4823  -18.1909  -54.8578 C.3       21 UNK         0.1400 
    116 CB        -4.0247  -17.4977  -56.1580 C.3       21 UNK        -0.1800 
    117 C         -4.6649  -17.2154  -53.6753 C.2       21 UNK         0.5000 
    118 O         -4.6127  -15.9973  -53.8603 O.2       21 UNK        -0.5000 
    119 N         -4.8599  -17.7748  -52.4753 N.am      22 UNK        -0.5000 
    120 CA        -5.0514  -17.0303  -51.2221 C.3       22 UNK         0.1400 
    121 C         -6.4010  -16.2618  -51.1843 C.2       22 UNK         0.5000 
    122 N         -6.4226  -15.0560  -50.6325 N.am      22 UNK        -0.7600 
    123 O         -7.4378  -16.7673  -51.6091 O.2       22 UNK        -0.5000 
    124 C124       -4.9184  -17.9385  -49.9716 C.3       23 UNK        -0.0398 
    125 S125       -3.3875  -18.9266  -49.9596 S.3       23 UNK        -0.2404 
    126 C126       -2.2042  -17.7446  -49.2508 C.3       23 UNK        -0.0205 
    127 H127        1.1378   -9.7583  -49.4816 H         1 UNK         0.0600 
    128 H128        2.8435   -9.5514  -49.0705 H         1 UNK         0.0600 
    129 H129        2.3891  -10.3606  -50.5733 H         1 UNK         0.0600 
    130 H130        2.6069  -12.5690  -50.4551 H         1 UNK         0.3000 
    131 H131        3.2046  -14.0043  -48.1309 H         1 UNK         0.0600 
    132 H132        3.1043  -16.0172  -49.6022 H         1 UNK         0.0800 
    133 H133        4.0548  -14.7268  -50.2676 H         1 UNK         0.0800 
    134 H134        1.4799  -16.9174  -52.9186 H         1 UNK         0.0800 
    135 H135        2.9977  -17.1669  -52.0926 H         1 UNK         0.0800 
    136 H136       -0.5473  -16.4261  -50.9752 H         1 UNK         0.1150 
    137 H137       -0.7184  -19.8829  -48.4476 H         1 UNK         0.1150 
    138 H138        2.8338  -19.0440  -50.6840 H         1 UNK         0.1150 
    139 H139        1.0890  -21.7075  -49.2998 H         1 UNK         0.0800 
    140 H140        2.7071  -21.0745  -49.4724 H         1 UNK         0.0800 
    141 H141        2.5097  -23.1603  -47.8193 H         1 UNK         0.0800 
    142 H142        2.9567  -22.8423  -46.1796 H         1 UNK         0.0800 
    143 H143        1.0999  -24.5144  -46.6141 H         1 UNK         0.0600 
    144 H144        0.9633  -22.5172  -44.5033 H         1 UNK         0.3000 
    145 H145       -1.1274  -24.6490  -42.4787 H         1 UNK         0.0600 
    146 H146        0.7753  -24.5097  -40.9043 H         1 UNK         0.0600 
    147 H147        1.1616  -25.6218  -42.2074 H         1 UNK         0.0600 
    148 H148        1.8567  -24.0051  -42.2036 H         1 UNK         0.0600 
    149 H149        0.1644  -22.2236  -41.8240 H         1 UNK         0.3000 
    150 H150       -2.6543  -20.2811  -42.1487 H         1 UNK         0.0600 
    151 H151       -0.9987  -20.8174  -40.3378 H         1 UNK         0.0600 
    152 H152       -0.9270  -19.1345  -40.8256 H         1 UNK         0.0600 
    153 H153        0.3166  -20.2498  -41.3677 H         1 UNK         0.0600 
    154 H154       -1.9611  -18.8244  -43.6766 H         1 UNK         0.3000 
    155 H155       -0.2793  -18.8978  -46.2632 H         1 UNK         0.0600 
    156 H156       -0.8295  -16.4898  -45.8738 H         1 UNK         0.0600 
    157 H157       -0.8559  -16.7653  -44.1395 H         1 UNK         0.0600 
    158 H158       -2.0387  -17.5524  -45.1889 H         1 UNK         0.0600 
    159 H159        1.7171  -18.0076  -46.3949 H         1 UNK         0.3000 
    160 H160        4.2374  -17.5374  -44.2354 H         1 UNK         0.0600 
    161 H161        3.3566  -16.8789  -47.1070 H         1 UNK         0.0600 
    162 H162        3.8344  -18.4768  -46.5374 H         1 UNK         0.0600 
    163 H163        4.9989  -17.1724  -46.5614 H         1 UNK         0.0600 
    164 H164        2.7971  -15.0888  -44.6013 H         1 UNK         0.3000 
    165 H165        5.7300  -13.0279  -44.1336 H         1 UNK         0.0600 
    166 H166        3.1816  -13.0177  -45.8268 H         1 UNK         0.0600 
    167 H167        4.1501  -11.6071  -45.4148 H         1 UNK         0.0600 
    168 H168        4.8246  -12.8675  -46.4366 H         1 UNK         0.0600 
    169 H169        2.8588  -13.1752  -43.3662 H         1 UNK         0.3000 
    170 H170        3.5368  -13.1012  -39.9325 H         1 UNK         0.0600 
    171 H171        4.1161  -10.7059  -40.3088 H         1 UNK         0.0600 
    172 H172        2.8297  -10.5612  -41.5004 H         1 UNK         0.0600 
    173 H173        2.4413  -10.8714  -39.8075 H         1 UNK         0.0600 
    174 H174        1.2495  -12.4250  -41.6053 H         1 UNK         0.3000 
    175 H175        0.1705  -15.6785  -42.2050 H         1 UNK         0.0600 
    176 H176       -1.0651  -13.8826  -40.0548 H         1 UNK         0.0600 
    177 H177       -1.8994  -15.1488  -40.9580 H         1 UNK         0.0600 
    178 H178       -0.6128  -15.5696  -39.8402 H         1 UNK         0.0600 
    179 H179       -1.2281  -13.2362  -42.4477 H         1 UNK         0.3000 
    180 H180       -1.4918  -12.2228  -44.3945 H         1 UNK         0.0600 
    181 H181        1.3613  -11.2376  -44.9444 H         1 UNK         0.0600 
    182 H182        0.3147  -10.7181  -43.6308 H         1 UNK         0.0600 
    183 H183       -0.1077  -10.3285  -45.2916 H         1 UNK         0.0600 
    184 H184        0.2339  -12.5511  -46.7390 H         1 UNK         0.3000 
    185 H185       -1.4007  -15.3044  -48.0354 H         1 UNK         0.0600 
    186 H186       -3.3627  -13.8687  -48.5921 H         1 UNK         0.0600 
    187 H187       -2.2884  -12.5540  -49.0550 H         1 UNK         0.0600 
    188 H188       -2.3061  -14.0550  -49.9829 H         1 UNK         0.0600 
    189 H189        0.0832  -13.1677  -49.3035 H         1 UNK         0.3000 
    190 H190       -0.9911  -21.8075  -45.8177 H         1 UNK         0.3000 
    191 H191       -2.4072  -21.7021  -48.3381 H         1 UNK         0.0600 
    192 H192       -4.0607  -20.3589  -47.0583 H         1 UNK         0.0600 
    193 H193       -2.4341  -19.7770  -46.7685 H         1 UNK         0.0600 
    194 H194       -3.2524  -20.7477  -45.5474 H         1 UNK         0.0600 
    195 H195       -2.9319  -23.3645  -45.2060 H         1 UNK         0.3000 
    196 H196       -5.3200  -24.7269  -45.8809 H         1 UNK         0.0600 
    197 H197       -4.7274  -26.1835  -43.9463 H         1 UNK         0.0600 
    198 H198       -4.4890  -24.4865  -43.5558 H         1 UNK         0.0600 
    199 H199       -3.1023  -25.5114  -43.9150 H         1 UNK         0.0600 
    200 H200       -1.8798  -25.7601  -46.2113 H         1 UNK         0.3000 
    201 H201       -2.3747  -28.3058  -47.3434 H         1 UNK         0.0600 
    202 H202       -0.1860  -27.6227  -46.3887 H         1 UNK         0.0600 
    203 H203        0.0403  -26.4511  -47.6866 H         1 UNK         0.0600 
    204 H204        0.0128  -28.1725  -48.0456 H         1 UNK         0.0600 
    205 H205       -2.0130  -25.1081  -48.8947 H         1 UNK         0.3000 
    206 H206       -2.2914  -26.0526  -51.6117 H         1 UNK         0.0600 
    207 H207       -1.0917  -23.9559  -51.0290 H         1 UNK         0.0600 
    208 H208       -2.4535  -23.5906  -52.0718 H         1 UNK         0.0600 
    209 H209       -2.5659  -23.2672  -50.3519 H         1 UNK         0.0600 
    210 H210       -4.5597  -25.7841  -49.1201 H         1 UNK         0.3000 
    211 H211       -6.7437  -25.6265  -48.8535 H         1 UNK         0.0600 
    212 H212       -6.9818  -26.6260  -51.7444 H         1 UNK         0.0600 
    213 H213       -8.2288  -26.7105  -50.5068 H         1 UNK         0.0600 
    214 H214       -6.7586  -27.6544  -50.3296 H         1 UNK         0.0600 
    215 H215       -5.4191  -23.2967  -49.4900 H         1 UNK         0.3000 
    216 H216       -5.4724  -21.1984  -50.0495 H         1 UNK         0.0600 
    217 H217       -8.4989  -21.5072  -50.4231 H         1 UNK         0.0600 
    218 H218       -7.6422  -19.9803  -50.3484 H         1 UNK         0.0600 
    219 H219       -7.6645  -21.0364  -48.9436 H         1 UNK         0.0600 
    220 H220       -7.3951  -23.0499  -52.3755 H         1 UNK         0.3000 
    221 H221       -7.3643  -21.2756  -54.5185 H         1 UNK         0.0600 
    222 H222       -7.6250  -24.3280  -54.5174 H         1 UNK         0.0600 
    223 H223       -8.9350  -23.1665  -54.3127 H         1 UNK         0.0600 
    224 H224       -8.0904  -23.2744  -55.8494 H         1 UNK         0.0600 
    225 H225       -4.9770  -23.9189  -53.8647 H         1 UNK         0.3000 
    226 H226       -3.7520  -23.6841  -56.4519 H         1 UNK         0.0600 
    227 H227       -3.7202  -25.7742  -55.0753 H         1 UNK         0.0600 
    228 H228       -2.1113  -25.2778  -55.5772 H         1 UNK         0.0600 
    229 H229       -2.6340  -24.9965  -53.9265 H         1 UNK         0.0600 
    230 H230       -3.2633  -21.9475  -53.4711 H         1 UNK         0.3000 
    231 H231       -0.7359  -20.6813  -54.4355 H         1 UNK         0.0600 
    232 H232       -2.0822  -20.7905  -51.6945 H         1 UNK         0.0600 
    233 H233       -0.5876  -21.5842  -52.1762 H         1 UNK         0.0600 
    234 H234       -0.6484  -19.8355  -52.0589 H         1 UNK         0.0600 
    235 H235       -4.0488  -20.2243  -54.5689 H         1 UNK         0.3000 
    236 H236       -5.4664  -18.6225  -55.0461 H         1 UNK         0.0600 
    237 H237       -3.9340  -18.2143  -56.9744 H         1 UNK         0.0600 
    238 H238       -4.7441  -16.7401  -56.4707 H         1 UNK         0.0600 
    239 H239       -3.0607  -17.0029  -56.0366 H         1 UNK         0.0600 
    240 H240       -4.9121  -18.7879  -52.4113 H         1 UNK         0.3000 
    241 H241       -4.2499  -16.2905  -51.1767 H         1 UNK         0.0600 
    242 H242       -5.5877  -14.6178  -50.2769 H         1 UNK         0.3800 
    243 H243       -7.2972  -14.5561  -50.5895 H         1 UNK         0.3800 
    244 H244       -4.9609  -17.3446  -49.0569 H         1 UNK         0.0800 
    245 H245       -5.7566  -18.6328  -49.9188 H         1 UNK         0.0800 
    246 H246       -2.3016  -17.7314  -48.1647 H         1 UNK         0.0800 
    247 H247       -2.4474  -16.7411  -49.6001 H         1 UNK         0.0800 
@<TRIPOS>BOND
     1    1    2 1    
     2    1  127 1    
     3    1  128 1    
     4    1  129 1    
     5    2    3 2    
     6    2    4 am   BACKBONE|DICT|INTERRES
     7    4    5 1    
     8    4  130 1    
     9    5    6 1    
    10    5   65 1    
    11    5  131 1    
    12    6    7 1    
    13    6  132 1    
    14    6  133 1    
    15    7    8 1    
    16    8    9 1    
    17    8  134 1    
    18    8  135 1    
    19    9   10 ar   
    20    9   14 ar   
    21   10   11 ar   
    22   10  136 1    
    23   11   12 ar   
    24   11  126 1    
    25   12   13 ar   
    26   12  137 1    
    27   13   14 ar   
    28   13   15 1    
    29   14  138 1    
    30   15   16 1    
    31   15  139 1    
    32   15  140 1    
    33   16   17 1    
    34   17   18 1    
    35   17  141 1    
    36   17  142 1    
    37   18   19 1    
    38   18   67 1    
    39   18  143 1    
    40   19   20 am   BACKBONE|DICT|INTERRES
    41   19  144 1    
    42   20   21 2    
    43   20   22 1    
    44   22   23 1    
    45   22   24 1    
    46   22  145 1    
    47   23  146 1    
    48   23  147 1    
    49   23  148 1    
    50   24   25 am   BACKBONE|DICT|INTERRES
    51   24  149 1    
    52   25   26 2    
    53   25   27 1    
    54   27   28 1    
    55   27   29 1    
    56   27  150 1    
    57   28  151 1    
    58   28  152 1    
    59   28  153 1    
    60   29   30 am   BACKBONE|DICT|INTERRES
    61   29  154 1    
    62   30   31 2    
    63   30   32 1    
    64   32   33 1    
    65   32   34 1    
    66   32  155 1    
    67   33  156 1    
    68   33  157 1    
    69   33  158 1    
    70   34   35 am   BACKBONE|DICT|INTERRES
    71   34  159 1    
    72   35   36 2    
    73   35   37 1    
    74   37   38 1    
    75   37   39 1    
    76   37  160 1    
    77   38  161 1    
    78   38  162 1    
    79   38  163 1    
    80   39   40 am   BACKBONE|DICT|INTERRES
    81   39  164 1    
    82   40   41 2    
    83   40   42 1    
    84   42   43 1    
    85   42   44 1    
    86   42  165 1    
    87   43  166 1    
    88   43  167 1    
    89   43  168 1    
    90   44   45 am   BACKBONE|DICT|INTERRES
    91   44  169 1    
    92   45   46 2    
    93   45   47 1    
    94   47   48 1    
    95   47   49 1    
    96   47  170 1    
    97   48  171 1    
    98   48  172 1    
    99   48  173 1    
   100   49   50 am   BACKBONE|DICT|INTERRES
   101   49  174 1    
   102   50   51 2    
   103   50   52 1    
   104   52   53 1    
   105   52   54 1    
   106   52  175 1    
   107   53  176 1    
   108   53  177 1    
   109   53  178 1    
   110   54   55 am   BACKBONE|DICT|INTERRES
   111   54  179 1    
   112   55   56 2    
   113   55   57 1    
   114   57   58 1    
   115   57   59 1    
   116   57  180 1    
   117   58  181 1    
   118   58  182 1    
   119   58  183 1    
   120   59   60 am   BACKBONE|DICT|INTERRES
   121   59  184 1    
   122   60   61 2    
   123   60   62 1    
   124   62   63 1    
   125   62   64 1    
   126   62  185 1    
   127   63  186 1    
   128   63  187 1    
   129   63  188 1    
   130   64   65 am   BACKBONE|DICT|INTERRES
   131   64  189 1    
   132   65   66 2    
   133   67   68 2    
   134   67   69 am   BACKBONE|DICT|INTERRES
   135   69   70 1    
   136   69  190 1    
   137   70   71 1    
   138   70   72 1    
   139   70  191 1    
   140   71  192 1    
   141   71  193 1    
   142   71  194 1    
   143   72   73 2    
   144   72   74 am   BACKBONE|DICT|INTERRES
   145   74   75 1    
   146   74  195 1    
   147   75   76 1    
   148   75   77 1    
   149   75  196 1    
   150   76  197 1    
   151   76  198 1    
   152   76  199 1    
   153   77   78 2    
   154   77   79 am   BACKBONE|DICT|INTERRES
   155   79   80 1    
   156   79  200 1    
   157   80   81 1    
   158   80   82 1    
   159   80  201 1    
   160   81  202 1    
   161   81  203 1    
   162   81  204 1    
   163   82   83 2    
   164   82   84 am   BACKBONE|DICT|INTERRES
   165   84   85 1    
   166   84  205 1    
   167   85   86 1    
   168   85   87 1    
   169   85  206 1    
   170   86  207 1    
   171   86  208 1    
   172   86  209 1    
   173   87   88 2    
   174   87   89 am   BACKBONE|DICT|INTERRES
   175   89   90 1    
   176   89  210 1    
   177   90   91 1    
   178   90   92 1    
   179   90  211 1    
   180   91  212 1    
   181   91  213 1    
   182   91  214 1    
   183   92   93 2    
   184   92   94 am   BACKBONE|DICT|INTERRES
   185   94   95 1    
   186   94  215 1    
   187   95   96 1    
   188   95   97 1    
   189   95  216 1    
   190   96  217 1    
   191   96  218 1    
   192   96  219 1    
   193   97   98 2    
   194   97   99 am   BACKBONE|DICT|INTERRES
   195   99  100 1    
   196   99  220 1    
   197  100  101 1    
   198  100  102 1    
   199  100  221 1    
   200  101  222 1    
   201  101  223 1    
   202  101  224 1    
   203  102  103 2    
   204  102  104 am   BACKBONE|DICT|INTERRES
   205  104  105 1    
   206  104  225 1    
   207  105  106 1    
   208  105  107 1    
   209  105  226 1    
   210  106  227 1    
   211  106  228 1    
   212  106  229 1    
   213  107  108 2    
   214  107  109 am   BACKBONE|DICT|INTERRES
   215  109  110 1    
   216  109  230 1    
   217  110  111 1    
   218  110  112 1    
   219  110  231 1    
   220  111  232 1    
   221  111  233 1    
   222  111  234 1    
   223  112  113 2    
   224  112  114 am   BACKBONE|DICT|INTERRES
   225  114  115 1    
   226  114  235 1    
   227  115  116 1    
   228  115  117 1    
   229  115  236 1    
   230  116  237 1    
   231  116  238 1    
   232  116  239 1    
   233  117  118 2    
   234  117  119 am   BACKBONE|DICT|INTERRES
   235  119  120 1    
   236  119  240 1    
   237  120  121 1    
   238  120  124 1    
   239  120  241 1    
   240  121  122 am   BACKBONE|DICT|INTERRES
   241  121  123 2    
   242  122  242 1    
   243  122  243 1    
   244  124  125 1    
   245  124  244 1    
   246  124  245 1    
   247  125  126 1    
   248  126  246 1    
   249  126  247 1    
@<TRIPOS>SUBSTRUCTURE
     1 UNK         1 GROUP             0       ****    0 ROOT    
