@<TRIPOS>MOLECULE
3R540
247   249    1
SMALL
USER_CHARGES


@<TRIPOS>ATOM
      1 CA          0.0152  -15.3806  -51.7921 C.3       0 UNK        -0.1800 
      2 C           1.0360  -15.1304  -50.6954 C.2       0 UNK         0.5000 
      3 O           1.1374  -14.0071  -50.2019 O.2       0 UNK        -0.5000 
      4 N           1.7804  -16.1730  -50.3028 N.am      1 UNK        -0.5000 
      5 CA          2.7502  -16.1538  -49.2007 C.3       1 UNK         0.1400 
      6 C6          3.6582  -17.4103  -49.1916 C.3       23 UNK        -0.0398 
      7 S7          4.8202  -17.4156  -50.5968 S.3       23 UNK        -0.2404 
      8 C8          5.2667  -19.1844  -50.7068 C.3       23 UNK        -0.0205 
      9 C9          4.1408  -20.0924  -51.1978 C.ar      23 UNK        -0.0193 
     10 C10         3.2337  -19.6618  -52.1706 C.ar      23 UNK        -0.1150 
     11 C11         2.2109  -20.5000  -52.6156 C.ar      23 UNK        -0.0193 
     12 C12         2.0984  -21.7862  -52.0823 C.ar      23 UNK        -0.1150 
     13 C13         3.0156  -22.2545  -51.1343 C.ar      23 UNK        -0.0193 
     14 C14         4.0396  -21.3978  -50.7044 C.ar      23 UNK        -0.1150 
     15 C15         2.8647  -23.7025  -50.6574 C.3       23 UNK        -0.0205 
     16 S16         3.9655  -24.2859  -49.3123 S.3       23 UNK        -0.2404 
     17 C17         3.5378  -23.2421  -47.8751 C.3       23 UNK        -0.0398 
     18 CA          2.3090  -23.7229  -47.0600 C.3       11 UNK         0.1400 
     19 N           2.3990  -23.2608  -45.6710 N.am      11 UNK        -0.5000 
     20 C           1.4387  -23.3003  -44.7370 C.2       10 UNK         0.5000 
     21 O           0.3706  -23.8948  -44.8768 O.2       10 UNK        -0.5000 
     22 CA          1.6787  -22.4973  -43.4440 C.3       10 UNK         0.1400 
     23 CB          2.0023  -23.4456  -42.2799 C.3       10 UNK        -0.1800 
     24 N           2.7077  -21.4492  -43.4990 N.am      10 UNK        -0.5000 
     25 C           2.8312  -20.4554  -44.3945 C.2       9 UNK         0.5000 
     26 O           2.1679  -20.3615  -45.4300 O.2       9 UNK        -0.5000 
     27 CA          3.8795  -19.3836  -44.0236 C.3       9 UNK         0.1400 
     28 CB          4.0816  -18.3188  -45.1212 C.3       9 UNK        -0.1800 
     29 N           3.5631  -18.7667  -42.7267 N.am      9 UNK        -0.5000 
     30 C           2.4267  -18.1241  -42.4177 C.2       8 UNK         0.5000 
     31 O           1.5525  -17.8347  -43.2346 O.2       8 UNK        -0.5000 
     32 CA          2.2141  -17.7556  -40.9406 C.3       8 UNK         0.1400 
     33 CB          2.4435  -16.2535  -40.7127 C.3       8 UNK        -0.1800 
     34 N           0.8393  -18.0933  -40.5842 N.am      8 UNK        -0.5000 
     35 C           0.4295  -19.3202  -40.2292 C.2       7 UNK         0.5000 
     36 O           1.1953  -20.2347  -39.9221 O.2       7 UNK        -0.5000 
     37 CA         -1.0912  -19.5840  -40.2721 C.3       7 UNK         0.1400 
     38 CB         -1.7479  -19.2067  -38.9359 C.3       7 UNK        -0.1800 
     39 N          -1.7424  -18.8452  -41.3551 N.am      7 UNK        -0.5000 
     40 C          -1.5179  -19.0624  -42.6582 C.2       6 UNK         0.5000 
     41 O          -0.9504  -20.0700  -43.0783 O.2       6 UNK        -0.5000 
     42 CA         -1.9769  -17.9847  -43.6661 C.3       6 UNK         0.1400 
     43 CB         -2.9219  -18.5854  -44.7192 C.3       6 UNK        -0.1800 
     44 N          -2.6077  -16.7777  -43.1131 N.am      6 UNK        -0.5000 
     45 C          -2.0567  -15.8839  -42.2780 C.2       5 UNK         0.5000 
     46 O          -0.9938  -16.0581  -41.6802 O.2       5 UNK        -0.5000 
     47 CA         -2.8278  -14.5644  -42.1205 C.3       5 UNK         0.1400 
     48 CB         -2.1121  -13.5440  -41.2144 C.3       5 UNK        -0.1800 
     49 N          -3.0349  -13.9876  -43.4463 N.am      5 UNK        -0.5000 
     50 C          -4.0891  -13.2517  -43.8197 C.2       4 UNK         0.5000 
     51 O          -5.0246  -12.9783  -43.0663 O.2       4 UNK        -0.5000 
     52 CA         -4.1148  -12.7172  -45.2689 C.3       4 UNK         0.1400 
     53 CB         -3.7498  -11.2247  -45.2939 C.3       4 UNK        -0.1800 
     54 N          -3.2236  -13.4314  -46.1857 N.am      4 UNK        -0.5000 
     55 C          -3.4086  -14.6863  -46.6162 C.2       3 UNK         0.5000 
     56 O          -4.3927  -15.3665  -46.3269 O.2       3 UNK        -0.5000 
     57 CA         -2.2966  -15.2994  -47.4937 C.3       3 UNK         0.1400 
     58 CB         -2.6619  -15.1881  -48.9820 C.3       3 UNK        -0.1800 
     59 N          -0.9493  -14.7490  -47.2941 N.am      3 UNK        -0.5000 
     60 C          -0.2824  -14.6956  -46.1304 C.2       2 UNK         0.5000 
     61 O          -0.7976  -14.9526  -45.0444 O.2       2 UNK        -0.5000 
     62 CA          1.2002  -14.2685  -46.1961 C.3       2 UNK         0.1400 
     63 CB          1.9960  -14.6808  -44.9415 C.3       2 UNK        -0.1800 
     64 N           1.8865  -14.7237  -47.4112 N.am      2 UNK        -0.5000 
     65 C           2.0130  -15.9837  -47.8574 C.2       1 UNK         0.5000 
     66 O           1.5451  -16.9719  -47.2938 O.2       1 UNK        -0.5000 
     67 C           1.0110  -23.2538  -47.7488 C.2       11 UNK         0.5000 
     68 O           0.3031  -24.0722  -48.3347 O.2       11 UNK        -0.5000 
     69 N           0.7102  -21.9511  -47.6377 N.am      12 UNK        -0.5000 
     70 CA         -0.4345  -21.3216  -48.2936 C.3       12 UNK         0.1400 
     71 CB         -0.3022  -19.7951  -48.1965 C.3       12 UNK        -0.1800 
     72 C          -1.7885  -21.8073  -47.7440 C.2       12 UNK         0.5000 
     73 O          -2.7522  -21.8816  -48.5066 O.2       12 UNK        -0.5000 
     74 N          -1.8346  -22.1607  -46.4525 N.am      13 UNK        -0.5000 
     75 CA         -2.9940  -22.7852  -45.8190 C.3       13 UNK         0.1400 
     76 CB         -2.9368  -22.5783  -44.2981 C.3       13 UNK        -0.1800 
     77 C          -3.0899  -24.2809  -46.1635 C.2       13 UNK         0.5000 
     78 O          -4.1738  -24.7512  -46.5070 O.2       13 UNK        -0.5000 
     79 N          -1.9576  -24.9951  -46.0864 N.am      14 UNK        -0.5000 
     80 CA         -1.8447  -26.4340  -46.3391 C.3       14 UNK         0.1400 
     81 CB         -0.4315  -26.9079  -45.9670 C.3       14 UNK        -0.1800 
     82 C          -2.1856  -26.8296  -47.7867 C.2       14 UNK         0.5000 
     83 O          -2.8894  -27.8177  -47.9985 O.2       14 UNK        -0.5000 
     84 N          -1.7082  -26.0347  -48.7528 N.am      15 UNK        -0.5000 
     85 CA         -2.0124  -26.1837  -50.1772 C.3       15 UNK         0.1400 
     86 CB         -0.9136  -25.4786  -50.9907 C.3       15 UNK        -0.1800 
     87 C          -3.3967  -25.6215  -50.5588 C.2       15 UNK         0.5000 
     88 O          -3.8523  -25.8625  -51.6768 O.2       15 UNK        -0.5000 
     89 N          -4.0121  -24.8485  -49.6489 N.am      16 UNK        -0.5000 
     90 CA         -5.2454  -24.0664  -49.8096 C.3       16 UNK         0.1400 
     91 CB         -6.4598  -24.9827  -50.0611 C.3       16 UNK        -0.1800 
     92 C          -5.1223  -22.9377  -50.8570 C.2       16 UNK         0.5000 
     93 O          -6.1342  -22.4201  -51.3317 O.2       16 UNK        -0.5000 
     94 N          -3.8795  -22.5559  -51.1792 N.am      17 UNK        -0.5000 
     95 CA         -3.5258  -21.5087  -52.1314 C.3       17 UNK         0.1400 
     96 CB         -2.0266  -21.6078  -52.4455 C.3       17 UNK        -0.1800 
     97 C          -3.8842  -20.1016  -51.6273 C.2       17 UNK         0.5000 
     98 O          -4.1608  -19.2266  -52.4477 O.2       17 UNK        -0.5000 
     99 N          -3.9136  -19.9134  -50.2983 N.am      18 UNK        -0.5000 
    100 CA        -4.2790  -18.6651  -49.6236 C.3       18 UNK         0.1400 
    101 CB        -4.1632  -18.8470  -48.1032 C.3       18 UNK        -0.1800 
    102 C         -5.6854  -18.1513  -49.9809 C.2       18 UNK         0.5000 
    103 O         -5.8795  -16.9396  -50.0663 O.2       18 UNK        -0.5000 
    104 N         -6.6229  -19.0750  -50.2376 N.am      19 UNK        -0.5000 
    105 CA        -7.9980  -18.7807  -50.6504 C.3       19 UNK         0.1400 
    106 CB        -8.8139  -20.0821  -50.6288 C.3       19 UNK        -0.1800 
    107 C         -8.0972  -18.1043  -52.0333 C.2       19 UNK         0.5000 
    108 O         -9.0670  -17.3893  -52.2874 O.2       19 UNK        -0.5000 
    109 N         -7.0912  -18.3294  -52.8876 N.am      20 UNK        -0.5000 
    110 CA        -6.9510  -17.7251  -54.2120 C.3       20 UNK         0.1400 
    111 CB        -6.6653  -18.8525  -55.2193 C.3       20 UNK        -0.1800 
    112 C         -5.8215  -16.6766  -54.2498 C.2       20 UNK         0.5000 
    113 O         -5.5416  -16.1419  -55.3236 O.2       20 UNK        -0.5000 
    114 N         -5.1492  -16.4440  -53.1097 N.am      21 UNK        -0.5000 
    115 CA        -3.9171  -15.6608  -52.9442 C.3       21 UNK         0.1400 
    116 CB        -4.2215  -14.1530  -53.0415 C.3       21 UNK        -0.1800 
    117 C         -2.7888  -16.1165  -53.8990 C.2       21 UNK         0.5000 
    118 O         -2.0820  -15.2835  -54.4682 O.2       21 UNK        -0.5000 
    119 N         -2.6842  -17.4398  -54.0852 N.am      22 UNK        -0.5000 
    120 CA        -1.8246  -18.1335  -55.0602 C.3       22 UNK         0.1400 
    121 C         -2.1849  -17.8753  -56.5588 C.2       22 UNK         0.5000 
    122 N         -3.3118  -17.2563  -56.8912 N.am      22 UNK        -0.7600 
    123 O         -1.4455  -18.2811  -57.4514 O.2       22 UNK        -0.5000 
    124 C124       -0.3063  -17.9545  -54.7765 C.3       23 UNK        -0.0398 
    125 S125        0.2134  -18.6516  -53.1684 S.3       23 UNK        -0.2404 
    126 C126        1.2761  -20.0251  -53.7168 C.3       23 UNK        -0.0205 
    127 H127       -0.5525  -16.2885  -51.5913 H         1 UNK         0.0600 
    128 H128        0.5112  -15.4827  -52.7570 H         1 UNK         0.0600 
    129 H129       -0.6911  -14.5527  -51.8586 H         1 UNK         0.0600 
    130 H130        1.6467  -17.0693  -50.7489 H         1 UNK         0.3000 
    131 H131        3.3959  -15.2829  -49.3357 H         1 UNK         0.0600 
    132 H132        3.0560  -18.3207  -49.2043 H         1 UNK         0.0800 
    133 H133        4.2546  -17.4495  -48.2783 H         1 UNK         0.0800 
    134 H134        6.1092  -19.2862  -51.3917 H         1 UNK         0.0800 
    135 H135        5.6220  -19.5131  -49.7288 H         1 UNK         0.0800 
    136 H136        3.3226  -18.6721  -52.5953 H         1 UNK         0.1150 
    137 H137        1.3123  -22.4407  -52.4328 H         1 UNK         0.1150 
    138 H138        4.7761  -21.7409  -49.9936 H         1 UNK         0.1150 
    139 H139        1.8278  -23.8830  -50.3812 H         1 UNK         0.0800 
    140 H140        3.0484  -24.3476  -51.5176 H         1 UNK         0.0800 
    141 H141        3.4380  -22.1971  -48.1701 H         1 UNK         0.0800 
    142 H142        4.4230  -23.2673  -47.2379 H         1 UNK         0.0800 
    143 H143        2.3023  -24.8139  -47.0281 H         1 UNK         0.0600 
    144 H144        3.2241  -22.7290  -45.4395 H         1 UNK         0.3000 
    145 H145        0.7366  -21.9998  -43.2143 H         1 UNK         0.0600 
    146 H146        2.0323  -22.9091  -41.3311 H         1 UNK         0.0600 
    147 H147        1.2439  -24.2242  -42.1845 H         1 UNK         0.0600 
    148 H148        2.9647  -23.9393  -42.4201 H         1 UNK         0.0600 
    149 H149        3.3138  -21.4136  -42.6926 H         1 UNK         0.3000 
    150 H150        4.8299  -19.9048  -43.8995 H         1 UNK         0.0600 
    151 H151        4.4136  -18.7798  -46.0519 H         1 UNK         0.0600 
    152 H152        4.8350  -17.5872  -44.8303 H         1 UNK         0.0600 
    153 H153        3.1596  -17.7819  -45.3386 H         1 UNK         0.0600 
    154 H154        4.2272  -18.9466  -41.9866 H         1 UNK         0.3000 
    155 H155        2.9096  -18.3166  -40.3129 H         1 UNK         0.0600 
    156 H156        1.7825  -15.6467  -41.3337 H         1 UNK         0.0600 
    157 H157        3.4694  -15.9750  -40.9559 H         1 UNK         0.0600 
    158 H158        2.2678  -15.9812  -39.6720 H         1 UNK         0.0600 
    159 H159        0.1406  -17.4268  -40.9036 H         1 UNK         0.3000 
    160 H160       -1.2437  -20.6517  -40.4436 H         1 UNK         0.0600 
    161 H161       -1.6406  -18.1427  -38.7207 H         1 UNK         0.0600 
    162 H162       -1.2945  -19.7566  -38.1103 H         1 UNK         0.0600 
    163 H163       -2.8120  -19.4438  -38.9386 H         1 UNK         0.0600 
    164 H164       -2.1950  -17.9791  -41.1029 H         1 UNK         0.3000 
    165 H165       -1.0737  -17.6535  -44.1831 H         1 UNK         0.0600 
    166 H166       -3.1958  -17.8431  -45.4674 H         1 UNK         0.0600 
    167 H167       -2.4480  -19.4134  -45.2479 H         1 UNK         0.0600 
    168 H168       -3.8399  -18.9624  -44.2672 H         1 UNK         0.0600 
    169 H169       -3.4891  -16.5246  -43.5358 H         1 UNK         0.3000 
    170 H170       -3.7908  -14.8138  -41.6702 H         1 UNK         0.0600 
    171 H171       -1.9476  -13.9534  -40.2170 H         1 UNK         0.0600 
    172 H172       -1.1399  -13.2622  -41.6209 H         1 UNK         0.0600 
    173 H173       -2.7029  -12.6354  -41.0985 H         1 UNK         0.0600 
    174 H174       -2.3122  -14.2122  -44.1278 H         1 UNK         0.3000 
    175 H175       -5.1373  -12.8247  -45.6369 H         1 UNK         0.0600 
    176 H176       -2.7294  -11.0549  -44.9479 H         1 UNK         0.0600 
    177 H177       -3.8377  -10.8131  -46.2996 H         1 UNK         0.0600 
    178 H178       -4.4148  -10.6480  -44.6496 H         1 UNK         0.0600 
    179 H179       -2.3802  -12.9522  -46.4643 H         1 UNK         0.3000 
    180 H180       -2.2455  -16.3595  -47.2382 H         1 UNK         0.0600 
    181 H181       -2.5969  -14.1589  -49.3368 H         1 UNK         0.0600 
    182 H182       -3.6808  -15.5311  -49.1647 H         1 UNK         0.0600 
    183 H183       -2.0001  -15.7993  -49.5945 H         1 UNK         0.0600 
    184 H184       -0.4419  -14.4959  -48.1303 H         1 UNK         0.3000 
    185 H185        1.1954  -13.1786  -46.2375 H         1 UNK         0.0600 
    186 H186        1.5639  -14.2479  -44.0384 H         1 UNK         0.0600 
    187 H187        1.9999  -15.7622  -44.8121 H         1 UNK         0.0600 
    188 H188        3.0314  -14.3459  -44.9995 H         1 UNK         0.0600 
    189 H189        2.2363  -13.9850  -48.0073 H         1 UNK         0.3000 
    190 H190        1.2965  -21.3521  -47.0639 H         1 UNK         0.3000 
    191 H191       -0.3947  -21.5935  -49.3502 H         1 UNK         0.0600 
    192 H192        0.6627  -19.4586  -48.5768 H         1 UNK         0.0600 
    193 H193       -1.0678  -19.2974  -48.7916 H         1 UNK         0.0600 
    194 H194       -0.3934  -19.4440  -47.1674 H         1 UNK         0.0600 
    195 H195       -0.9883  -22.1063  -45.9036 H         1 UNK         0.3000 
    196 H196       -3.9009  -22.2996  -46.1865 H         1 UNK         0.0600 
    197 H197       -3.7585  -23.0953  -43.8010 H         1 UNK         0.0600 
    198 H198       -3.0230  -21.5232  -44.0438 H         1 UNK         0.0600 
    199 H199       -2.0061  -22.9511  -43.8695 H         1 UNK         0.0600 
    200 H200       -1.1095  -24.5310  -45.7679 H         1 UNK         0.3000 
    201 H201       -2.5556  -26.9401  -45.6829 H         1 UNK         0.0600 
    202 H202       -0.2150  -26.7140  -44.9163 H         1 UNK         0.0600 
    203 H203        0.3306  -26.4046  -46.5629 H         1 UNK         0.0600 
    204 H204       -0.3220  -27.9809  -46.1294 H         1 UNK         0.0600 
    205 H205       -1.0860  -25.2685  -48.4999 H         1 UNK         0.3000 
    206 H206       -2.0019  -27.2449  -50.4342 H         1 UNK         0.0600 
    207 H207        0.0719  -25.8792  -50.7523 H         1 UNK         0.0600 
    208 H208       -1.0689  -25.6143  -52.0617 H         1 UNK         0.0600 
    209 H209       -0.8939  -24.4054  -50.7959 H         1 UNK         0.0600 
    210 H210       -3.5621  -24.7474  -48.7488 H         1 UNK         0.3000 
    211 H211       -5.4047  -23.5658  -48.8536 H         1 UNK         0.0600 
    212 H212       -6.4142  -25.4594  -51.0404 H         1 UNK         0.0600 
    213 H213       -7.3913  -24.4171  -50.0181 H         1 UNK         0.0600 
    214 H214       -6.5231  -25.7673  -49.3070 H         1 UNK         0.0600 
    215 H215       -3.1182  -22.9878  -50.6770 H         1 UNK         0.3000 
    216 H216       -4.0845  -21.6851  -53.0528 H         1 UNK         0.0600 
    217 H217       -1.7524  -20.9032  -53.2294 H         1 UNK         0.0600 
    218 H218       -1.7594  -22.6035  -52.7998 H         1 UNK         0.0600 
    219 H219       -1.4123  -21.3843  -51.5727 H         1 UNK         0.0600 
    220 H220       -3.6484  -20.6911  -49.6992 H         1 UNK         0.3000 
    221 H221       -3.5621  -17.9044  -49.9369 H         1 UNK         0.0600 
    222 H222       -4.7795  -19.6738  -47.7480 H         1 UNK         0.0600 
    223 H223       -3.1368  -19.0434  -47.8009 H         1 UNK         0.0600 
    224 H224       -4.4854  -17.9478  -47.5764 H         1 UNK         0.0600 
    225 H225       -6.3672  -20.0513  -50.1832 H         1 UNK         0.3000 
    226 H226       -8.4278  -18.0942  -49.9180 H         1 UNK         0.0600 
    227 H227       -8.8037  -20.5394  -49.6393 H         1 UNK         0.0600 
    228 H228       -9.8564  -19.8943  -50.8888 H         1 UNK         0.0600 
    229 H229       -8.4248  -20.8118  -51.3401 H         1 UNK         0.0600 
    230 H230       -6.3218  -18.9167  -52.5891 H         1 UNK         0.3000 
    231 H231       -7.8728  -17.2216  -54.5093 H         1 UNK         0.0600 
    232 H232       -7.4605  -19.5981  -55.2116 H         1 UNK         0.0600 
    233 H233       -5.7263  -19.3615  -54.9965 H         1 UNK         0.0600 
    234 H234       -6.5958  -18.4655  -56.2368 H         1 UNK         0.0600 
    235 H235       -5.4719  -16.9165  -52.2758 H         1 UNK         0.3000 
    236 H236       -3.5587  -15.8622  -51.9338 H         1 UNK         0.0600 
    237 H237       -3.3362  -13.5593  -52.8106 H         1 UNK         0.0600 
    238 H238       -4.5546  -13.8722  -54.0411 H         1 UNK         0.0600 
    239 H239       -4.9987  -13.8630  -52.3345 H         1 UNK         0.0600 
    240 H240       -3.3059  -18.0447  -53.5527 H         1 UNK         0.3000 
    241 H241       -2.0496  -19.1913  -54.9240 H         1 UNK         0.0600 
    242 H242       -3.9508  -16.8928  -56.1920 H         1 UNK         0.3800 
    243 H243       -3.5214  -17.1175  -57.8668 H         1 UNK         0.3800 
    244 H244       -0.0328  -16.8996  -54.8009 H         1 UNK         0.0800 
    245 H245        0.2863  -18.4224  -55.5632 H         1 UNK         0.0800 
    246 H246        1.8887  -19.7056  -54.5609 H         1 UNK         0.0800 
    247 H247        0.6499  -20.8412  -54.0800 H         1 UNK         0.0800 
@<TRIPOS>BOND
     1    1    2 1    
     2    1  127 1    
     3    1  128 1    
     4    1  129 1    
     5    2    3 2    
     6    2    4 am   BACKBONE|DICT|INTERRES
     7    4    5 1    
     8    4  130 1    
     9    5    6 1    
    10    5   65 1    
    11    5  131 1    
    12    6    7 1    
    13    6  132 1    
    14    6  133 1    
    15    7    8 1    
    16    8    9 1    
    17    8  134 1    
    18    8  135 1    
    19    9   10 ar   
    20    9   14 ar   
    21   10   11 ar   
    22   10  136 1    
    23   11   12 ar   
    24   11  126 1    
    25   12   13 ar   
    26   12  137 1    
    27   13   14 ar   
    28   13   15 1    
    29   14  138 1    
    30   15   16 1    
    31   15  139 1    
    32   15  140 1    
    33   16   17 1    
    34   17   18 1    
    35   17  141 1    
    36   17  142 1    
    37   18   19 1    
    38   18   67 1    
    39   18  143 1    
    40   19   20 am   BACKBONE|DICT|INTERRES
    41   19  144 1    
    42   20   21 2    
    43   20   22 1    
    44   22   23 1    
    45   22   24 1    
    46   22  145 1    
    47   23  146 1    
    48   23  147 1    
    49   23  148 1    
    50   24   25 am   BACKBONE|DICT|INTERRES
    51   24  149 1    
    52   25   26 2    
    53   25   27 1    
    54   27   28 1    
    55   27   29 1    
    56   27  150 1    
    57   28  151 1    
    58   28  152 1    
    59   28  153 1    
    60   29   30 am   BACKBONE|DICT|INTERRES
    61   29  154 1    
    62   30   31 2    
    63   30   32 1    
    64   32   33 1    
    65   32   34 1    
    66   32  155 1    
    67   33  156 1    
    68   33  157 1    
    69   33  158 1    
    70   34   35 am   BACKBONE|DICT|INTERRES
    71   34  159 1    
    72   35   36 2    
    73   35   37 1    
    74   37   38 1    
    75   37   39 1    
    76   37  160 1    
    77   38  161 1    
    78   38  162 1    
    79   38  163 1    
    80   39   40 am   BACKBONE|DICT|INTERRES
    81   39  164 1    
    82   40   41 2    
    83   40   42 1    
    84   42   43 1    
    85   42   44 1    
    86   42  165 1    
    87   43  166 1    
    88   43  167 1    
    89   43  168 1    
    90   44   45 am   BACKBONE|DICT|INTERRES
    91   44  169 1    
    92   45   46 2    
    93   45   47 1    
    94   47   48 1    
    95   47   49 1    
    96   47  170 1    
    97   48  171 1    
    98   48  172 1    
    99   48  173 1    
   100   49   50 am   BACKBONE|DICT|INTERRES
   101   49  174 1    
   102   50   51 2    
   103   50   52 1    
   104   52   53 1    
   105   52   54 1    
   106   52  175 1    
   107   53  176 1    
   108   53  177 1    
   109   53  178 1    
   110   54   55 am   BACKBONE|DICT|INTERRES
   111   54  179 1    
   112   55   56 2    
   113   55   57 1    
   114   57   58 1    
   115   57   59 1    
   116   57  180 1    
   117   58  181 1    
   118   58  182 1    
   119   58  183 1    
   120   59   60 am   BACKBONE|DICT|INTERRES
   121   59  184 1    
   122   60   61 2    
   123   60   62 1    
   124   62   63 1    
   125   62   64 1    
   126   62  185 1    
   127   63  186 1    
   128   63  187 1    
   129   63  188 1    
   130   64   65 am   BACKBONE|DICT|INTERRES
   131   64  189 1    
   132   65   66 2    
   133   67   68 2    
   134   67   69 am   BACKBONE|DICT|INTERRES
   135   69   70 1    
   136   69  190 1    
   137   70   71 1    
   138   70   72 1    
   139   70  191 1    
   140   71  192 1    
   141   71  193 1    
   142   71  194 1    
   143   72   73 2    
   144   72   74 am   BACKBONE|DICT|INTERRES
   145   74   75 1    
   146   74  195 1    
   147   75   76 1    
   148   75   77 1    
   149   75  196 1    
   150   76  197 1    
   151   76  198 1    
   152   76  199 1    
   153   77   78 2    
   154   77   79 am   BACKBONE|DICT|INTERRES
   155   79   80 1    
   156   79  200 1    
   157   80   81 1    
   158   80   82 1    
   159   80  201 1    
   160   81  202 1    
   161   81  203 1    
   162   81  204 1    
   163   82   83 2    
   164   82   84 am   BACKBONE|DICT|INTERRES
   165   84   85 1    
   166   84  205 1    
   167   85   86 1    
   168   85   87 1    
   169   85  206 1    
   170   86  207 1    
   171   86  208 1    
   172   86  209 1    
   173   87   88 2    
   174   87   89 am   BACKBONE|DICT|INTERRES
   175   89   90 1    
   176   89  210 1    
   177   90   91 1    
   178   90   92 1    
   179   90  211 1    
   180   91  212 1    
   181   91  213 1    
   182   91  214 1    
   183   92   93 2    
   184   92   94 am   BACKBONE|DICT|INTERRES
   185   94   95 1    
   186   94  215 1    
   187   95   96 1    
   188   95   97 1    
   189   95  216 1    
   190   96  217 1    
   191   96  218 1    
   192   96  219 1    
   193   97   98 2    
   194   97   99 am   BACKBONE|DICT|INTERRES
   195   99  100 1    
   196   99  220 1    
   197  100  101 1    
   198  100  102 1    
   199  100  221 1    
   200  101  222 1    
   201  101  223 1    
   202  101  224 1    
   203  102  103 2    
   204  102  104 am   BACKBONE|DICT|INTERRES
   205  104  105 1    
   206  104  225 1    
   207  105  106 1    
   208  105  107 1    
   209  105  226 1    
   210  106  227 1    
   211  106  228 1    
   212  106  229 1    
   213  107  108 2    
   214  107  109 am   BACKBONE|DICT|INTERRES
   215  109  110 1    
   216  109  230 1    
   217  110  111 1    
   218  110  112 1    
   219  110  231 1    
   220  111  232 1    
   221  111  233 1    
   222  111  234 1    
   223  112  113 2    
   224  112  114 am   BACKBONE|DICT|INTERRES
   225  114  115 1    
   226  114  235 1    
   227  115  116 1    
   228  115  117 1    
   229  115  236 1    
   230  116  237 1    
   231  116  238 1    
   232  116  239 1    
   233  117  118 2    
   234  117  119 am   BACKBONE|DICT|INTERRES
   235  119  120 1    
   236  119  240 1    
   237  120  121 1    
   238  120  124 1    
   239  120  241 1    
   240  121  122 am   BACKBONE|DICT|INTERRES
   241  121  123 2    
   242  122  242 1    
   243  122  243 1    
   244  124  125 1    
   245  124  244 1    
   246  124  245 1    
   247  125  126 1    
   248  126  246 1    
   249  126  247 1    
@<TRIPOS>SUBSTRUCTURE
     1 UNK         1 GROUP             0       ****    0 ROOT    
