@<TRIPOS>MOLECULE
3R540
247   249    1
SMALL
USER_CHARGES


@<TRIPOS>ATOM
      1 CA          5.5483  -14.2587  -48.6133 C.3       0 UNK        -0.1800 
      2 C           4.7788  -13.6066  -47.4742 C.2       0 UNK         0.5000 
      3 O           5.1850  -13.7144  -46.3166 O.2       0 UNK        -0.5000 
      4 N           3.6702  -12.9282  -47.7943 N.am      1 UNK        -0.5000 
      5 CA          2.7736  -12.2502  -46.8494 C.3       1 UNK         0.1400 
      6 C6          1.3403  -12.0988  -47.4222 C.3       23 UNK        -0.0398 
      7 S7          0.5277  -13.7041  -47.7245 S.3       23 UNK        -0.2404 
      8 C8          0.6969  -13.8523  -49.5286 C.3       23 UNK        -0.0205 
      9 C9          0.0739  -15.1373  -50.0524 C.ar      23 UNK        -0.0193 
     10 C10        -1.2932  -15.1827  -50.3446 C.ar      23 UNK        -0.1150 
     11 C11        -1.8687  -16.3428  -50.8706 C.ar      23 UNK        -0.0193 
     12 C12        -1.0635  -17.4570  -51.1079 C.ar      23 UNK        -0.1150 
     13 C13         0.3020  -17.4301  -50.8192 C.ar      23 UNK        -0.0193 
     14 C14         0.8662  -16.2679  -50.2829 C.ar      23 UNK        -0.1150 
     15 C15         1.1620  -18.6482  -51.1259 C.3       23 UNK        -0.0205 
     16 S16         1.2420  -19.8151  -49.7320 S.3       23 UNK        -0.2404 
     17 C17        -0.4940  -20.3637  -49.6120 C.3       23 UNK        -0.0398 
     18 CA         -0.6531  -21.6574  -48.7830 C.3       11 UNK         0.1400 
     19 N          -0.3116  -21.4614  -47.3673 N.am      11 UNK        -0.5000 
     20 C          -0.2756  -22.4197  -46.4291 C.2       10 UNK         0.5000 
     21 O          -0.5267  -23.6041  -46.6512 O.2       10 UNK        -0.5000 
     22 CA          0.0456  -21.9736  -44.9916 C.3       10 UNK         0.1400 
     23 CB          1.5455  -21.6918  -44.8127 C.3       10 UNK        -0.1800 
     24 N          -0.7345  -20.7974  -44.6084 N.am      10 UNK        -0.5000 
     25 C          -2.0420  -20.8288  -44.3139 C.2       9 UNK         0.5000 
     26 O          -2.6969  -21.8684  -44.2373 O.2       9 UNK        -0.5000 
     27 CA         -2.7492  -19.4773  -44.0878 C.3       9 UNK         0.1400 
     28 CB         -2.6683  -19.0604  -42.6119 C.3       9 UNK        -0.1800 
     29 N          -2.2240  -18.3970  -44.9227 N.am      9 UNK        -0.5000 
     30 C          -2.2669  -18.3716  -46.2620 C.2       8 UNK         0.5000 
     31 O          -2.7865  -19.2509  -46.9460 O.2       8 UNK        -0.5000 
     32 CA         -1.5498  -17.1956  -46.9489 C.3       8 UNK         0.1400 
     33 CB         -2.4454  -15.9464  -46.9507 C.3       8 UNK        -0.1800 
     34 N          -0.2552  -16.8905  -46.3304 N.am      8 UNK        -0.5000 
     35 C           0.7661  -17.7566  -46.2483 C.2       7 UNK         0.5000 
     36 O           0.7229  -18.9018  -46.6891 O.2       7 UNK        -0.5000 
     37 CA          2.0165  -17.3071  -45.4749 C.3       7 UNK         0.1400 
     38 CB          2.8945  -16.3713  -46.3139 C.3       7 UNK        -0.1800 
     39 N           1.6743  -16.6725  -44.2032 N.am      7 UNK        -0.5000 
     40 C           1.1577  -17.3342  -43.1579 C.2       6 UNK         0.5000 
     41 O           0.9815  -18.5526  -43.1391 O.2       6 UNK        -0.5000 
     42 CA          0.7290  -16.4882  -41.9440 C.3       6 UNK         0.1400 
     43 CB          1.9136  -16.2707  -40.9907 C.3       6 UNK        -0.1800 
     44 N           0.1551  -15.1877  -42.3011 N.am      6 UNK        -0.5000 
     45 C          -0.9298  -15.0018  -43.0671 C.2       5 UNK         0.5000 
     46 O          -1.5516  -15.9285  -43.5856 O.2       5 UNK        -0.5000 
     47 CA         -1.4133  -13.5538  -43.2886 C.3       5 UNK         0.1400 
     48 CB         -2.9049  -13.4168  -42.9403 C.3       5 UNK        -0.1800 
     49 N          -0.6583  -12.5691  -42.5075 N.am      5 UNK        -0.5000 
     50 C           0.4547  -11.9539  -42.9207 C.2       4 UNK         0.5000 
     51 O           0.9951  -12.1605  -44.0096 O.2       4 UNK        -0.5000 
     52 CA          1.0885  -10.9660  -41.9351 C.3       4 UNK         0.1400 
     53 CB          2.0903  -11.6808  -41.0110 C.3       4 UNK        -0.1800 
     54 N           1.7678   -9.9282  -42.6988 N.am      4 UNK        -0.5000 
     55 C           2.0258   -8.6856  -42.2771 C.2       3 UNK         0.5000 
     56 O           1.7278   -8.2754  -41.1536 O.2       3 UNK        -0.5000 
     57 CA          2.7123   -7.7422  -43.2898 C.3       3 UNK         0.1400 
     58 CB          3.4898   -6.5937  -42.6124 C.3       3 UNK        -0.1800 
     59 N           3.5552   -8.4446  -44.2660 N.am      3 UNK        -0.5000 
     60 C           4.6644   -9.1582  -44.0273 C.2       2 UNK         0.5000 
     61 O           5.1471   -9.3308  -42.9067 O.2       2 UNK        -0.5000 
     62 CA          5.3159   -9.8120  -45.2626 C.3       2 UNK         0.1400 
     63 CB          6.7539  -10.2885  -44.9906 C.3       2 UNK        -0.1800 
     64 N           4.5355  -10.9490  -45.7489 N.am      2 UNK        -0.5000 
     65 C           3.3736  -10.8950  -46.4109 C.2       1 UNK         0.5000 
     66 O           2.8093   -9.8368  -46.6984 O.2       1 UNK        -0.5000 
     67 C          -2.0629  -22.2532  -48.9799 C.2       11 UNK         0.5000 
     68 O          -2.2512  -23.0753  -49.8754 O.2       11 UNK        -0.5000 
     69 N          -3.0072  -21.8836  -48.1052 N.am      12 UNK        -0.5000 
     70 CA         -4.3753  -22.3999  -48.0541 C.3       12 UNK         0.1400 
     71 CB         -5.1658  -21.6018  -47.0052 C.3       12 UNK        -0.1800 
     72 C          -4.4941  -23.9145  -47.7754 C.2       12 UNK         0.5000 
     73 O          -5.5755  -24.4696  -47.9761 O.2       12 UNK        -0.5000 
     74 N          -3.4115  -24.5532  -47.3121 N.am      13 UNK        -0.5000 
     75 CA         -3.3418  -25.9830  -47.0241 C.3       13 UNK         0.1400 
     76 CB         -3.4728  -26.1922  -45.5049 C.3       13 UNK        -0.1800 
     77 C          -2.0605  -26.6205  -47.5937 C.2       13 UNK         0.5000 
     78 O          -1.6614  -27.6880  -47.1231 O.2       13 UNK        -0.5000 
     79 N          -1.4392  -25.9880  -48.5999 N.am      14 UNK        -0.5000 
     80 CA         -0.2402  -26.4726  -49.2862 C.3       14 UNK         0.1400 
     81 CB          0.2812  -25.3809  -50.2307 C.3       14 UNK        -0.1800 
     82 C          -0.5373  -27.7766  -50.0459 C.2       14 UNK         0.5000 
     83 O          -1.2221  -27.7431  -51.0683 O.2       14 UNK        -0.5000 
     84 N          -0.0895  -28.9085  -49.4823 N.am      15 UNK        -0.5000 
     85 CA         -0.4261  -30.2803  -49.8911 C.3       15 UNK         0.1400 
     86 CB          0.1975  -30.6137  -51.2628 C.3       15 UNK        -0.1800 
     87 C          -1.9472  -30.5593  -49.8350 C.2       15 UNK         0.5000 
     88 O          -2.4671  -31.3256  -50.6474 O.2       15 UNK        -0.5000 
     89 N          -2.6279  -29.8974  -48.8851 N.am      16 UNK        -0.5000 
     90 CA         -4.0784  -29.8577  -48.6703 C.3       16 UNK         0.1400 
     91 CB         -4.6326  -31.2592  -48.3391 C.3       16 UNK        -0.1800 
     92 C          -4.8732  -29.1544  -49.7956 C.2       16 UNK         0.5000 
     93 O          -6.0991  -29.2755  -49.8255 O.2       16 UNK        -0.5000 
     94 N          -4.1897  -28.4144  -50.6788 N.am      17 UNK        -0.5000 
     95 CA         -4.7853  -27.5977  -51.7339 C.3       17 UNK         0.1400 
     96 CB         -4.0809  -27.9152  -53.0628 C.3       17 UNK        -0.1800 
     97 C          -4.6331  -26.1082  -51.3879 C.2       17 UNK         0.5000 
     98 O          -3.7510  -25.7390  -50.6120 O.2       17 UNK        -0.5000 
     99 N          -5.4902  -25.2760  -51.9876 N.am      18 UNK        -0.5000 
    100 CA        -5.4769  -23.8234  -51.8435 C.3       18 UNK         0.1400 
    101 CB        -6.9215  -23.3053  -51.9626 C.3       18 UNK        -0.1800 
    102 C         -4.5536  -23.2034  -52.9048 C.2       18 UNK         0.5000 
    103 O         -5.0277  -22.8114  -53.9749 O.2       18 UNK        -0.5000 
    104 N         -3.2472  -23.1473  -52.6147 N.am      19 UNK        -0.5000 
    105 CA        -2.2469  -22.5271  -53.4843 C.3       19 UNK         0.1400 
    106 CB        -0.8324  -22.8235  -52.9650 C.3       19 UNK        -0.1800 
    107 C         -2.4934  -21.0134  -53.6108 C.2       19 UNK         0.5000 
    108 O         -2.6892  -20.3407  -52.5981 O.2       19 UNK        -0.5000 
    109 N         -2.5271  -20.5301  -54.8598 N.am      20 UNK        -0.5000 
    110 CA        -2.8718  -19.1635  -55.2746 C.3       20 UNK         0.1400 
    111 CB        -1.8218  -18.1490  -54.7809 C.3       20 UNK        -0.1800 
    112 C         -4.3214  -18.7411  -54.9346 C.2       20 UNK         0.5000 
    113 O         -4.6198  -17.5459  -54.9451 O.2       20 UNK        -0.5000 
    114 N         -5.2002  -19.7277  -54.6927 N.am      21 UNK        -0.5000 
    115 CA        -6.6458  -19.6069  -54.4878 C.3       21 UNK         0.1400 
    116 CB        -7.3381  -19.2142  -55.8102 C.3       21 UNK        -0.1800 
    117 C         -7.0401  -18.6947  -53.3061 C.2       21 UNK         0.5000 
    118 O         -7.8734  -17.7998  -53.4665 O.2       21 UNK        -0.5000 
    119 N         -6.4572  -18.9552  -52.1317 N.am      22 UNK        -0.5000 
    120 CA        -6.8494  -18.3439  -50.8534 C.3       22 UNK         0.1400 
    121 C         -6.9606  -19.3990  -49.7183 C.2       22 UNK         0.5000 
    122 N         -7.4458  -19.0136  -48.5452 N.am      22 UNK        -0.7600 
    123 O         -6.6335  -20.5699  -49.8916 O.2       22 UNK        -0.5000 
    124 C124       -5.9811  -17.1099  -50.4872 C.3       23 UNK        -0.0398 
    125 S125       -4.2459  -17.4847  -50.0522 S.3       23 UNK        -0.2404 
    126 C126       -3.3521  -16.3959  -51.2011 C.3       23 UNK        -0.0205 
    127 H127        5.6083  -15.3354  -48.4546 H         1 UNK         0.0600 
    128 H128        6.5624  -13.8615  -48.6569 H         1 UNK         0.0600 
    129 H129        5.0713  -14.0836  -49.5779 H         1 UNK         0.0600 
    130 H130        3.4146  -12.8430  -48.7665 H         1 UNK         0.3000 
    131 H131        2.7001  -12.8636  -45.9489 H         1 UNK         0.0600 
    132 H132        1.3461  -11.5061  -48.3384 H         1 UNK         0.0800 
    133 H133        0.7097  -11.5553  -46.7163 H         1 UNK         0.0800 
    134 H134        0.2232  -12.9944  -50.0082 H         1 UNK         0.0800 
    135 H135        1.7520  -13.8141  -49.8009 H         1 UNK         0.0800 
    136 H136       -1.9066  -14.3110  -50.1648 H         1 UNK         0.1150 
    137 H137       -1.5083  -18.3534  -51.5126 H         1 UNK         0.1150 
    138 H138        1.9237  -16.2386  -50.0608 H         1 UNK         0.1150 
    139 H139        0.7820  -19.1643  -52.0093 H         1 UNK         0.0800 
    140 H140        2.1755  -18.3301  -51.3744 H         1 UNK         0.0800 
    141 H141       -0.8655  -20.5122  -50.6264 H         1 UNK         0.0800 
    142 H142       -1.0925  -19.5610  -49.1798 H         1 UNK         0.0800 
    143 H143        0.0518  -22.3897  -49.1766 H         1 UNK         0.0600 
    144 H144       -0.0471  -20.5135  -47.1036 H         1 UNK         0.3000 
    145 H145       -0.2178  -22.7944  -44.3209 H         1 UNK         0.0600 
    146 H146        1.7719  -21.4067  -43.7851 H         1 UNK         0.0600 
    147 H147        2.1365  -22.5789  -45.0433 H         1 UNK         0.0600 
    148 H148        1.8931  -20.8905  -45.4640 H         1 UNK         0.0600 
    149 H149       -0.2602  -19.9038  -44.6384 H         1 UNK         0.3000 
    150 H150       -3.8015  -19.6104  -44.3473 H         1 UNK         0.0600 
    151 H151       -3.0947  -19.8281  -41.9651 H         1 UNK         0.0600 
    152 H152       -3.2204  -18.1378  -42.4314 H         1 UNK         0.0600 
    153 H153       -1.6373  -18.8999  -42.2962 H         1 UNK         0.0600 
    154 H154       -1.8144  -17.6014  -44.4392 H         1 UNK         0.3000 
    155 H155       -1.3620  -17.4779  -47.9865 H         1 UNK         0.0600 
    156 H156       -2.0008  -15.1397  -47.5301 H         1 UNK         0.0600 
    157 H157       -3.4141  -16.1653  -47.4010 H         1 UNK         0.0600 
    158 H158       -2.6322  -15.5734  -45.9444 H         1 UNK         0.0600 
    159 H159       -0.1560  -15.9763  -45.9168 H         1 UNK         0.3000 
    160 H160        2.6044  -18.2026  -45.2605 H         1 UNK         0.0600 
    161 H161        2.4259  -15.3999  -46.4548 H         1 UNK         0.0600 
    162 H162        3.0889  -16.7914  -47.3018 H         1 UNK         0.0600 
    163 H163        3.8591  -16.2078  -45.8335 H         1 UNK         0.0600 
    164 H164        1.7797  -15.6708  -44.1407 H         1 UNK         0.3000 
    165 H165       -0.0400  -17.0502  -41.4101 H         1 UNK         0.0600 
    166 H166        1.5997  -15.7586  -40.0809 H         1 UNK         0.0600 
    167 H167        2.3533  -17.2229  -40.6906 H         1 UNK         0.0600 
    168 H168        2.7016  -15.6769  -41.4558 H         1 UNK         0.0600 
    169 H169        0.6030  -14.3726  -41.9117 H         1 UNK         0.3000 
    170 H170       -1.2968  -13.3395  -44.3533 H         1 UNK         0.0600 
    171 H171       -3.5143  -14.0894  -43.5455 H         1 UNK         0.0600 
    172 H172       -3.0972  -13.6524  -41.8929 H         1 UNK         0.0600 
    173 H173       -3.2619  -12.4041  -43.1284 H         1 UNK         0.0600 
    174 H174       -1.0262  -12.3545  -41.5911 H         1 UNK         0.3000 
    175 H175        0.2951  -10.5133  -41.3364 H         1 UNK         0.0600 
    176 H176        1.6027  -12.4681  -40.4349 H         1 UNK         0.0600 
    177 H177        2.9015  -12.1395  -41.5782 H         1 UNK         0.0600 
    178 H178        2.5347  -10.9867  -40.2976 H         1 UNK         0.0600 
    179 H179        2.0059  -10.1932  -43.6457 H         1 UNK         0.3000 
    180 H180        1.9038   -7.2901  -43.8658 H         1 UNK         0.0600 
    181 H181        4.2727   -6.9672  -41.9519 H         1 UNK         0.0600 
    182 H182        2.8252   -5.9729  -42.0105 H         1 UNK         0.0600 
    183 H183        3.9562   -5.9429  -43.3520 H         1 UNK         0.0600 
    184 H184        3.2075   -8.4508  -45.2196 H         1 UNK         0.3000 
    185 H185        5.3611   -9.0575  -46.0508 H         1 UNK         0.0600 
    186 H186        7.3763   -9.4684  -44.6305 H         1 UNK         0.0600 
    187 H187        6.7824  -11.0792  -44.2397 H         1 UNK         0.0600 
    188 H188        7.2187  -10.6739  -45.8983 H         1 UNK         0.0600 
    189 H189        4.9341  -11.8700  -45.5944 H         1 UNK         0.3000 
    190 H190       -2.7887  -21.1354  -47.4532 H         1 UNK         0.3000 
    191 H191       -4.8229  -22.2159  -49.0298 H         1 UNK         0.0600 
    192 H192       -4.7517  -21.7316  -46.0055 H         1 UNK         0.0600 
    193 H193       -6.2083  -21.9205  -46.9751 H         1 UNK         0.0600 
    194 H194       -5.1618  -20.5367  -47.2363 H         1 UNK         0.0600 
    195 H195       -2.5501  -24.0350  -47.1743 H         1 UNK         0.3000 
    196 H196       -4.1673  -26.5030  -47.5141 H         1 UNK         0.0600 
    197 H197       -3.4811  -27.2523  -45.2491 H         1 UNK         0.0600 
    198 H198       -4.4010  -25.7628  -45.1273 H         1 UNK         0.0600 
    199 H199       -2.6456  -25.7272  -44.9670 H         1 UNK         0.0600 
    200 H200       -1.8918  -25.1778  -49.0080 H         1 UNK         0.3000 
    201 H201        0.5306  -26.6660  -48.5374 H         1 UNK         0.0600 
    202 H202        0.6390  -24.5200  -49.6690 H         1 UNK         0.0600 
    203 H203       -0.4981  -25.0422  -50.9136 H         1 UNK         0.0600 
    204 H204        1.1150  -25.7443  -50.8324 H         1 UNK         0.0600 
    205 H205        0.4277  -28.8322  -48.6168 H         1 UNK         0.3000 
    206 H206        0.0293  -30.9415  -49.1526 H         1 UNK         0.0600 
    207 H207        1.2668  -30.4032  -51.2713 H         1 UNK         0.0600 
    208 H208        0.0741  -31.6706  -51.5015 H         1 UNK         0.0600 
    209 H209       -0.2636  -30.0419  -52.0687 H         1 UNK         0.0600 
    210 H210       -2.0964  -29.2802  -48.2779 H         1 UNK         0.3000 
    211 H211       -4.2218  -29.2388  -47.7836 H         1 UNK         0.0600 
    212 H212       -4.6130  -31.9200  -49.2058 H         1 UNK         0.0600 
    213 H213       -5.6675  -31.2006  -48.0002 H         1 UNK         0.0600 
    214 H214       -4.0594  -31.7323  -47.5418 H         1 UNK         0.0600 
    215 H215       -3.1861  -28.3084  -50.5769 H         1 UNK         0.3000 
    216 H216       -5.8483  -27.8218  -51.8431 H         1 UNK         0.0600 
    217 H217       -3.0236  -27.6500  -53.0338 H         1 UNK         0.0600 
    218 H218       -4.5330  -27.3640  -53.8880 H         1 UNK         0.0600 
    219 H219       -4.1523  -28.9763  -53.3024 H         1 UNK         0.0600 
    220 H220       -6.1603  -25.6499  -52.6438 H         1 UNK         0.3000 
    221 H221       -5.0996  -23.5466  -50.8586 H         1 UNK         0.0600 
    222 H222       -7.5328  -23.6574  -51.1315 H         1 UNK         0.0600 
    223 H223       -7.3958  -23.6285  -52.8900 H         1 UNK         0.0600 
    224 H224       -6.9489  -22.2157  -51.9465 H         1 UNK         0.0600 
    225 H225       -2.9327  -23.4291  -51.6892 H         1 UNK         0.3000 
    226 H226       -2.3398  -22.9834  -54.4721 H         1 UNK         0.0600 
    227 H227       -0.6301  -23.8941  -52.9762 H         1 UNK         0.0600 
    228 H228       -0.0784  -22.3457  -53.5916 H         1 UNK         0.0600 
    229 H229       -0.6866  -22.4638  -51.9477 H         1 UNK         0.0600 
    230 H230       -2.3674  -21.1757  -55.6211 H         1 UNK         0.3000 
    231 H231       -2.8211  -19.1694  -56.3642 H         1 UNK         0.0600 
    232 H232       -1.8902  -17.9960  -53.7069 H         1 UNK         0.0600 
    233 H233       -1.9629  -17.1771  -55.2548 H         1 UNK         0.0600 
    234 H234       -0.8090  -18.4788  -55.0116 H         1 UNK         0.0600 
    235 H235       -4.8476  -20.6770  -54.6724 H         1 UNK         0.3000 
    236 H236       -6.9966  -20.6059  -54.2242 H         1 UNK         0.0600 
    237 H237       -8.4234  -19.2290  -55.7034 H         1 UNK         0.0600 
    238 H238       -7.0545  -18.2124  -56.1344 H         1 UNK         0.0600 
    239 H239       -7.0834  -19.9098  -56.6098 H         1 UNK         0.0600 
    240 H240       -5.7872  -19.7083  -52.0566 H         1 UNK         0.3000 
    241 H241       -7.8741  -17.9836  -50.9636 H         1 UNK         0.0600 
    242 H242       -7.5309  -19.6965  -47.8100 H         1 UNK         0.3800 
    243 H243       -7.7364  -18.0643  -48.3735 H         1 UNK         0.3800 
    244 H244       -6.4239  -16.5783  -49.6441 H         1 UNK         0.0800 
    245 H245       -6.0053  -16.4013  -51.3160 H         1 UNK         0.0800 
    246 H246       -3.4909  -16.7571  -52.2214 H         1 UNK         0.0800 
    247 H247       -3.7835  -15.3946  -51.1617 H         1 UNK         0.0800 
@<TRIPOS>BOND
     1    1    2 1    
     2    1  127 1    
     3    1  128 1    
     4    1  129 1    
     5    2    3 2    
     6    2    4 am   BACKBONE|DICT|INTERRES
     7    4    5 1    
     8    4  130 1    
     9    5    6 1    
    10    5   65 1    
    11    5  131 1    
    12    6    7 1    
    13    6  132 1    
    14    6  133 1    
    15    7    8 1    
    16    8    9 1    
    17    8  134 1    
    18    8  135 1    
    19    9   10 ar   
    20    9   14 ar   
    21   10   11 ar   
    22   10  136 1    
    23   11   12 ar   
    24   11  126 1    
    25   12   13 ar   
    26   12  137 1    
    27   13   14 ar   
    28   13   15 1    
    29   14  138 1    
    30   15   16 1    
    31   15  139 1    
    32   15  140 1    
    33   16   17 1    
    34   17   18 1    
    35   17  141 1    
    36   17  142 1    
    37   18   19 1    
    38   18   67 1    
    39   18  143 1    
    40   19   20 am   BACKBONE|DICT|INTERRES
    41   19  144 1    
    42   20   21 2    
    43   20   22 1    
    44   22   23 1    
    45   22   24 1    
    46   22  145 1    
    47   23  146 1    
    48   23  147 1    
    49   23  148 1    
    50   24   25 am   BACKBONE|DICT|INTERRES
    51   24  149 1    
    52   25   26 2    
    53   25   27 1    
    54   27   28 1    
    55   27   29 1    
    56   27  150 1    
    57   28  151 1    
    58   28  152 1    
    59   28  153 1    
    60   29   30 am   BACKBONE|DICT|INTERRES
    61   29  154 1    
    62   30   31 2    
    63   30   32 1    
    64   32   33 1    
    65   32   34 1    
    66   32  155 1    
    67   33  156 1    
    68   33  157 1    
    69   33  158 1    
    70   34   35 am   BACKBONE|DICT|INTERRES
    71   34  159 1    
    72   35   36 2    
    73   35   37 1    
    74   37   38 1    
    75   37   39 1    
    76   37  160 1    
    77   38  161 1    
    78   38  162 1    
    79   38  163 1    
    80   39   40 am   BACKBONE|DICT|INTERRES
    81   39  164 1    
    82   40   41 2    
    83   40   42 1    
    84   42   43 1    
    85   42   44 1    
    86   42  165 1    
    87   43  166 1    
    88   43  167 1    
    89   43  168 1    
    90   44   45 am   BACKBONE|DICT|INTERRES
    91   44  169 1    
    92   45   46 2    
    93   45   47 1    
    94   47   48 1    
    95   47   49 1    
    96   47  170 1    
    97   48  171 1    
    98   48  172 1    
    99   48  173 1    
   100   49   50 am   BACKBONE|DICT|INTERRES
   101   49  174 1    
   102   50   51 2    
   103   50   52 1    
   104   52   53 1    
   105   52   54 1    
   106   52  175 1    
   107   53  176 1    
   108   53  177 1    
   109   53  178 1    
   110   54   55 am   BACKBONE|DICT|INTERRES
   111   54  179 1    
   112   55   56 2    
   113   55   57 1    
   114   57   58 1    
   115   57   59 1    
   116   57  180 1    
   117   58  181 1    
   118   58  182 1    
   119   58  183 1    
   120   59   60 am   BACKBONE|DICT|INTERRES
   121   59  184 1    
   122   60   61 2    
   123   60   62 1    
   124   62   63 1    
   125   62   64 1    
   126   62  185 1    
   127   63  186 1    
   128   63  187 1    
   129   63  188 1    
   130   64   65 am   BACKBONE|DICT|INTERRES
   131   64  189 1    
   132   65   66 2    
   133   67   68 2    
   134   67   69 am   BACKBONE|DICT|INTERRES
   135   69   70 1    
   136   69  190 1    
   137   70   71 1    
   138   70   72 1    
   139   70  191 1    
   140   71  192 1    
   141   71  193 1    
   142   71  194 1    
   143   72   73 2    
   144   72   74 am   BACKBONE|DICT|INTERRES
   145   74   75 1    
   146   74  195 1    
   147   75   76 1    
   148   75   77 1    
   149   75  196 1    
   150   76  197 1    
   151   76  198 1    
   152   76  199 1    
   153   77   78 2    
   154   77   79 am   BACKBONE|DICT|INTERRES
   155   79   80 1    
   156   79  200 1    
   157   80   81 1    
   158   80   82 1    
   159   80  201 1    
   160   81  202 1    
   161   81  203 1    
   162   81  204 1    
   163   82   83 2    
   164   82   84 am   BACKBONE|DICT|INTERRES
   165   84   85 1    
   166   84  205 1    
   167   85   86 1    
   168   85   87 1    
   169   85  206 1    
   170   86  207 1    
   171   86  208 1    
   172   86  209 1    
   173   87   88 2    
   174   87   89 am   BACKBONE|DICT|INTERRES
   175   89   90 1    
   176   89  210 1    
   177   90   91 1    
   178   90   92 1    
   179   90  211 1    
   180   91  212 1    
   181   91  213 1    
   182   91  214 1    
   183   92   93 2    
   184   92   94 am   BACKBONE|DICT|INTERRES
   185   94   95 1    
   186   94  215 1    
   187   95   96 1    
   188   95   97 1    
   189   95  216 1    
   190   96  217 1    
   191   96  218 1    
   192   96  219 1    
   193   97   98 2    
   194   97   99 am   BACKBONE|DICT|INTERRES
   195   99  100 1    
   196   99  220 1    
   197  100  101 1    
   198  100  102 1    
   199  100  221 1    
   200  101  222 1    
   201  101  223 1    
   202  101  224 1    
   203  102  103 2    
   204  102  104 am   BACKBONE|DICT|INTERRES
   205  104  105 1    
   206  104  225 1    
   207  105  106 1    
   208  105  107 1    
   209  105  226 1    
   210  106  227 1    
   211  106  228 1    
   212  106  229 1    
   213  107  108 2    
   214  107  109 am   BACKBONE|DICT|INTERRES
   215  109  110 1    
   216  109  230 1    
   217  110  111 1    
   218  110  112 1    
   219  110  231 1    
   220  111  232 1    
   221  111  233 1    
   222  111  234 1    
   223  112  113 2    
   224  112  114 am   BACKBONE|DICT|INTERRES
   225  114  115 1    
   226  114  235 1    
   227  115  116 1    
   228  115  117 1    
   229  115  236 1    
   230  116  237 1    
   231  116  238 1    
   232  116  239 1    
   233  117  118 2    
   234  117  119 am   BACKBONE|DICT|INTERRES
   235  119  120 1    
   236  119  240 1    
   237  120  121 1    
   238  120  124 1    
   239  120  241 1    
   240  121  122 am   BACKBONE|DICT|INTERRES
   241  121  123 2    
   242  122  242 1    
   243  122  243 1    
   244  124  125 1    
   245  124  244 1    
   246  124  245 1    
   247  125  126 1    
   248  126  246 1    
   249  126  247 1    
@<TRIPOS>SUBSTRUCTURE
     1 UNK         1 GROUP             0       ****    0 ROOT    
