@<TRIPOS>MOLECULE
3R540
247   249    1
SMALL
USER_CHARGES


@<TRIPOS>ATOM
      1 CA          4.8601  -14.1527  -44.6152 C.3       0 UNK        -0.1800 
      2 C           3.7141  -13.3083  -45.1496 C.2       0 UNK         0.5000 
      3 O           3.0304  -12.6330  -44.3793 O.2       0 UNK        -0.5000 
      4 N           3.5118  -13.3402  -46.4735 N.am      1 UNK        -0.5000 
      5 CA          2.4402  -12.6395  -47.2003 C.3       1 UNK         0.1400 
      6 C6          2.2440  -13.2135  -48.6252 C.3       23 UNK        -0.0398 
      7 S7          1.6669  -14.9433  -48.5871 S.3       23 UNK        -0.2404 
      8 C8          0.9305  -15.0954  -50.2443 C.3       23 UNK        -0.0205 
      9 C9          0.0954  -16.3605  -50.3537 C.ar      23 UNK        -0.0193 
     10 C10        -1.2946  -16.3000  -50.2200 C.ar      23 UNK        -0.1150 
     11 C11        -2.0673  -17.4625  -50.2931 C.ar      23 UNK        -0.0193 
     12 C12        -1.4373  -18.6944  -50.4915 C.ar      23 UNK        -0.1150 
     13 C13        -0.0468  -18.7678  -50.6291 C.ar      23 UNK        -0.0193 
     14 C14         0.7118  -17.5945  -50.5747 C.ar      23 UNK        -0.1150 
     15 C15         0.6335  -20.1179  -50.8163 C.3       23 UNK        -0.0205 
     16 S16         1.8953  -20.4815  -49.5567 S.3       23 UNK        -0.2404 
     17 C17         0.9988  -20.1707  -47.9998 C.3       23 UNK        -0.0398 
     18 CA          0.1831  -21.3856  -47.4866 C.3       11 UNK         0.1400 
     19 N           0.2770  -21.5077  -46.0277 N.am      11 UNK        -0.5000 
     20 C          -0.1778  -22.5408  -45.3065 C.2       10 UNK         0.5000 
     21 O          -0.6938  -23.5415  -45.8010 O.2       10 UNK        -0.5000 
     22 CA         -0.0818  -22.4141  -43.7741 C.3       10 UNK         0.1400 
     23 CB          1.3181  -22.8056  -43.2788 C.3       10 UNK        -0.1800 
     24 N          -0.4149  -21.0700  -43.2982 N.am      10 UNK        -0.5000 
     25 C          -1.6233  -20.5016  -43.4183 C.2       9 UNK         0.5000 
     26 O          -2.6027  -21.0799  -43.8869 O.2       9 UNK        -0.5000 
     27 CA         -1.7454  -19.0218  -43.0073 C.3       9 UNK         0.1400 
     28 CB         -1.9029  -18.8800  -41.4867 C.3       9 UNK        -0.1800 
     29 N          -0.6123  -18.2177  -43.4685 N.am      9 UNK        -0.5000 
     30 C          -0.2937  -18.0318  -44.7579 C.2       8 UNK         0.5000 
     31 O          -0.9505  -18.4777  -45.6972 O.2       8 UNK        -0.5000 
     32 CA          1.0078  -17.2695  -45.0466 C.3       8 UNK         0.1400 
     33 CB          0.7667  -15.7539  -45.0209 C.3       8 UNK        -0.1800 
     34 N           2.0707  -17.6314  -44.1063 N.am      8 UNK        -0.5000 
     35 C           2.6841  -18.8247  -44.0921 C.2       7 UNK         0.5000 
     36 O           2.4383  -19.7259  -44.8921 O.2       7 UNK        -0.5000 
     37 CA          3.7055  -19.0751  -42.9672 C.3       7 UNK         0.1400 
     38 CB          5.0610  -18.4395  -43.3102 C.3       7 UNK        -0.1800 
     39 N           3.2483  -18.5750  -41.6714 N.am      7 UNK        -0.5000 
     40 C           2.1780  -19.0388  -41.0102 C.2       6 UNK         0.5000 
     41 O           1.5014  -19.9927  -41.3922 O.2       6 UNK        -0.5000 
     42 CA          1.7622  -18.2736  -39.7376 C.3       6 UNK         0.1400 
     43 CB          2.4192  -18.8970  -38.4975 C.3       6 UNK        -0.1800 
     44 N           2.0757  -16.8410  -39.7839 N.am      6 UNK        -0.5000 
     45 C           1.6124  -15.9836  -40.7037 C.2       5 UNK         0.5000 
     46 O           0.8602  -16.3149  -41.6240 O.2       5 UNK        -0.5000 
     47 CA          2.1516  -14.5432  -40.6132 C.3       5 UNK         0.1400 
     48 CB          3.6157  -14.4955  -41.0771 C.3       5 UNK        -0.1800 
     49 N           1.3839  -13.5975  -41.4224 N.am      5 UNK        -0.5000 
     50 C           0.1337  -13.1978  -41.1562 C.2       4 UNK         0.5000 
     51 O          -0.5089  -13.5637  -40.1701 O.2       4 UNK        -0.5000 
     52 CA         -0.4504  -12.1621  -42.1295 C.3       4 UNK         0.1400 
     53 CB         -1.8284  -11.6211  -41.7027 C.3       4 UNK        -0.1800 
     54 N           0.5008  -11.0606  -42.2521 N.am      4 UNK        -0.5000 
     55 C           0.7504  -10.3706  -43.3682 C.2       3 UNK         0.5000 
     56 O           0.1377  -10.5430  -44.4239 O.2       3 UNK        -0.5000 
     57 CA          1.8777   -9.3221  -43.3121 C.3       3 UNK         0.1400 
     58 CB          2.6970   -9.3279  -42.0044 C.3       3 UNK        -0.1800 
     59 N           2.7706   -9.5770  -44.4338 N.am      3 UNK        -0.5000 
     60 C           3.2318   -8.6647  -45.2983 C.2       2 UNK         0.5000 
     61 O           3.0406   -7.4533  -45.1829 O.2       2 UNK        -0.5000 
     62 CA          4.0375   -9.1919  -46.5066 C.3       2 UNK         0.1400 
     63 CB          5.5438   -8.9940  -46.2772 C.3       2 UNK        -0.1800 
     64 N           3.7840  -10.6077  -46.7838 N.am      2 UNK        -0.5000 
     65 C           2.6259  -11.1046  -47.2427 C.2       1 UNK         0.5000 
     66 O           1.7093  -10.3969  -47.6619 O.2       1 UNK        -0.5000 
     67 C          -1.2873  -21.3327  -47.9662 C.2       11 UNK         0.5000 
     68 O          -1.6465  -21.9961  -48.9418 O.2       11 UNK        -0.5000 
     69 N          -2.1208  -20.5712  -47.2444 N.am      12 UNK        -0.5000 
     70 CA         -3.5621  -20.4685  -47.4603 C.3       12 UNK         0.1400 
     71 CB         -4.1209  -19.3030  -46.6321 C.3       12 UNK        -0.1800 
     72 C          -4.3047  -21.7782  -47.1455 C.2       12 UNK         0.5000 
     73 O          -5.1839  -22.1692  -47.9141 O.2       12 UNK        -0.5000 
     74 N          -3.9146  -22.4589  -46.0578 N.am      13 UNK        -0.5000 
     75 CA         -4.4271  -23.7767  -45.6684 C.3       13 UNK         0.1400 
     76 CB         -3.9193  -24.1340  -44.2638 C.3       13 UNK        -0.1800 
     77 C          -4.0677  -24.8855  -46.6774 C.2       13 UNK         0.5000 
     78 O          -4.8563  -25.8112  -46.8693 O.2       13 UNK        -0.5000 
     79 N          -2.9118  -24.7444  -47.3409 N.am      14 UNK        -0.5000 
     80 CA         -2.4640  -25.5771  -48.4592 C.3       14 UNK         0.1400 
     81 CB         -0.9391  -25.4421  -48.6073 C.3       14 UNK        -0.1800 
     82 C          -3.1781  -25.2600  -49.7918 C.2       14 UNK         0.5000 
     83 O          -2.8690  -25.8998  -50.7981 O.2       14 UNK        -0.5000 
     84 N          -4.1023  -24.2864  -49.7921 N.am      15 UNK        -0.5000 
     85 CA         -4.9631  -23.8753  -50.9037 C.3       15 UNK         0.1400 
     86 CB         -5.9744  -24.9899  -51.2373 C.3       15 UNK        -0.1800 
     87 C          -4.1634  -23.3981  -52.1291 C.2       15 UNK         0.5000 
     88 O          -4.4492  -23.8157  -53.2548 O.2       15 UNK        -0.5000 
     89 N          -3.1549  -22.5516  -51.8693 N.am      16 UNK        -0.5000 
     90 CA         -2.2137  -21.9972  -52.8471 C.3       16 UNK         0.1400 
     91 CB         -2.9185  -21.0428  -53.8327 C.3       16 UNK        -0.1800 
     92 C          -1.3662  -23.0942  -53.5223 C.2       16 UNK         0.5000 
     93 O          -1.1596  -23.0638  -54.7349 O.2       16 UNK        -0.5000 
     94 N          -0.9147  -24.0578  -52.7039 N.am      17 UNK        -0.5000 
     95 CA         -0.1914  -25.2773  -53.0796 C.3       17 UNK         0.1400 
     96 CB          1.1971  -24.9442  -53.6650 C.3       17 UNK        -0.1800 
     97 C          -1.0436  -26.1863  -53.9893 C.2       17 UNK         0.5000 
     98 O          -0.5955  -26.6009  -55.0599 O.2       17 UNK        -0.5000 
     99 N          -2.2745  -26.4565  -53.5313 N.am      18 UNK        -0.5000 
    100 CA        -3.3140  -27.2690  -54.1709 C.3       18 UNK         0.1400 
    101 CB        -2.8756  -28.7456  -54.2628 C.3       18 UNK        -0.1800 
    102 C         -3.8218  -26.7088  -55.5184 C.2       18 UNK         0.5000 
    103 O         -4.3371  -27.4690  -56.3402 O.2       18 UNK        -0.5000 
    104 N         -3.7043  -25.3886  -55.7157 N.am      19 UNK        -0.5000 
    105 CA        -4.2507  -24.6712  -56.8708 C.3       19 UNK         0.1400 
    106 CB        -3.4277  -23.3988  -57.1146 C.3       19 UNK        -0.1800 
    107 C         -5.7456  -24.3310  -56.7033 C.2       19 UNK         0.5000 
    108 O         -6.3887  -23.9679  -57.6888 O.2       19 UNK        -0.5000 
    109 N         -6.2645  -24.4622  -55.4725 N.am      20 UNK        -0.5000 
    110 CA        -7.6435  -24.2063  -55.0483 C.3       20 UNK         0.1400 
    111 CB        -8.6488  -25.1015  -55.8045 C.3       20 UNK        -0.1800 
    112 C         -7.9945  -22.7068  -55.0874 C.2       20 UNK         0.5000 
    113 O         -9.0626  -22.3280  -55.5726 O.2       20 UNK        -0.5000 
    114 N         -7.0840  -21.8822  -54.5588 N.am      21 UNK        -0.5000 
    115 CA        -7.2508  -20.4435  -54.3798 C.3       21 UNK         0.1400 
    116 CB        -6.4391  -19.7028  -55.4545 C.3       21 UNK        -0.1800 
    117 C         -6.7676  -20.0633  -52.9739 C.2       21 UNK         0.5000 
    118 O         -5.8612  -20.7171  -52.4582 O.2       21 UNK        -0.5000 
    119 N         -7.3865  -19.0243  -52.3985 N.am      22 UNK        -0.5000 
    120 CA        -7.1202  -18.3247  -51.1193 C.3       22 UNK         0.1400 
    121 C         -6.8498  -19.1381  -49.8125 C.2       22 UNK         0.5000 
    122 N         -6.5413  -20.4224  -49.8681 N.am      22 UNK        -0.7600 
    123 O         -6.9536  -18.5852  -48.7216 O.2       22 UNK        -0.5000 
    124 C124       -6.1371  -17.1328  -51.2836 C.3       23 UNK        -0.0398 
    125 S125       -4.4236  -17.5762  -51.7399 S.3       23 UNK        -0.2404 
    126 C126       -3.5786  -17.3853  -50.1404 C.3       23 UNK        -0.0205 
    127 H127        5.6420  -14.2815  -45.3639 H         1 UNK         0.0600 
    128 H128        5.3059  -13.6810  -43.7393 H         1 UNK         0.0600 
    129 H129        4.4937  -15.1384  -44.3308 H         1 UNK         0.0600 
    130 H130        4.1050  -13.9249  -47.0451 H         1 UNK         0.3000 
    131 H131        1.5133  -12.8050  -46.6462 H         1 UNK         0.0600 
    132 H132        1.5059  -12.6249  -49.1733 H         1 UNK         0.0800 
    133 H133        3.1702  -13.1581  -49.1995 H         1 UNK         0.0800 
    134 H134        1.7222  -15.1040  -50.9949 H         1 UNK         0.0800 
    135 H135        0.3112  -14.2225  -50.4564 H         1 UNK         0.0800 
    136 H136       -1.7749  -15.3462  -50.0522 H         1 UNK         0.1150 
    137 H137       -2.0354  -19.5939  -50.5352 H         1 UNK         0.1150 
    138 H138        1.7872  -17.6458  -50.6728 H         1 UNK         0.1150 
    139 H139       -0.0910  -20.9264  -50.7709 H         1 UNK         0.0800 
    140 H140        1.0892  -20.1585  -51.8063 H         1 UNK         0.0800 
    141 H141        0.3971  -19.2625  -48.0599 H         1 UNK         0.0800 
    142 H142        1.7858  -19.9254  -47.2898 H         1 UNK         0.0800 
    143 H143        0.6215  -22.2987  -47.8949 H         1 UNK         0.0600 
    144 H144        0.7336  -20.7456  -45.5392 H         1 UNK         0.3000 
    145 H145       -0.8007  -23.1100  -43.3374 H         1 UNK         0.0600 
    146 H146        1.3681  -22.7909  -42.1899 H         1 UNK         0.0600 
    147 H147        1.5795  -23.8135  -43.6035 H         1 UNK         0.0600 
    148 H148        2.0848  -22.1290  -43.6565 H         1 UNK         0.0600 
    149 H149        0.3283  -20.5507  -42.8398 H         1 UNK         0.3000 
    150 H150       -2.6447  -18.6193  -43.4779 H         1 UNK         0.0600 
    151 H151       -2.8097  -19.3799  -41.1441 H         1 UNK         0.0600 
    152 H152       -1.9751  -17.8331  -41.1909 H         1 UNK         0.0600 
    153 H153       -1.0657  -19.3244  -40.9502 H         1 UNK         0.0600 
    154 H154       -0.0364  -17.7752  -42.7601 H         1 UNK         0.3000 
    155 H155        1.3350  -17.5384  -46.0535 H         1 UNK         0.0600 
    156 H156        0.4607  -15.3987  -44.0373 H         1 UNK         0.0600 
    157 H157       -0.0139  -15.4725  -45.7289 H         1 UNK         0.0600 
    158 H158        1.6665  -15.2170  -45.3090 H         1 UNK         0.0600 
    159 H159        2.2542  -16.9768  -43.3598 H         1 UNK         0.3000 
    160 H160        3.8463  -20.1547  -42.8815 H         1 UNK         0.0600 
    161 H161        5.4254  -18.7940  -44.2753 H         1 UNK         0.0600 
    162 H162        5.8151  -18.6955  -42.5657 H         1 UNK         0.0600 
    163 H163        4.9970  -17.3524  -43.3620 H         1 UNK         0.0600 
    164 H164        3.7524  -17.7946  -41.2785 H         1 UNK         0.3000 
    165 H165        0.6802  -18.3695  -39.6342 H         1 UNK         0.0600 
    166 H166        2.0642  -18.4232  -37.5821 H         1 UNK         0.0600 
    167 H167        2.1835  -19.9596  -38.4237 H         1 UNK         0.0600 
    168 H168        3.5055  -18.8028  -38.5264 H         1 UNK         0.0600 
    169 H169        2.6978  -16.4975  -39.0662 H         1 UNK         0.3000 
    170 H170        2.1005  -14.2211  -39.5711 H         1 UNK         0.0600 
    171 H171        4.2572  -15.0961  -40.4314 H         1 UNK         0.0600 
    172 H172        3.7217  -14.8783  -42.0912 H         1 UNK         0.0600 
    173 H173        4.0054  -13.4772  -41.0605 H         1 UNK         0.0600 
    174 H174        1.8305  -13.2569  -42.2639 H         1 UNK         0.3000 
    175 H175       -0.5590  -12.6682  -43.0913 H         1 UNK         0.0600 
    176 H176       -1.7781  -11.1083  -40.7416 H         1 UNK         0.0600 
    177 H177       -2.2195  -10.9174  -42.4376 H         1 UNK         0.0600 
    178 H178       -2.5546  -12.4295  -41.6098 H         1 UNK         0.0600 
    179 H179        1.0634  -10.8774  -41.4325 H         1 UNK         0.3000 
    180 H180        1.4001   -8.3463  -43.4204 H         1 UNK         0.0600 
    181 H181        3.1763  -10.2924  -41.8300 H         1 UNK         0.0600 
    182 H182        2.0720   -9.0964  -41.1411 H         1 UNK         0.0600 
    183 H183        3.4829   -8.5731  -42.0373 H         1 UNK         0.0600 
    184 H184        2.9369  -10.5595  -44.6259 H         1 UNK         0.3000 
    185 H185        3.7419   -8.6099  -47.3820 H         1 UNK         0.0600 
    186 H186        5.7766   -7.9438  -46.0964 H         1 UNK         0.0600 
    187 H187        5.8975   -9.5616  -45.4155 H         1 UNK         0.0600 
    188 H188        6.1205   -9.3081  -47.1474 H         1 UNK         0.0600 
    189 H189        4.4875  -11.2622  -46.4743 H         1 UNK         0.3000 
    190 H190       -1.7331  -19.9967  -46.5001 H         1 UNK         0.3000 
    191 H191       -3.7265  -20.2503  -48.5167 H         1 UNK         0.0600 
    192 H192       -3.9515  -19.4473  -45.5653 H         1 UNK         0.0600 
    193 H193       -5.1956  -19.1972  -46.7803 H         1 UNK         0.0600 
    194 H194       -3.6568  -18.3588  -46.9178 H         1 UNK         0.0600 
    195 H195       -3.2340  -22.0340  -45.4338 H         1 UNK         0.3000 
    196 H196       -5.5162  -23.7096  -45.6280 H         1 UNK         0.0600 
    197 H197       -4.3238  -25.0919  -43.9346 H         1 UNK         0.0600 
    198 H198       -4.2217  -23.3847  -43.5321 H         1 UNK         0.0600 
    199 H199       -2.8327  -24.2104  -44.2362 H         1 UNK         0.0600 
    200 H200       -2.2882  -23.9946  -47.0624 H         1 UNK         0.3000 
    201 H201       -2.6861  -26.6190  -48.2209 H         1 UNK         0.0600 
    202 H202       -0.4292  -25.7033  -47.6799 H         1 UNK         0.0600 
    203 H203       -0.6456  -24.4274  -48.8741 H         1 UNK         0.0600 
    204 H204       -0.5582  -26.1076  -49.3829 H         1 UNK         0.0600 
    205 H205       -4.2616  -23.7848  -48.9266 H         1 UNK         0.3000 
    206 H206       -5.5293  -23.0126  -50.5530 H         1 UNK         0.0600 
    207 H207       -6.5040  -25.3207  -50.3438 H         1 UNK         0.0600 
    208 H208       -6.7243  -24.6316  -51.9403 H         1 UNK         0.0600 
    209 H209       -5.4909  -25.8601  -51.6821 H         1 UNK         0.0600 
    210 H210       -2.9828  -22.3034  -50.9029 H         1 UNK         0.3000 
    211 H211       -1.5111  -21.3871  -52.2897 H         1 UNK         0.0600 
    212 H212       -3.7322  -21.5301  -54.3661 H         1 UNK         0.0600 
    213 H213       -2.2229  -20.6488  -54.5742 H         1 UNK         0.0600 
    214 H214       -3.3390  -20.1871  -53.3046 H         1 UNK         0.0600 
    215 H215       -1.1843  -24.0005  -51.7322 H         1 UNK         0.3000 
    216 H216       -0.0306  -25.8350  -52.1557 H         1 UNK         0.0600 
    217 H217        1.1247  -24.4264  -54.6217 H         1 UNK         0.0600 
    218 H218        1.7761  -25.8533  -53.8308 H         1 UNK         0.0600 
    219 H219        1.7700  -24.3139  -52.9849 H         1 UNK         0.0600 
    220 H220       -2.5269  -26.0898  -52.6152 H         1 UNK         0.3000 
    221 H221       -4.1704  -27.2272  -53.4967 H         1 UNK         0.0600 
    222 H222       -2.0622  -28.8832  -54.9757 H         1 UNK         0.0600 
    223 H223       -2.5407  -29.1179  -53.2946 H         1 UNK         0.0600 
    224 H224       -3.7016  -29.3812  -54.5837 H         1 UNK         0.0600 
    225 H225       -3.3062  -24.8229  -54.9764 H         1 UNK         0.3000 
    226 H226       -4.1572  -25.3018  -57.7574 H         1 UNK         0.0600 
    227 H227       -2.3736  -23.6331  -57.2639 H         1 UNK         0.0600 
    228 H228       -3.7738  -22.8723  -58.0048 H         1 UNK         0.0600 
    229 H229       -3.5018  -22.7080  -56.2769 H         1 UNK         0.0600 
    230 H230       -5.6101  -24.6604  -54.7229 H         1 UNK         0.3000 
    231 H231       -7.6942  -24.4963  -53.9997 H         1 UNK         0.0600 
    232 H232       -8.3605  -26.1512  -55.7497 H         1 UNK         0.0600 
    233 H233       -8.7304  -24.8297  -56.8570 H         1 UNK         0.0600 
    234 H234       -9.6457  -25.0163  -55.3707 H         1 UNK         0.0600 
    235 H235       -6.2478  -22.2678  -54.1362 H         1 UNK         0.3000 
    236 H236       -8.3035  -20.1672  -54.4695 H         1 UNK         0.0600 
    237 H237       -6.5424  -18.6223  -55.3480 H         1 UNK         0.0600 
    238 H238       -5.3764  -19.9390  -55.3902 H         1 UNK         0.0600 
    239 H239       -6.7799  -19.9667  -56.4557 H         1 UNK         0.0600 
    240 H240       -8.1406  -18.6092  -52.9263 H         1 UNK         0.3000 
    241 H241       -8.0869  -17.8656  -50.9077 H         1 UNK         0.0600 
    242 H242       -6.3351  -20.8058  -50.7882 H         1 UNK         0.3800 
    243 H243       -6.3435  -20.9563  -49.0312 H         1 UNK         0.3800 
    244 H244       -6.5121  -16.4712  -52.0653 H         1 UNK         0.0800 
    245 H245       -6.1296  -16.5205  -50.3804 H         1 UNK         0.0800 
    246 H246       -3.8599  -16.4321  -49.6903 H         1 UNK         0.0800 
    247 H247       -3.9229  -18.1599  -49.4570 H         1 UNK         0.0800 
@<TRIPOS>BOND
     1    1    2 1    
     2    1  127 1    
     3    1  128 1    
     4    1  129 1    
     5    2    3 2    
     6    2    4 am   BACKBONE|DICT|INTERRES
     7    4    5 1    
     8    4  130 1    
     9    5    6 1    
    10    5   65 1    
    11    5  131 1    
    12    6    7 1    
    13    6  132 1    
    14    6  133 1    
    15    7    8 1    
    16    8    9 1    
    17    8  134 1    
    18    8  135 1    
    19    9   10 ar   
    20    9   14 ar   
    21   10   11 ar   
    22   10  136 1    
    23   11   12 ar   
    24   11  126 1    
    25   12   13 ar   
    26   12  137 1    
    27   13   14 ar   
    28   13   15 1    
    29   14  138 1    
    30   15   16 1    
    31   15  139 1    
    32   15  140 1    
    33   16   17 1    
    34   17   18 1    
    35   17  141 1    
    36   17  142 1    
    37   18   19 1    
    38   18   67 1    
    39   18  143 1    
    40   19   20 am   BACKBONE|DICT|INTERRES
    41   19  144 1    
    42   20   21 2    
    43   20   22 1    
    44   22   23 1    
    45   22   24 1    
    46   22  145 1    
    47   23  146 1    
    48   23  147 1    
    49   23  148 1    
    50   24   25 am   BACKBONE|DICT|INTERRES
    51   24  149 1    
    52   25   26 2    
    53   25   27 1    
    54   27   28 1    
    55   27   29 1    
    56   27  150 1    
    57   28  151 1    
    58   28  152 1    
    59   28  153 1    
    60   29   30 am   BACKBONE|DICT|INTERRES
    61   29  154 1    
    62   30   31 2    
    63   30   32 1    
    64   32   33 1    
    65   32   34 1    
    66   32  155 1    
    67   33  156 1    
    68   33  157 1    
    69   33  158 1    
    70   34   35 am   BACKBONE|DICT|INTERRES
    71   34  159 1    
    72   35   36 2    
    73   35   37 1    
    74   37   38 1    
    75   37   39 1    
    76   37  160 1    
    77   38  161 1    
    78   38  162 1    
    79   38  163 1    
    80   39   40 am   BACKBONE|DICT|INTERRES
    81   39  164 1    
    82   40   41 2    
    83   40   42 1    
    84   42   43 1    
    85   42   44 1    
    86   42  165 1    
    87   43  166 1    
    88   43  167 1    
    89   43  168 1    
    90   44   45 am   BACKBONE|DICT|INTERRES
    91   44  169 1    
    92   45   46 2    
    93   45   47 1    
    94   47   48 1    
    95   47   49 1    
    96   47  170 1    
    97   48  171 1    
    98   48  172 1    
    99   48  173 1    
   100   49   50 am   BACKBONE|DICT|INTERRES
   101   49  174 1    
   102   50   51 2    
   103   50   52 1    
   104   52   53 1    
   105   52   54 1    
   106   52  175 1    
   107   53  176 1    
   108   53  177 1    
   109   53  178 1    
   110   54   55 am   BACKBONE|DICT|INTERRES
   111   54  179 1    
   112   55   56 2    
   113   55   57 1    
   114   57   58 1    
   115   57   59 1    
   116   57  180 1    
   117   58  181 1    
   118   58  182 1    
   119   58  183 1    
   120   59   60 am   BACKBONE|DICT|INTERRES
   121   59  184 1    
   122   60   61 2    
   123   60   62 1    
   124   62   63 1    
   125   62   64 1    
   126   62  185 1    
   127   63  186 1    
   128   63  187 1    
   129   63  188 1    
   130   64   65 am   BACKBONE|DICT|INTERRES
   131   64  189 1    
   132   65   66 2    
   133   67   68 2    
   134   67   69 am   BACKBONE|DICT|INTERRES
   135   69   70 1    
   136   69  190 1    
   137   70   71 1    
   138   70   72 1    
   139   70  191 1    
   140   71  192 1    
   141   71  193 1    
   142   71  194 1    
   143   72   73 2    
   144   72   74 am   BACKBONE|DICT|INTERRES
   145   74   75 1    
   146   74  195 1    
   147   75   76 1    
   148   75   77 1    
   149   75  196 1    
   150   76  197 1    
   151   76  198 1    
   152   76  199 1    
   153   77   78 2    
   154   77   79 am   BACKBONE|DICT|INTERRES
   155   79   80 1    
   156   79  200 1    
   157   80   81 1    
   158   80   82 1    
   159   80  201 1    
   160   81  202 1    
   161   81  203 1    
   162   81  204 1    
   163   82   83 2    
   164   82   84 am   BACKBONE|DICT|INTERRES
   165   84   85 1    
   166   84  205 1    
   167   85   86 1    
   168   85   87 1    
   169   85  206 1    
   170   86  207 1    
   171   86  208 1    
   172   86  209 1    
   173   87   88 2    
   174   87   89 am   BACKBONE|DICT|INTERRES
   175   89   90 1    
   176   89  210 1    
   177   90   91 1    
   178   90   92 1    
   179   90  211 1    
   180   91  212 1    
   181   91  213 1    
   182   91  214 1    
   183   92   93 2    
   184   92   94 am   BACKBONE|DICT|INTERRES
   185   94   95 1    
   186   94  215 1    
   187   95   96 1    
   188   95   97 1    
   189   95  216 1    
   190   96  217 1    
   191   96  218 1    
   192   96  219 1    
   193   97   98 2    
   194   97   99 am   BACKBONE|DICT|INTERRES
   195   99  100 1    
   196   99  220 1    
   197  100  101 1    
   198  100  102 1    
   199  100  221 1    
   200  101  222 1    
   201  101  223 1    
   202  101  224 1    
   203  102  103 2    
   204  102  104 am   BACKBONE|DICT|INTERRES
   205  104  105 1    
   206  104  225 1    
   207  105  106 1    
   208  105  107 1    
   209  105  226 1    
   210  106  227 1    
   211  106  228 1    
   212  106  229 1    
   213  107  108 2    
   214  107  109 am   BACKBONE|DICT|INTERRES
   215  109  110 1    
   216  109  230 1    
   217  110  111 1    
   218  110  112 1    
   219  110  231 1    
   220  111  232 1    
   221  111  233 1    
   222  111  234 1    
   223  112  113 2    
   224  112  114 am   BACKBONE|DICT|INTERRES
   225  114  115 1    
   226  114  235 1    
   227  115  116 1    
   228  115  117 1    
   229  115  236 1    
   230  116  237 1    
   231  116  238 1    
   232  116  239 1    
   233  117  118 2    
   234  117  119 am   BACKBONE|DICT|INTERRES
   235  119  120 1    
   236  119  240 1    
   237  120  121 1    
   238  120  124 1    
   239  120  241 1    
   240  121  122 am   BACKBONE|DICT|INTERRES
   241  121  123 2    
   242  122  242 1    
   243  122  243 1    
   244  124  125 1    
   245  124  244 1    
   246  124  245 1    
   247  125  126 1    
   248  126  246 1    
   249  126  247 1    
@<TRIPOS>SUBSTRUCTURE
     1 UNK         1 GROUP             0       ****    0 ROOT    
