@<TRIPOS>MOLECULE
3R540
247   249    1
SMALL
USER_CHARGES


@<TRIPOS>ATOM
      1 CA          6.7707  -11.8038  -43.3627 C.3       0 UNK        -0.1800 
      2 C           5.5348  -12.2865  -44.1063 C.2       0 UNK         0.5000 
      3 O           4.4829  -11.6570  -44.0124 O.2       0 UNK        -0.5000 
      4 N           5.6625  -13.3857  -44.8617 N.am      1 UNK        -0.5000 
      5 CA          4.6021  -14.0660  -45.6254 C.3       1 UNK         0.1400 
      6 C6          5.1776  -15.3360  -46.3012 C.3       23 UNK        -0.0398 
      7 S7          3.9214  -16.5410  -46.8488 S.3       23 UNK        -0.2404 
      8 C8          4.2782  -16.5913  -48.6334 C.3       23 UNK        -0.0205 
      9 C9          3.4489  -17.6476  -49.3459 C.ar      23 UNK        -0.0193 
     10 C10         2.4114  -17.2765  -50.2054 C.ar      23 UNK        -0.1150 
     11 C11         1.6592  -18.2498  -50.8695 C.ar      23 UNK        -0.0193 
     12 C12         1.9371  -19.6025  -50.6517 C.ar      23 UNK        -0.1150 
     13 C13         2.9730  -19.9888  -49.7954 C.ar      23 UNK        -0.0193 
     14 C14         3.7360  -19.0026  -49.1605 C.ar      23 UNK        -0.1150 
     15 C15         3.2573  -21.4727  -49.5733 C.3       23 UNK        -0.0205 
     16 S16         3.5762  -21.9244  -47.8306 S.3       23 UNK        -0.2404 
     17 C17         2.0980  -21.2674  -46.9842 C.3       23 UNK        -0.0398 
     18 CA          1.0303  -22.3351  -46.6565 C.3       11 UNK         0.1400 
     19 N           0.0513  -21.8210  -45.6976 N.am      11 UNK        -0.5000 
     20 C          -0.9065  -22.5445  -45.1041 C.2       10 UNK         0.5000 
     21 O          -1.0259  -23.7618  -45.2411 O.2       10 UNK        -0.5000 
     22 CA         -1.9302  -21.7685  -44.2543 C.3       10 UNK         0.1400 
     23 CB         -1.3759  -21.4865  -42.8503 C.3       10 UNK        -0.1800 
     24 N          -2.3463  -20.5131  -44.8851 N.am      10 UNK        -0.5000 
     25 C          -3.0358  -20.4414  -46.0334 C.2       9 UNK         0.5000 
     26 O          -3.4419  -21.4300  -46.6429 O.2       9 UNK        -0.5000 
     27 CA         -3.2811  -19.0404  -46.6242 C.3       9 UNK         0.1400 
     28 CB         -4.4888  -18.3726  -45.9515 C.3       9 UNK        -0.1800 
     29 N          -2.1116  -18.1642  -46.5300 N.am      9 UNK        -0.5000 
     30 C          -0.9344  -18.3972  -47.1297 C.2       8 UNK         0.5000 
     31 O          -0.7210  -19.3720  -47.8472 O.2       8 UNK        -0.5000 
     32 CA          0.2184  -17.4246  -46.8146 C.3       8 UNK         0.1400 
     33 CB          0.0738  -16.1074  -47.5895 C.3       8 UNK        -0.1800 
     34 N           0.3233  -17.1401  -45.3837 N.am      8 UNK        -0.5000 
     35 C           0.5785  -18.0608  -44.4438 C.2       7 UNK         0.5000 
     36 O           0.8147  -19.2433  -44.6863 O.2       7 UNK        -0.5000 
     37 CA          0.4906  -17.5957  -42.9822 C.3       7 UNK         0.1400 
     38 CB          1.8028  -16.9340  -42.5334 C.3       7 UNK        -0.1800 
     39 N          -0.6339  -16.6809  -42.7810 N.am      7 UNK        -0.5000 
     40 C          -1.9205  -17.0603  -42.7989 C.2       6 UNK         0.5000 
     41 O          -2.2842  -18.2279  -42.9393 O.2       6 UNK        -0.5000 
     42 CA         -2.9790  -15.9474  -42.6774 C.3       6 UNK         0.1400 
     43 CB         -3.2316  -15.6003  -41.2028 C.3       6 UNK        -0.1800 
     44 N          -2.6093  -14.7322  -43.4045 N.am      6 UNK        -0.5000 
     45 C          -2.5110  -14.6476  -44.7389 C.2       5 UNK         0.5000 
     46 O          -2.7863  -15.5732  -45.4999 O.2       5 UNK        -0.5000 
     47 CA         -1.9687  -13.3266  -45.3200 C.3       5 UNK         0.1400 
     48 CB         -3.1219  -12.3634  -45.6363 C.3       5 UNK        -0.1800 
     49 N          -1.0000  -12.6502  -44.4531 N.am      5 UNK        -0.5000 
     50 C           0.1486  -13.1794  -44.0141 C.2       4 UNK         0.5000 
     51 O           0.5237  -14.3189  -44.2953 O.2       4 UNK        -0.5000 
     52 CA          0.9977  -12.2829  -43.0955 C.3       4 UNK         0.1400 
     53 CB          2.0077  -13.0907  -42.2615 C.3       4 UNK        -0.1800 
     54 N           1.7177  -11.2721  -43.8632 N.am      4 UNK        -0.5000 
     55 C           1.1876  -10.1590  -44.3864 C.2       3 UNK         0.5000 
     56 O           0.0013   -9.8480  -44.2667 O.2       3 UNK        -0.5000 
     57 CA          2.1380   -9.2431  -45.1747 C.3       3 UNK         0.1400 
     58 CB          2.9485   -8.3576  -44.2150 C.3       3 UNK        -0.1800 
     59 N           3.0611  -10.0228  -45.9996 N.am      3 UNK        -0.5000 
     60 C           2.9551  -10.1836  -47.3257 C.2       2 UNK         0.5000 
     61 O           2.0818   -9.6504  -48.0116 O.2       2 UNK        -0.5000 
     62 CA          4.0007  -11.0866  -48.0150 C.3       2 UNK         0.1400 
     63 CB          5.1494  -10.2389  -48.5827 C.3       2 UNK        -0.1800 
     64 N           4.5612  -12.1154  -47.1367 N.am      2 UNK        -0.5000 
     65 C           3.8703  -13.1516  -46.6397 C.2       1 UNK         0.5000 
     66 O           2.6944  -13.3728  -46.9257 O.2       1 UNK        -0.5000 
     67 C           0.3410  -22.8784  -47.9259 C.2       11 UNK         0.5000 
     68 O           0.6554  -23.9852  -48.3600 O.2       11 UNK        -0.5000 
     69 N          -0.6201  -22.1187  -48.4681 N.am      12 UNK        -0.5000 
     70 CA         -1.4558  -22.5089  -49.6020 C.3       12 UNK         0.1400 
     71 CB         -2.3259  -21.3170  -50.0221 C.3       12 UNK        -0.1800 
     72 C          -2.3083  -23.7590  -49.3158 C.2       12 UNK         0.5000 
     73 O          -2.3811  -24.6429  -50.1684 O.2       12 UNK        -0.5000 
     74 N          -2.8912  -23.8427  -48.1115 N.am      13 UNK        -0.5000 
     75 CA         -3.6193  -25.0170  -47.6271 C.3       13 UNK         0.1400 
     76 CB         -4.2846  -24.7047  -46.2774 C.3       13 UNK        -0.1800 
     77 C          -2.7209  -26.2635  -47.5176 C.2       13 UNK         0.5000 
     78 O          -3.1168  -27.3353  -47.9759 O.2       13 UNK        -0.5000 
     79 N          -1.5120  -26.0952  -46.9612 N.am      14 UNK        -0.5000 
     80 CA         -0.4882  -27.1399  -46.8564 C.3       14 UNK         0.1400 
     81 CB          0.6657  -26.6411  -45.9736 C.3       14 UNK        -0.1800 
     82 C           0.0341  -27.6160  -48.2272 C.2       14 UNK         0.5000 
     83 O           0.3015  -28.8058  -48.3972 O.2       14 UNK        -0.5000 
     84 N           0.1260  -26.6890  -49.1897 N.am      15 UNK        -0.5000 
     85 CA          0.4676  -26.9418  -50.5916 C.3       15 UNK         0.1400 
     86 CB          0.9378  -25.6242  -51.2301 C.3       15 UNK        -0.1800 
     87 C          -0.6839  -27.5656  -51.4121 C.2       15 UNK         0.5000 
     88 O          -0.4704  -27.8980  -52.5788 O.2       15 UNK        -0.5000 
     89 N          -1.8701  -27.7118  -50.8025 N.am      16 UNK        -0.5000 
     90 CA         -3.1089  -28.2576  -51.3639 C.3       16 UNK         0.1400 
     91 CB         -2.9344  -29.7332  -51.7821 C.3       16 UNK        -0.1800 
     92 C          -3.7270  -27.3764  -52.4698 C.2       16 UNK         0.5000 
     93 O          -4.3846  -27.8945  -53.3752 O.2       16 UNK        -0.5000 
     94 N          -3.5382  -26.0552  -52.3594 N.am      17 UNK        -0.5000 
     95 CA         -4.2552  -25.0441  -53.1342 C.3       17 UNK         0.1400 
     96 CB         -3.3667  -23.7935  -53.2606 C.3       17 UNK        -0.1800 
     97 C          -5.6133  -24.7226  -52.4726 C.2       17 UNK         0.5000 
     98 O          -5.9869  -25.3432  -51.4732 O.2       17 UNK        -0.5000 
     99 N          -6.3404  -23.7546  -53.0459 N.am      18 UNK        -0.5000 
    100 CA        -7.6730  -23.3346  -52.5996 C.3       18 UNK         0.1400 
    101 CB        -8.2653  -22.3748  -53.6426 C.3       18 UNK        -0.1800 
    102 C         -7.7067  -22.6848  -51.2013 C.2       18 UNK         0.5000 
    103 O         -8.7645  -22.6787  -50.5709 O.2       18 UNK        -0.5000 
    104 N         -6.5726  -22.1197  -50.7612 N.am      19 UNK        -0.5000 
    105 CA        -6.3115  -21.4218  -49.4927 C.3       19 UNK         0.1400 
    106 CB        -6.6056  -22.3166  -48.2763 C.3       19 UNK        -0.1800 
    107 C         -7.0107  -20.0541  -49.3755 C.2       19 UNK         0.5000 
    108 O         -6.3807  -19.0898  -48.9421 O.2       19 UNK        -0.5000 
    109 N         -8.2735  -19.9754  -49.8163 N.am      20 UNK        -0.5000 
    110 CA        -9.0240  -18.7354  -50.0325 C.3       20 UNK         0.1400 
    111 CB       -10.4978  -19.0811  -50.2918 C.3       20 UNK        -0.1800 
    112 C         -8.4473  -17.9024  -51.1961 C.2       20 UNK         0.5000 
    113 O         -8.5546  -16.6757  -51.1825 O.2       20 UNK        -0.5000 
    114 N         -7.8125  -18.5897  -52.1525 N.am      21 UNK        -0.5000 
    115 CA        -6.9006  -18.0340  -53.1415 C.3       21 UNK         0.1400 
    116 CB        -7.4458  -18.2908  -54.5546 C.3       21 UNK        -0.1800 
    117 C         -5.5550  -18.7402  -52.9257 C.2       21 UNK         0.5000 
    118 O         -5.5356  -19.9548  -52.7019 O.2       21 UNK        -0.5000 
    119 N         -4.4660  -17.9676  -52.9547 N.am      22 UNK        -0.5000 
    120 CA        -3.1045  -18.4517  -52.6908 C.3       22 UNK         0.1400 
    121 C         -2.5419  -19.3482  -53.8304 C.2       22 UNK         0.5000 
    122 N         -1.6978  -20.3183  -53.5067 N.am      22 UNK        -0.7600 
    123 O         -2.8335  -19.1469  -55.0073 O.2       22 UNK        -0.5000 
    124 C124       -2.1511  -17.2724  -52.3558 C.3       23 UNK        -0.0398 
    125 S125       -1.0322  -17.6693  -50.9743 S.3       23 UNK        -0.2404 
    126 C126        0.5574  -17.8404  -51.8334 C.3       23 UNK        -0.0205 
    127 H127        7.6322  -12.4464  -43.5456 H         1 UNK         0.0600 
    128 H128        6.5783  -11.7886  -42.2900 H         1 UNK         0.0600 
    129 H129        7.0260  -10.7924  -43.6785 H         1 UNK         0.0600 
    130 H130        6.5675  -13.8330  -44.8970 H         1 UNK         0.3000 
    131 H131        3.8539  -14.3826  -44.8960 H         1 UNK         0.0600 
    132 H132        5.8325  -15.0638  -47.1308 H         1 UNK         0.0800 
    133 H133        5.8124  -15.8704  -45.5929 H         1 UNK         0.0800 
    134 H134        5.3361  -16.8089  -48.7882 H         1 UNK         0.0800 
    135 H135        4.0961  -15.6043  -49.0619 H         1 UNK         0.0800 
    136 H136        2.1902  -16.2301  -50.3622 H         1 UNK         0.1150 
    137 H137        1.3456  -20.3548  -51.1542 H         1 UNK         0.1150 
    138 H138        4.5446  -19.2876  -48.5022 H         1 UNK         0.1150 
    139 H139        2.4277  -22.0792  -49.9399 H         1 UNK         0.0800 
    140 H140        4.1264  -21.7518  -50.1700 H         1 UNK         0.0800 
    141 H141        1.6627  -20.4413  -47.5454 H         1 UNK         0.0800 
    142 H142        2.4590  -20.8237  -46.0557 H         1 UNK         0.0800 
    143 H143        1.5321  -23.1756  -46.1725 H         1 UNK         0.0600 
    144 H144        0.1111  -20.8287  -45.4848 H         1 UNK         0.3000 
    145 H145       -2.8160  -22.3979  -44.1472 H         1 UNK         0.0600 
    146 H146       -1.0837  -22.4123  -42.3532 H         1 UNK         0.0600 
    147 H147       -0.4984  -20.8408  -42.8843 H         1 UNK         0.0600 
    148 H148       -2.1233  -21.0015  -42.2222 H         1 UNK         0.0600 
    149 H149       -2.0916  -19.6545  -44.4086 H         1 UNK         0.3000 
    150 H150       -3.5147  -19.1637  -47.6835 H         1 UNK         0.0600 
    151 H151       -5.3753  -19.0036  -46.0283 H         1 UNK         0.0600 
    152 H152       -4.7274  -17.4217  -46.4282 H         1 UNK         0.0600 
    153 H153       -4.3081  -18.1822  -44.8935 H         1 UNK         0.0600 
    154 H154       -2.2288  -17.3081  -45.9943 H         1 UNK         0.3000 
    155 H155        1.1503  -17.8999  -47.1276 H         1 UNK         0.0600 
    156 H156       -0.8727  -15.6123  -47.3784 H         1 UNK         0.0600 
    157 H157        0.8793  -15.4151  -47.3442 H         1 UNK         0.0600 
    158 H158        0.1166  -16.2836  -48.6630 H         1 UNK         0.0600 
    159 H159        0.1882  -16.1776  -45.0925 H         1 UNK         0.3000 
    160 H160        0.3290  -18.4766  -42.3572 H         1 UNK         0.0600 
    161 H161        2.0681  -16.0838  -43.1613 H         1 UNK         0.0600 
    162 H162        2.6293  -17.6436  -42.5872 H         1 UNK         0.0600 
    163 H163        1.7394  -16.5857  -41.5025 H         1 UNK         0.0600 
    164 H164       -0.4133  -15.6955  -42.7533 H         1 UNK         0.3000 
    165 H165       -3.9105  -16.3268  -43.1029 H         1 UNK         0.0600 
    166 H166       -4.0341  -14.8694  -41.1017 H         1 UNK         0.0600 
    167 H167       -3.5277  -16.4863  -40.6394 H         1 UNK         0.0600 
    168 H168       -2.3407  -15.1902  -40.7257 H         1 UNK         0.0600 
    169 H169       -2.3713  -13.9214  -42.8528 H         1 UNK         0.3000 
    170 H170       -1.4571  -13.5644  -46.2542 H         1 UNK         0.0600 
    171 H171       -3.8481  -12.8294  -46.3038 H         1 UNK         0.0600 
    172 H172       -3.6523  -12.0603  -44.7328 H         1 UNK         0.0600 
    173 H173       -2.7586  -11.4624  -46.1311 H         1 UNK         0.0600 
    174 H174       -1.1873  -11.6802  -44.2285 H         1 UNK         0.3000 
    175 H175        0.3229  -11.7811  -42.3989 H         1 UNK         0.0600 
    176 H176        2.7323  -13.6070  -42.8912 H         1 UNK         0.0600 
    177 H177        2.5618  -12.4442  -41.5808 H         1 UNK         0.0600 
    178 H178        1.5020  -13.8436  -41.6560 H         1 UNK         0.0600 
    179 H179        2.7133  -11.4421  -43.9893 H         1 UNK         0.3000 
    180 H180        1.5268   -8.5879  -45.7988 H         1 UNK         0.0600 
    181 H181        3.5873   -8.9503  -43.5588 H         1 UNK         0.0600 
    182 H182        2.2893   -7.7617  -43.5825 H         1 UNK         0.0600 
    183 H183        3.5858   -7.6646  -44.7645 H         1 UNK         0.0600 
    184 H184        3.7785  -10.5381  -45.5010 H         1 UNK         0.3000 
    185 H185        3.5029  -11.5882  -48.8476 H         1 UNK         0.0600 
    186 H186        5.8554  -10.8536  -49.1414 H         1 UNK         0.0600 
    187 H187        4.7720   -9.4772  -49.2663 H         1 UNK         0.0600 
    188 H188        5.7000   -9.7268  -47.7925 H         1 UNK         0.0600 
    189 H189        5.5199  -11.9927  -46.8454 H         1 UNK         0.3000 
    190 H190       -0.7787  -21.1863  -48.0899 H         1 UNK         0.3000 
    191 H191       -0.7906  -22.7488  -50.4335 H         1 UNK         0.0600 
    192 H192       -2.9513  -20.9703  -49.2019 H         1 UNK         0.0600 
    193 H193       -2.9833  -21.5661  -50.8541 H         1 UNK         0.0600 
    194 H194       -1.7035  -20.4792  -50.3319 H         1 UNK         0.0600 
    195 H195       -2.8415  -23.0434  -47.4854 H         1 UNK         0.3000 
    196 H196       -4.4069  -25.2363  -48.3514 H         1 UNK         0.0600 
    197 H197       -4.8951  -25.5440  -45.9427 H         1 UNK         0.0600 
    198 H198       -4.9366  -23.8348  -46.3441 H         1 UNK         0.0600 
    199 H199       -3.5493  -24.5055  -45.4986 H         1 UNK         0.0600 
    200 H200       -1.2769  -25.1869  -46.5705 H         1 UNK         0.3000 
    201 H201       -0.9438  -28.0002  -46.3620 H         1 UNK         0.0600 
    202 H202        0.3113  -26.3673  -44.9796 H         1 UNK         0.0600 
    203 H203        1.1562  -25.7684  -46.4047 H         1 UNK         0.0600 
    204 H204        1.4238  -27.4151  -45.8478 H         1 UNK         0.0600 
    205 H205       -0.0324  -25.7178  -48.9359 H         1 UNK         0.3000 
    206 H206        1.3008  -27.6468  -50.6189 H         1 UNK         0.0600 
    207 H207        1.7757  -25.1949  -50.6802 H         1 UNK         0.0600 
    208 H208        1.2705  -25.7810  -52.2568 H         1 UNK         0.0600 
    209 H209        0.1386  -24.8837  -51.2546 H         1 UNK         0.0600 
    210 H210       -1.9477  -27.3811  -49.8486 H         1 UNK         0.3000 
    211 H211       -3.8300  -28.2411  -50.5457 H         1 UNK         0.0600 
    212 H212       -2.2911  -29.8358  -52.6563 H         1 UNK         0.0600 
    213 H213       -3.8955  -30.1840  -52.0317 H         1 UNK         0.0600 
    214 H214       -2.5014  -30.3231  -50.9742 H         1 UNK         0.0600 
    215 H215       -3.0279  -25.7039  -51.5517 H         1 UNK         0.3000 
    216 H216       -4.4517  -25.4268  -54.1376 H         1 UNK         0.0600 
    217 H217       -3.7983  -23.0612  -53.9435 H         1 UNK         0.0600 
    218 H218       -2.3797  -24.0486  -53.6468 H         1 UNK         0.0600 
    219 H219       -3.2296  -23.3018  -52.3001 H         1 UNK         0.0600 
    220 H220       -5.9718  -23.2802  -53.8576 H         1 UNK         0.3000 
    221 H221       -8.3062  -24.2232  -52.5561 H         1 UNK         0.0600 
    222 H222       -7.6436  -21.4884  -53.7649 H         1 UNK         0.0600 
    223 H223       -8.3579  -22.8570  -54.6158 H         1 UNK         0.0600 
    224 H224       -9.2621  -22.0406  -53.3511 H         1 UNK         0.0600 
    225 H225       -5.8015  -22.1044  -51.4147 H         1 UNK         0.3000 
    226 H226       -5.2407  -21.2210  -49.4916 H         1 UNK         0.0600 
    227 H227       -6.1107  -23.2821  -48.3755 H         1 UNK         0.0600 
    228 H228       -6.2402  -21.8528  -47.3592 H         1 UNK         0.0600 
    229 H229       -7.6727  -22.4983  -48.1475 H         1 UNK         0.0600 
    230 H230       -8.7122  -20.8417  -50.1168 H         1 UNK         0.3000 
    231 H231       -8.9617  -18.1325  -49.1242 H         1 UNK         0.0600 
    232 H232      -11.0908  -18.1776  -50.4394 H         1 UNK         0.0600 
    233 H233      -10.9304  -19.6196  -49.4483 H         1 UNK         0.0600 
    234 H234      -10.6150  -19.7013  -51.1815 H         1 UNK         0.0600 
    235 H235       -7.7240  -19.5885  -52.0289 H         1 UNK         0.3000 
    236 H236       -6.7747  -16.9592  -52.9945 H         1 UNK         0.0600 
    237 H237       -8.4216  -17.8239  -54.6890 H         1 UNK         0.0600 
    238 H238       -6.7777  -17.8745  -55.3094 H         1 UNK         0.0600 
    239 H239       -7.5532  -19.3550  -54.7636 H         1 UNK         0.0600 
    240 H240       -4.5587  -16.9890  -53.1830 H         1 UNK         0.3000 
    241 H241       -3.1934  -19.0830  -51.8043 H         1 UNK         0.0600 
    242 H242       -1.4208  -20.4785  -52.5533 H         1 UNK         0.3800 
    243 H243       -1.3178  -20.8950  -54.2406 H         1 UNK         0.3800 
    244 H244       -1.5870  -16.9372  -53.2284 H         1 UNK         0.0800 
    245 H245       -2.7203  -16.4004  -52.0307 H         1 UNK         0.0800 
    246 H246        0.4669  -18.5780  -52.6320 H         1 UNK         0.0800 
    247 H247        0.8135  -16.8949  -52.3138 H         1 UNK         0.0800 
@<TRIPOS>BOND
     1    1    2 1    
     2    1  127 1    
     3    1  128 1    
     4    1  129 1    
     5    2    3 2    
     6    2    4 am   BACKBONE|DICT|INTERRES
     7    4    5 1    
     8    4  130 1    
     9    5    6 1    
    10    5   65 1    
    11    5  131 1    
    12    6    7 1    
    13    6  132 1    
    14    6  133 1    
    15    7    8 1    
    16    8    9 1    
    17    8  134 1    
    18    8  135 1    
    19    9   10 ar   
    20    9   14 ar   
    21   10   11 ar   
    22   10  136 1    
    23   11   12 ar   
    24   11  126 1    
    25   12   13 ar   
    26   12  137 1    
    27   13   14 ar   
    28   13   15 1    
    29   14  138 1    
    30   15   16 1    
    31   15  139 1    
    32   15  140 1    
    33   16   17 1    
    34   17   18 1    
    35   17  141 1    
    36   17  142 1    
    37   18   19 1    
    38   18   67 1    
    39   18  143 1    
    40   19   20 am   BACKBONE|DICT|INTERRES
    41   19  144 1    
    42   20   21 2    
    43   20   22 1    
    44   22   23 1    
    45   22   24 1    
    46   22  145 1    
    47   23  146 1    
    48   23  147 1    
    49   23  148 1    
    50   24   25 am   BACKBONE|DICT|INTERRES
    51   24  149 1    
    52   25   26 2    
    53   25   27 1    
    54   27   28 1    
    55   27   29 1    
    56   27  150 1    
    57   28  151 1    
    58   28  152 1    
    59   28  153 1    
    60   29   30 am   BACKBONE|DICT|INTERRES
    61   29  154 1    
    62   30   31 2    
    63   30   32 1    
    64   32   33 1    
    65   32   34 1    
    66   32  155 1    
    67   33  156 1    
    68   33  157 1    
    69   33  158 1    
    70   34   35 am   BACKBONE|DICT|INTERRES
    71   34  159 1    
    72   35   36 2    
    73   35   37 1    
    74   37   38 1    
    75   37   39 1    
    76   37  160 1    
    77   38  161 1    
    78   38  162 1    
    79   38  163 1    
    80   39   40 am   BACKBONE|DICT|INTERRES
    81   39  164 1    
    82   40   41 2    
    83   40   42 1    
    84   42   43 1    
    85   42   44 1    
    86   42  165 1    
    87   43  166 1    
    88   43  167 1    
    89   43  168 1    
    90   44   45 am   BACKBONE|DICT|INTERRES
    91   44  169 1    
    92   45   46 2    
    93   45   47 1    
    94   47   48 1    
    95   47   49 1    
    96   47  170 1    
    97   48  171 1    
    98   48  172 1    
    99   48  173 1    
   100   49   50 am   BACKBONE|DICT|INTERRES
   101   49  174 1    
   102   50   51 2    
   103   50   52 1    
   104   52   53 1    
   105   52   54 1    
   106   52  175 1    
   107   53  176 1    
   108   53  177 1    
   109   53  178 1    
   110   54   55 am   BACKBONE|DICT|INTERRES
   111   54  179 1    
   112   55   56 2    
   113   55   57 1    
   114   57   58 1    
   115   57   59 1    
   116   57  180 1    
   117   58  181 1    
   118   58  182 1    
   119   58  183 1    
   120   59   60 am   BACKBONE|DICT|INTERRES
   121   59  184 1    
   122   60   61 2    
   123   60   62 1    
   124   62   63 1    
   125   62   64 1    
   126   62  185 1    
   127   63  186 1    
   128   63  187 1    
   129   63  188 1    
   130   64   65 am   BACKBONE|DICT|INTERRES
   131   64  189 1    
   132   65   66 2    
   133   67   68 2    
   134   67   69 am   BACKBONE|DICT|INTERRES
   135   69   70 1    
   136   69  190 1    
   137   70   71 1    
   138   70   72 1    
   139   70  191 1    
   140   71  192 1    
   141   71  193 1    
   142   71  194 1    
   143   72   73 2    
   144   72   74 am   BACKBONE|DICT|INTERRES
   145   74   75 1    
   146   74  195 1    
   147   75   76 1    
   148   75   77 1    
   149   75  196 1    
   150   76  197 1    
   151   76  198 1    
   152   76  199 1    
   153   77   78 2    
   154   77   79 am   BACKBONE|DICT|INTERRES
   155   79   80 1    
   156   79  200 1    
   157   80   81 1    
   158   80   82 1    
   159   80  201 1    
   160   81  202 1    
   161   81  203 1    
   162   81  204 1    
   163   82   83 2    
   164   82   84 am   BACKBONE|DICT|INTERRES
   165   84   85 1    
   166   84  205 1    
   167   85   86 1    
   168   85   87 1    
   169   85  206 1    
   170   86  207 1    
   171   86  208 1    
   172   86  209 1    
   173   87   88 2    
   174   87   89 am   BACKBONE|DICT|INTERRES
   175   89   90 1    
   176   89  210 1    
   177   90   91 1    
   178   90   92 1    
   179   90  211 1    
   180   91  212 1    
   181   91  213 1    
   182   91  214 1    
   183   92   93 2    
   184   92   94 am   BACKBONE|DICT|INTERRES
   185   94   95 1    
   186   94  215 1    
   187   95   96 1    
   188   95   97 1    
   189   95  216 1    
   190   96  217 1    
   191   96  218 1    
   192   96  219 1    
   193   97   98 2    
   194   97   99 am   BACKBONE|DICT|INTERRES
   195   99  100 1    
   196   99  220 1    
   197  100  101 1    
   198  100  102 1    
   199  100  221 1    
   200  101  222 1    
   201  101  223 1    
   202  101  224 1    
   203  102  103 2    
   204  102  104 am   BACKBONE|DICT|INTERRES
   205  104  105 1    
   206  104  225 1    
   207  105  106 1    
   208  105  107 1    
   209  105  226 1    
   210  106  227 1    
   211  106  228 1    
   212  106  229 1    
   213  107  108 2    
   214  107  109 am   BACKBONE|DICT|INTERRES
   215  109  110 1    
   216  109  230 1    
   217  110  111 1    
   218  110  112 1    
   219  110  231 1    
   220  111  232 1    
   221  111  233 1    
   222  111  234 1    
   223  112  113 2    
   224  112  114 am   BACKBONE|DICT|INTERRES
   225  114  115 1    
   226  114  235 1    
   227  115  116 1    
   228  115  117 1    
   229  115  236 1    
   230  116  237 1    
   231  116  238 1    
   232  116  239 1    
   233  117  118 2    
   234  117  119 am   BACKBONE|DICT|INTERRES
   235  119  120 1    
   236  119  240 1    
   237  120  121 1    
   238  120  124 1    
   239  120  241 1    
   240  121  122 am   BACKBONE|DICT|INTERRES
   241  121  123 2    
   242  122  242 1    
   243  122  243 1    
   244  124  125 1    
   245  124  244 1    
   246  124  245 1    
   247  125  126 1    
   248  126  246 1    
   249  126  247 1    
@<TRIPOS>SUBSTRUCTURE
     1 UNK         1 GROUP             0       ****    0 ROOT    
