@<TRIPOS>MOLECULE
3R540
247   249    1
SMALL
USER_CHARGES


@<TRIPOS>ATOM
      1 CA          3.7559  -18.3832  -47.8916 C.3       0 UNK        -0.1800 
      2 C           3.1103  -17.1400  -48.4866 C.2       0 UNK         0.5000 
      3 O           2.1187  -16.6484  -47.9531 O.2       0 UNK        -0.5000 
      4 N           3.6729  -16.6122  -49.5809 N.am      1 UNK        -0.5000 
      5 CA          3.1154  -15.5101  -50.3829 C.3       1 UNK         0.1400 
      6 C6          3.6889  -15.5298  -51.8268 C.3       23 UNK        -0.0398 
      7 S7          2.5200  -14.9992  -53.1305 S.3       23 UNK        -0.2404 
      8 C8          1.4752  -16.4778  -53.3937 C.3       23 UNK        -0.0205 
      9 C9          0.3298  -16.5204  -52.3939 C.ar      23 UNK        -0.0193 
     10 C10        -0.7310  -15.6183  -52.5153 C.ar      23 UNK        -0.1150 
     11 C11        -1.7165  -15.5427  -51.5284 C.ar      23 UNK        -0.0193 
     12 C12        -1.6340  -16.3815  -50.4145 C.ar      23 UNK        -0.1150 
     13 C13        -0.6016  -17.3154  -50.3035 C.ar      23 UNK        -0.0193 
     14 C14         0.3619  -17.4035  -51.3110 C.ar      23 UNK        -0.1150 
     15 C15        -0.4747  -18.1511  -49.0447 C.3       23 UNK        -0.0205 
     16 S16        -1.8387  -19.3326  -48.8487 S.3       23 UNK        -0.2404 
     17 C17        -1.4818  -19.8811  -47.1514 C.3       23 UNK        -0.0398 
     18 CA         -0.7348  -21.2398  -47.0955 C.3       11 UNK         0.1400 
     19 N           0.3148  -21.2509  -46.0706 N.am      11 UNK        -0.5000 
     20 C           1.1609  -22.2628  -45.8298 C.2       10 UNK         0.5000 
     21 O           1.2103  -23.2867  -46.5072 O.2       10 UNK        -0.5000 
     22 CA          2.0661  -22.1415  -44.5895 C.3       10 UNK         0.1400 
     23 CB          3.3644  -21.3974  -44.9335 C.3       10 UNK        -0.1800 
     24 N           1.3950  -21.4911  -43.4614 N.am      10 UNK        -0.5000 
     25 C           0.3117  -21.9810  -42.8390 C.2       9 UNK         0.5000 
     26 O          -0.1895  -23.0735  -43.1051 O.2       9 UNK        -0.5000 
     27 CA         -0.3657  -21.0712  -41.7953 C.3       9 UNK         0.1400 
     28 CB          0.3469  -21.1552  -40.4378 C.3       9 UNK        -0.1800 
     29 N          -0.4355  -19.6761  -42.2361 N.am      9 UNK        -0.5000 
     30 C          -1.1327  -19.2569  -43.3027 C.2       8 UNK         0.5000 
     31 O          -1.8551  -19.9923  -43.9767 O.2       8 UNK        -0.5000 
     32 CA         -0.9339  -17.7898  -43.7276 C.3       8 UNK         0.1400 
     33 CB         -1.8574  -16.8503  -42.9388 C.3       8 UNK        -0.1800 
     34 N           0.4636  -17.3715  -43.5867 N.am      8 UNK        -0.5000 
     35 C           1.4551  -17.8116  -44.3767 C.2       7 UNK         0.5000 
     36 O           1.2676  -18.5399  -45.3487 O.2       7 UNK        -0.5000 
     37 CA          2.8963  -17.4392  -43.9805 C.3       7 UNK         0.1400 
     38 CB          3.3529  -16.1372  -44.6496 C.3       7 UNK        -0.1800 
     39 N           3.0531  -17.3211  -42.5322 N.am      7 UNK        -0.5000 
     40 C           3.1163  -18.3734  -41.7048 C.2       6 UNK         0.5000 
     41 O           3.0784  -19.5401  -42.0930 O.2       6 UNK        -0.5000 
     42 CA          3.1923  -18.0849  -40.1930 C.3       6 UNK         0.1400 
     43 CB          4.6552  -18.0356  -39.7292 C.3       6 UNK        -0.1800 
     44 N           2.5207  -16.8454  -39.7982 N.am      6 UNK        -0.5000 
     45 C           1.2126  -16.5989  -39.9482 C.2       5 UNK         0.5000 
     46 O           0.4233  -17.4149  -40.4274 O.2       5 UNK        -0.5000 
     47 CA          0.7003  -15.1986  -39.5435 C.3       5 UNK         0.1400 
     48 CB          1.7487  -14.3332  -38.8083 C.3       5 UNK        -0.1800 
     49 N           0.1529  -14.4540  -40.6849 N.am      5 UNK        -0.5000 
     50 C           0.7673  -14.1983  -41.8485 C.2       4 UNK         0.5000 
     51 O           1.8974  -14.5987  -42.1358 O.2       4 UNK        -0.5000 
     52 CA         -0.0060  -13.3426  -42.8591 C.3       4 UNK         0.1400 
     53 CB          0.3554  -11.8562  -42.7072 C.3       4 UNK        -0.1800 
     54 N           0.3144  -13.7865  -44.2135 N.am      4 UNK        -0.5000 
     55 C          -0.5423  -13.7863  -45.2412 C.2       3 UNK         0.5000 
     56 O          -1.7020  -13.3791  -45.1493 O.2       3 UNK        -0.5000 
     57 CA         -0.0347  -14.3560  -46.5852 C.3       3 UNK         0.1400 
     58 CB         -0.9056  -13.9260  -47.7834 C.3       3 UNK        -0.1800 
     59 N           1.3771  -14.0969  -46.8875 N.am      3 UNK        -0.5000 
     60 C           2.0027  -12.9100  -46.9732 C.2       2 UNK         0.5000 
     61 O           1.4923  -11.8366  -46.6525 O.2       2 UNK        -0.5000 
     62 CA          3.4368  -12.9159  -47.5521 C.3       2 UNK         0.1400 
     63 CB          4.4840  -12.9525  -46.4293 C.3       2 UNK        -0.1800 
     64 N           3.6641  -14.0376  -48.4687 N.am      2 UNK        -0.5000 
     65 C           3.1373  -14.1192  -49.6999 C.2       1 UNK         0.5000 
     66 O           2.6236  -13.1554  -50.2688 O.2       1 UNK        -0.5000 
     67 C          -1.7293  -22.3993  -46.9003 C.2       11 UNK         0.5000 
     68 O          -1.9673  -23.1644  -47.8348 O.2       11 UNK        -0.5000 
     69 N          -2.2546  -22.5215  -45.6722 N.am      12 UNK        -0.5000 
     70 CA         -3.1806  -23.5757  -45.2568 C.3       12 UNK         0.1400 
     71 CB         -3.7022  -23.2678  -43.8455 C.3       12 UNK        -0.1800 
     72 C          -2.5648  -24.9840  -45.3255 C.2       12 UNK         0.5000 
     73 O          -3.2534  -25.9258  -45.7195 O.2       12 UNK        -0.5000 
     74 N          -1.2781  -25.0982  -44.9692 N.am      13 UNK        -0.5000 
     75 CA         -0.4952  -26.3272  -45.0925 C.3       13 UNK         0.1400 
     76 CB          0.8312  -26.1697  -44.3340 C.3       13 UNK        -0.1800 
     77 C          -0.2451  -26.7271  -46.5598 C.2       13 UNK         0.5000 
     78 O          -0.2924  -27.9168  -46.8754 O.2       13 UNK        -0.5000 
     79 N           0.0102  -25.7347  -47.4246 N.am      14 UNK        -0.5000 
     80 CA          0.2262  -25.9103  -48.8589 C.3       14 UNK         0.1400 
     81 CB          0.8214  -24.6290  -49.4662 C.3       14 UNK        -0.1800 
     82 C          -1.0539  -26.3345  -49.5974 C.2       14 UNK         0.5000 
     83 O          -1.0427  -27.3735  -50.2596 O.2       14 UNK        -0.5000 
     84 N          -2.1287  -25.5441  -49.4635 N.am      15 UNK        -0.5000 
     85 CA         -3.4287  -25.8170  -50.0779 C.3       15 UNK         0.1400 
     86 CB         -3.3604  -25.7213  -51.6190 C.3       15 UNK        -0.1800 
     87 C          -4.5182  -24.8769  -49.5483 C.2       15 UNK         0.5000 
     88 O          -5.5497  -25.3560  -49.0770 O.2       15 UNK        -0.5000 
     89 N          -4.2853  -23.5619  -49.6915 N.am      16 UNK        -0.5000 
     90 CA         -5.2512  -22.4697  -49.5049 C.3       16 UNK         0.1400 
     91 CB         -5.5870  -22.2611  -48.0149 C.3       16 UNK        -0.1800 
     92 C          -6.4973  -22.6505  -50.3987 C.2       16 UNK         0.5000 
     93 O          -7.6321  -22.6399  -49.9190 O.2       16 UNK        -0.5000 
     94 N          -6.2368  -22.8638  -51.6948 N.am      17 UNK        -0.5000 
     95 CA         -7.2228  -23.1887  -52.7261 C.3       17 UNK         0.1400 
     96 CB         -6.4662  -23.7240  -53.9534 C.3       17 UNK        -0.1800 
     97 C          -8.1372  -22.0171  -53.1369 C.2       17 UNK         0.5000 
     98 O          -9.1135  -22.2521  -53.8499 O.2       17 UNK        -0.5000 
     99 N          -7.7894  -20.7907  -52.7195 N.am      18 UNK        -0.5000 
    100 CA        -8.3629  -19.5107  -53.1499 C.3       18 UNK         0.1400 
    101 CB        -9.8693  -19.4090  -52.8287 C.3       18 UNK        -0.1800 
    102 C         -8.0165  -19.2246  -54.6252 C.2       18 UNK         0.5000 
    103 O         -8.8706  -18.7875  -55.3988 O.2       18 UNK        -0.5000 
    104 N         -6.7587  -19.5081  -54.9827 N.am      19 UNK        -0.5000 
    105 CA        -6.2080  -19.3891  -56.3274 C.3       19 UNK         0.1400 
    106 CB        -6.3994  -20.7233  -57.0796 C.3       19 UNK        -0.1800 
    107 C         -4.7482  -18.9261  -56.2000 C.2       19 UNK         0.5000 
    108 O         -4.5173  -17.8116  -55.7297 O.2       19 UNK        -0.5000 
    109 N         -3.7887  -19.7809  -56.5859 N.am      20 UNK        -0.5000 
    110 CA        -2.3455  -19.5419  -56.4532 C.3       20 UNK         0.1400 
    111 CB        -1.5823  -20.6471  -57.1992 C.3       20 UNK        -0.1800 
    112 C         -1.8773  -19.4553  -54.9859 C.2       20 UNK         0.5000 
    113 O         -0.9135  -18.7481  -54.6949 O.2       20 UNK        -0.5000 
    114 N         -2.5942  -20.1550  -54.1001 N.am      21 UNK        -0.5000 
    115 CA        -2.5547  -19.9964  -52.6543 C.3       21 UNK         0.1400 
    116 CB        -2.2839  -21.3668  -52.0088 C.3       21 UNK        -0.1800 
    117 C         -3.9363  -19.4628  -52.2579 C.2       21 UNK         0.5000 
    118 O         -4.9380  -20.1159  -52.5685 O.2       21 UNK        -0.5000 
    119 N         -3.9827  -18.2835  -51.6301 N.am      22 UNK        -0.5000 
    120 CA        -5.2396  -17.6210  -51.2415 C.3       22 UNK         0.1400 
    121 C         -5.9514  -18.2722  -50.0231 C.2       22 UNK         0.5000 
    122 N         -5.2402  -18.9543  -49.1343 N.am      22 UNK        -0.7600 
    123 O         -7.1648  -18.1544  -49.8857 O.2       22 UNK        -0.5000 
    124 C124       -5.0822  -16.0989  -51.0028 C.3       23 UNK        -0.0398 
    125 S125       -4.3275  -15.2120  -52.4087 S.3       23 UNK        -0.2404 
    126 C126       -2.8309  -14.5144  -51.6423 C.3       23 UNK        -0.0205 
    127 H127        4.4784  -18.8291  -48.5751 H         1 UNK         0.0600 
    128 H128        2.9920  -19.1295  -47.6715 H         1 UNK         0.0600 
    129 H129        4.2688  -18.1384  -46.9623 H         1 UNK         0.0600 
    130 H130        4.5153  -17.0334  -49.9465 H         1 UNK         0.3000 
    131 H131        2.0513  -15.7136  -50.4507 H         1 UNK         0.0600 
    132 H132        4.5867  -14.9129  -51.8907 H         1 UNK         0.0800 
    133 H133        4.0137  -16.5365  -52.0936 H         1 UNK         0.0800 
    134 H134        1.0619  -16.4459  -54.4029 H         1 UNK         0.0800 
    135 H135        2.0797  -17.3844  -53.3406 H         1 UNK         0.0800 
    136 H136       -0.7616  -14.9420  -53.3581 H         1 UNK         0.1150 
    137 H137       -2.3560  -16.2967  -49.6155 H         1 UNK         0.1150 
    138 H138        1.1839  -18.0980  -51.2097 H         1 UNK         0.1150 
    139 H139        0.4697  -18.6971  -49.0306 H         1 UNK         0.0800 
    140 H140       -0.4499  -17.4717  -48.1914 H         1 UNK         0.0800 
    141 H141       -0.8928  -19.1074  -46.6625 H         1 UNK         0.0800 
    142 H142       -2.4222  -19.8962  -46.5971 H         1 UNK         0.0800 
    143 H143       -0.2232  -21.4046  -48.0463 H         1 UNK         0.0600 
    144 H144        0.4020  -20.4140  -45.5058 H         1 UNK         0.3000 
    145 H145        2.3328  -23.1515  -44.2729 H         1 UNK         0.0600 
    146 H146        4.0221  -21.3258  -44.0672 H         1 UNK         0.0600 
    147 H147        3.9141  -21.9201  -45.7171 H         1 UNK         0.0600 
    148 H148        3.1694  -20.3883  -45.2932 H         1 UNK         0.0600 
    149 H149        1.8004  -20.6221  -43.1286 H         1 UNK         0.3000 
    150 H150       -1.3893  -21.4272  -41.6609 H         1 UNK         0.0600 
    151 H151        0.3343  -22.1769  -40.0567 H         1 UNK         0.0600 
    152 H152       -0.1417  -20.5238  -39.6953 H         1 UNK         0.0600 
    153 H153        1.3892  -20.8465  -40.5062 H         1 UNK         0.0600 
    154 H154        0.0882  -18.9932  -41.6993 H         1 UNK         0.3000 
    155 H155       -1.2089  -17.7077  -44.7807 H         1 UNK         0.0600 
    156 H156       -1.7717  -15.8242  -43.2930 H         1 UNK         0.0600 
    157 H157       -1.6397  -16.8580  -41.8716 H         1 UNK         0.0600 
    158 H158       -2.9007  -17.1446  -43.0588 H         1 UNK         0.0600 
    159 H159        0.7030  -16.8387  -42.7625 H         1 UNK         0.3000 
    160 H160        3.5554  -18.2353  -44.3320 H         1 UNK         0.0600 
    161 H161        2.6806  -15.3085  -44.4426 H         1 UNK         0.0600 
    162 H162        3.3987  -16.2499  -45.7292 H         1 UNK         0.0600 
    163 H163        4.3504  -15.8523  -44.3147 H         1 UNK         0.0600 
    164 H164        3.0240  -16.3834  -42.1466 H         1 UNK         0.3000 
    165 H165        2.6978  -18.9094  -39.6758 H         1 UNK         0.0600 
    166 H166        5.1969  -17.2102  -40.1930 H         1 UNK         0.0600 
    167 H167        4.7230  -17.9173  -38.6476 H         1 UNK         0.0600 
    168 H168        5.1778  -18.9578  -39.9872 H         1 UNK         0.0600 
    169 H169        3.1063  -16.1138  -39.4226 H         1 UNK         0.3000 
    170 H170       -0.1285  -15.3696  -38.8552 H         1 UNK         0.0600 
    171 H171        2.1246  -14.8371  -37.9168 H         1 UNK         0.0600 
    172 H172        2.6015  -14.0892  -39.4430 H         1 UNK         0.0600 
    173 H173        1.3092  -13.3920  -38.4779 H         1 UNK         0.0600 
    174 H174       -0.7860  -14.1044  -40.5537 H         1 UNK         0.3000 
    175 H175       -1.0734  -13.4721  -42.6680 H         1 UNK         0.0600 
    176 H176       -0.2135  -11.2397  -43.4034 H         1 UNK         0.0600 
    177 H177        0.1352  -11.4992  -41.7004 H         1 UNK         0.0600 
    178 H178        1.4154  -11.6807  -42.8958 H         1 UNK         0.0600 
    179 H179        1.2498  -14.1475  -44.3371 H         1 UNK         0.3000 
    180 H180       -0.1204  -15.4401  -46.4953 H         1 UNK         0.0600 
    181 H181       -0.5256  -14.3466  -48.7144 H         1 UNK         0.0600 
    182 H182       -1.9343  -14.2694  -47.6685 H         1 UNK         0.0600 
    183 H183       -0.9289  -12.8414  -47.8938 H         1 UNK         0.0600 
    184 H184        1.8767  -14.9221  -47.2090 H         1 UNK         0.3000 
    185 H185        3.5712  -11.9831  -48.1040 H         1 UNK         0.0600 
    186 H186        5.4932  -12.8593  -46.8308 H         1 UNK         0.0600 
    187 H187        4.3357  -12.1286  -45.7300 H         1 UNK         0.0600 
    188 H188        4.4360  -13.8786  -45.8592 H         1 UNK         0.0600 
    189 H189        4.0741  -14.8724  -48.0770 H         1 UNK         0.3000 
    190 H190       -2.0024  -21.8350  -44.9689 H         1 UNK         0.3000 
    191 H191       -4.0302  -23.5651  -45.9401 H         1 UNK         0.0600 
    192 H192       -4.4248  -24.0189  -43.5242 H         1 UNK         0.0600 
    193 H193       -4.2022  -22.2995  -43.8133 H         1 UNK         0.0600 
    194 H194       -2.8964  -23.2521  -43.1114 H         1 UNK         0.0600 
    195 H195       -0.8048  -24.2860  -44.5862 H         1 UNK         0.3000 
    196 H196       -1.0600  -27.1332  -44.6192 H         1 UNK         0.0600 
    197 H197        1.4061  -27.0961  -44.3590 H         1 UNK         0.0600 
    198 H198        0.6604  -25.9196  -43.2867 H         1 UNK         0.0600 
    199 H199        1.4531  -25.3872  -44.7679 H         1 UNK         0.0600 
    200 H200        0.0999  -24.7877  -47.0690 H         1 UNK         0.3000 
    201 H201        0.9617  -26.7070  -48.9890 H         1 UNK         0.0600 
    202 H202        1.7865  -24.3943  -49.0171 H         1 UNK         0.0600 
    203 H203        0.1702  -23.7670  -49.3224 H         1 UNK         0.0600 
    204 H204        0.9820  -24.7434  -50.5388 H         1 UNK         0.0600 
    205 H205       -2.0739  -24.7285  -48.8542 H         1 UNK         0.3000 
    206 H206       -3.7218  -26.8338  -49.8077 H         1 UNK         0.0600 
    207 H207       -2.7578  -26.5210  -52.0482 H         1 UNK         0.0600 
    208 H208       -4.3540  -25.8067  -52.0608 H         1 UNK         0.0600 
    209 H209       -2.9348  -24.7727  -51.9474 H         1 UNK         0.0600 
    210 H210       -3.3775  -23.2852  -50.0359 H         1 UNK         0.3000 
    211 H211       -4.7593  -21.5633  -49.8582 H         1 UNK         0.0600 
    212 H212       -5.9816  -23.1658  -47.5527 H         1 UNK         0.0600 
    213 H213       -6.3340  -21.4776  -47.8854 H         1 UNK         0.0600 
    214 H214       -4.7027  -21.9505  -47.4609 H         1 UNK         0.0600 
    215 H215       -5.2763  -22.8274  -52.0000 H         1 UNK         0.3000 
    216 H216       -7.8662  -23.9838  -52.3437 H         1 UNK         0.0600 
    217 H217       -5.7865  -22.9754  -54.3625 H         1 UNK         0.0600 
    218 H218       -7.1562  -24.0093  -54.7486 H         1 UNK         0.0600 
    219 H219       -5.8812  -24.6089  -53.7031 H         1 UNK         0.0600 
    220 H220       -6.9238  -20.7189  -52.1974 H         1 UNK         0.3000 
    221 H221       -7.8655  -18.7406  -52.5638 H         1 UNK         0.0600 
    222 H222      -10.4700  -20.0756  -53.4475 H         1 UNK         0.0600 
    223 H223      -10.0653  -19.6501  -51.7840 H         1 UNK         0.0600 
    224 H224      -10.2323  -18.3953  -53.0013 H         1 UNK         0.0600 
    225 H225       -6.1116  -19.8074  -54.2607 H         1 UNK         0.3000 
    226 H226       -6.7338  -18.6043  -56.8750 H         1 UNK         0.0600 
    227 H227       -7.4588  -20.9593  -57.1838 H         1 UNK         0.0600 
    228 H228       -5.9845  -20.6738  -58.0871 H         1 UNK         0.0600 
    229 H229       -5.9305  -21.5588  -56.5586 H         1 UNK         0.0600 
    230 H230       -4.0636  -20.6710  -56.9756 H         1 UNK         0.3000 
    231 H231       -2.1168  -18.5856  -56.9283 H         1 UNK         0.0600 
    232 H232       -0.5051  -20.4848  -57.1402 H         1 UNK         0.0600 
    233 H233       -1.8489  -20.6671  -58.2561 H         1 UNK         0.0600 
    234 H234       -1.7890  -21.6329  -56.7805 H         1 UNK         0.0600 
    235 H235       -3.3868  -20.6749  -54.4471 H         1 UNK         0.3000 
    236 H236       -1.7808  -19.2898  -52.3471 H         1 UNK         0.0600 
    237 H237       -1.2973  -21.7387  -52.2855 H         1 UNK         0.0600 
    238 H238       -2.3134  -21.3061  -50.9216 H         1 UNK         0.0600 
    239 H239       -3.0176  -22.1125  -52.3166 H         1 UNK         0.0600 
    240 H240       -3.1279  -17.7792  -51.4395 H         1 UNK         0.3000 
    241 H241       -5.9189  -17.7243  -52.0879 H         1 UNK         0.0600 
    242 H242       -4.2374  -19.0275  -49.2194 H         1 UNK         0.3800 
    243 H243       -5.7091  -19.3419  -48.3327 H         1 UNK         0.3800 
    244 H244       -6.0621  -15.6481  -50.8349 H         1 UNK         0.0800 
    245 H245       -4.5174  -15.9094  -50.0905 H         1 UNK         0.0800 
    246 H246       -3.0674  -14.0982  -50.6618 H         1 UNK         0.0800 
    247 H247       -2.4935  -13.6722  -52.2484 H         1 UNK         0.0800 
@<TRIPOS>BOND
     1    1    2 1    
     2    1  127 1    
     3    1  128 1    
     4    1  129 1    
     5    2    3 2    
     6    2    4 am   BACKBONE|DICT|INTERRES
     7    4    5 1    
     8    4  130 1    
     9    5    6 1    
    10    5   65 1    
    11    5  131 1    
    12    6    7 1    
    13    6  132 1    
    14    6  133 1    
    15    7    8 1    
    16    8    9 1    
    17    8  134 1    
    18    8  135 1    
    19    9   10 ar   
    20    9   14 ar   
    21   10   11 ar   
    22   10  136 1    
    23   11   12 ar   
    24   11  126 1    
    25   12   13 ar   
    26   12  137 1    
    27   13   14 ar   
    28   13   15 1    
    29   14  138 1    
    30   15   16 1    
    31   15  139 1    
    32   15  140 1    
    33   16   17 1    
    34   17   18 1    
    35   17  141 1    
    36   17  142 1    
    37   18   19 1    
    38   18   67 1    
    39   18  143 1    
    40   19   20 am   BACKBONE|DICT|INTERRES
    41   19  144 1    
    42   20   21 2    
    43   20   22 1    
    44   22   23 1    
    45   22   24 1    
    46   22  145 1    
    47   23  146 1    
    48   23  147 1    
    49   23  148 1    
    50   24   25 am   BACKBONE|DICT|INTERRES
    51   24  149 1    
    52   25   26 2    
    53   25   27 1    
    54   27   28 1    
    55   27   29 1    
    56   27  150 1    
    57   28  151 1    
    58   28  152 1    
    59   28  153 1    
    60   29   30 am   BACKBONE|DICT|INTERRES
    61   29  154 1    
    62   30   31 2    
    63   30   32 1    
    64   32   33 1    
    65   32   34 1    
    66   32  155 1    
    67   33  156 1    
    68   33  157 1    
    69   33  158 1    
    70   34   35 am   BACKBONE|DICT|INTERRES
    71   34  159 1    
    72   35   36 2    
    73   35   37 1    
    74   37   38 1    
    75   37   39 1    
    76   37  160 1    
    77   38  161 1    
    78   38  162 1    
    79   38  163 1    
    80   39   40 am   BACKBONE|DICT|INTERRES
    81   39  164 1    
    82   40   41 2    
    83   40   42 1    
    84   42   43 1    
    85   42   44 1    
    86   42  165 1    
    87   43  166 1    
    88   43  167 1    
    89   43  168 1    
    90   44   45 am   BACKBONE|DICT|INTERRES
    91   44  169 1    
    92   45   46 2    
    93   45   47 1    
    94   47   48 1    
    95   47   49 1    
    96   47  170 1    
    97   48  171 1    
    98   48  172 1    
    99   48  173 1    
   100   49   50 am   BACKBONE|DICT|INTERRES
   101   49  174 1    
   102   50   51 2    
   103   50   52 1    
   104   52   53 1    
   105   52   54 1    
   106   52  175 1    
   107   53  176 1    
   108   53  177 1    
   109   53  178 1    
   110   54   55 am   BACKBONE|DICT|INTERRES
   111   54  179 1    
   112   55   56 2    
   113   55   57 1    
   114   57   58 1    
   115   57   59 1    
   116   57  180 1    
   117   58  181 1    
   118   58  182 1    
   119   58  183 1    
   120   59   60 am   BACKBONE|DICT|INTERRES
   121   59  184 1    
   122   60   61 2    
   123   60   62 1    
   124   62   63 1    
   125   62   64 1    
   126   62  185 1    
   127   63  186 1    
   128   63  187 1    
   129   63  188 1    
   130   64   65 am   BACKBONE|DICT|INTERRES
   131   64  189 1    
   132   65   66 2    
   133   67   68 2    
   134   67   69 am   BACKBONE|DICT|INTERRES
   135   69   70 1    
   136   69  190 1    
   137   70   71 1    
   138   70   72 1    
   139   70  191 1    
   140   71  192 1    
   141   71  193 1    
   142   71  194 1    
   143   72   73 2    
   144   72   74 am   BACKBONE|DICT|INTERRES
   145   74   75 1    
   146   74  195 1    
   147   75   76 1    
   148   75   77 1    
   149   75  196 1    
   150   76  197 1    
   151   76  198 1    
   152   76  199 1    
   153   77   78 2    
   154   77   79 am   BACKBONE|DICT|INTERRES
   155   79   80 1    
   156   79  200 1    
   157   80   81 1    
   158   80   82 1    
   159   80  201 1    
   160   81  202 1    
   161   81  203 1    
   162   81  204 1    
   163   82   83 2    
   164   82   84 am   BACKBONE|DICT|INTERRES
   165   84   85 1    
   166   84  205 1    
   167   85   86 1    
   168   85   87 1    
   169   85  206 1    
   170   86  207 1    
   171   86  208 1    
   172   86  209 1    
   173   87   88 2    
   174   87   89 am   BACKBONE|DICT|INTERRES
   175   89   90 1    
   176   89  210 1    
   177   90   91 1    
   178   90   92 1    
   179   90  211 1    
   180   91  212 1    
   181   91  213 1    
   182   91  214 1    
   183   92   93 2    
   184   92   94 am   BACKBONE|DICT|INTERRES
   185   94   95 1    
   186   94  215 1    
   187   95   96 1    
   188   95   97 1    
   189   95  216 1    
   190   96  217 1    
   191   96  218 1    
   192   96  219 1    
   193   97   98 2    
   194   97   99 am   BACKBONE|DICT|INTERRES
   195   99  100 1    
   196   99  220 1    
   197  100  101 1    
   198  100  102 1    
   199  100  221 1    
   200  101  222 1    
   201  101  223 1    
   202  101  224 1    
   203  102  103 2    
   204  102  104 am   BACKBONE|DICT|INTERRES
   205  104  105 1    
   206  104  225 1    
   207  105  106 1    
   208  105  107 1    
   209  105  226 1    
   210  106  227 1    
   211  106  228 1    
   212  106  229 1    
   213  107  108 2    
   214  107  109 am   BACKBONE|DICT|INTERRES
   215  109  110 1    
   216  109  230 1    
   217  110  111 1    
   218  110  112 1    
   219  110  231 1    
   220  111  232 1    
   221  111  233 1    
   222  111  234 1    
   223  112  113 2    
   224  112  114 am   BACKBONE|DICT|INTERRES
   225  114  115 1    
   226  114  235 1    
   227  115  116 1    
   228  115  117 1    
   229  115  236 1    
   230  116  237 1    
   231  116  238 1    
   232  116  239 1    
   233  117  118 2    
   234  117  119 am   BACKBONE|DICT|INTERRES
   235  119  120 1    
   236  119  240 1    
   237  120  121 1    
   238  120  124 1    
   239  120  241 1    
   240  121  122 am   BACKBONE|DICT|INTERRES
   241  121  123 2    
   242  122  242 1    
   243  122  243 1    
   244  124  125 1    
   245  124  244 1    
   246  124  245 1    
   247  125  126 1    
   248  126  246 1    
   249  126  247 1    
@<TRIPOS>SUBSTRUCTURE
     1 UNK         1 GROUP             0       ****    0 ROOT    
